MODEL 1
REMARK VINA RESULT:      -8.5      0.000      0.000
REMARK  Name = 6915835
REMARK  8 active torsions:
REMARK  status: ('A' for Active; 'I' for Inactive)
REMARK    1  A    between atoms: C_2  and  C_23
REMARK    2  A    between atoms: C_11  and  C_12
REMARK    3  A    between atoms: C_16  and  O_19
REMARK    4  A    between atoms: C_17  and  O_21
REMARK    5  A    between atoms: C_23  and  C_25
REMARK    6  A    between atoms: C_25  and  C_26
REMARK    7  A    between atoms: C_27  and  C_28
REMARK    8  A    between atoms: C_28  and  O_31
REMARK                            x       y       z     vdW  Elec       q    Type
REMARK                         _______ _______ _______ _____ _____    ______ ____
ROOT
ATOM      1  C   UNL     1      32.567  -7.648 -22.895  0.00  0.00    +0.003 C 
ATOM      2  C   UNL     1      31.534  -6.496 -23.142  0.00  0.00    +0.001 C 
ATOM      3  C   UNL     1      31.755  -8.957 -23.183  0.00  0.00    +0.018 C 
ATOM      4  C   UNL     1      30.433  -7.133 -23.987  0.00  0.00    +0.000 C 
ATOM      5  C   UNL     1      30.298  -8.513 -23.370  0.00  0.00    +0.004 C 
ATOM      6  C   UNL     1      33.105  -7.594 -21.441  0.00  0.00    +0.001 C 
ATOM      7  C   UNL     1      31.922 -10.031 -22.137  0.00  0.00    -0.045 C 
ATOM      8  C   UNL     1      33.775  -7.582 -23.849  0.00  0.00    +0.000 C 
ATOM      9  C   UNL     1      32.112  -8.160 -20.425  0.00  0.00    +0.004 C 
ATOM     10  C   UNL     1      31.772  -9.627 -20.693  0.00  0.00    +0.022 C 
ATOM     11  C   UNL     1      32.253 -11.289 -22.469  0.00  0.00    -0.009 C 
ENDROOT
BRANCH  11  12
ATOM     12  C   UNL     1      32.486 -12.326 -21.497  0.00  0.00    -0.009 C 
ATOM     13  C   UNL     1      32.621 -13.620 -21.821  0.00  0.00    -0.039 C 
ATOM     14  C   UNL     1      32.863 -14.688 -20.788  0.00  0.00    +0.051 C 
ATOM     15  C   UNL     1      32.567 -14.107 -23.248  0.00  0.00    +0.051 C 
ATOM     16  C   UNL     1      34.112 -15.501 -21.130  0.00  0.00    +0.117 C 
ATOM     17  C   UNL     1      33.793 -14.959 -23.595  0.00  0.00    +0.117 C 
ATOM     18  C   UNL     1      34.047 -16.056 -22.558  0.00  0.00    +0.059 C 
BRANCH  16  19
ATOM     19  O   UNL     1      34.215 -16.580 -20.207  0.00  0.00    -0.384 OA
ATOM     20  H   UNL     1      33.449 -17.166 -20.307  0.00  0.00    +0.210 HD
ENDBRANCH  16  19
BRANCH  17  21
ATOM     21  O   UNL     1      34.950 -14.129 -23.682  0.00  0.00    -0.384 OA
ATOM     22  H   UNL     1      35.161 -13.772 -22.805  0.00  0.00    +0.210 HD
ENDBRANCH  17  21
ENDBRANCH  11  12
BRANCH   2  23
ATOM     23  C   UNL     1      32.068  -5.211 -23.764  0.00  0.00    +0.013 C 
ATOM     24  C   UNL     1      31.678  -4.000 -22.914  0.00  0.00    +0.001 C 
BRANCH  23  25
ATOM     25  C   UNL     1      31.646  -5.056 -25.234  0.00  0.00    +0.076 C 
BRANCH  25  26
ATOM     26  C   UNL     1      32.754  -4.702 -26.133  0.00  0.00    -0.089 C 
ATOM     27  C   UNL     1      33.659  -4.410 -26.868  0.00  0.00    -0.066 C 
BRANCH  27  28
ATOM     28  C   UNL     1      34.763  -4.042 -27.770  0.00  0.00    +0.141 C 
ATOM     29  C   UNL     1      35.981  -4.923 -27.498  0.00  0.00    +0.043 C 
ATOM     30  C   UNL     1      34.329  -4.165 -29.231  0.00  0.00    +0.043 C 
BRANCH  28  31
ATOM     31  O   UNL     1      35.150  -2.691 -27.522  0.00  0.00    -0.375 OA
ATOM     32  H   UNL     1      35.986  -2.678 -27.029  0.00  0.00    +0.211 HD
ENDBRANCH  28  31
ENDBRANCH  27  28
ENDBRANCH  25  26
ENDBRANCH  23  25
ENDBRANCH   2  23
TORSDOF 8
ENDMDL
MODEL 2
REMARK VINA RESULT:      -8.5      1.553      1.996
REMARK  Name = 6915835
REMARK  8 active torsions:
REMARK  status: ('A' for Active; 'I' for Inactive)
REMARK    1  A    between atoms: C_2  and  C_23
REMARK    2  A    between atoms: C_11  and  C_12
REMARK    3  A    between atoms: C_16  and  O_19
REMARK    4  A    between atoms: C_17  and  O_21
REMARK    5  A    between atoms: C_23  and  C_25
REMARK    6  A    between atoms: C_25  and  C_26
REMARK    7  A    between atoms: C_27  and  C_28
REMARK    8  A    between atoms: C_28  and  O_31
REMARK                            x       y       z     vdW  Elec       q    Type
REMARK                         _______ _______ _______ _____ _____    ______ ____
ROOT
ATOM      1  C   UNL     1      32.639  -7.867 -22.791  0.00  0.00    +0.003 C 
ATOM      2  C   UNL     1      31.348  -6.981 -22.847  0.00  0.00    +0.001 C 
ATOM      3  C   UNL     1      32.355  -9.021 -23.813  0.00  0.00    +0.018 C 
ATOM      4  C   UNL     1      30.674  -7.356 -24.166  0.00  0.00    +0.000 C 
ATOM      5  C   UNL     1      30.888  -8.858 -24.231  0.00  0.00    +0.004 C 
ATOM      6  C   UNL     1      32.873  -8.397 -21.352  0.00  0.00    +0.001 C 
ATOM      7  C   UNL     1      32.678 -10.400 -23.294  0.00  0.00    -0.045 C 
ATOM      8  C   UNL     1      33.906  -7.106 -23.227  0.00  0.00    +0.000 C 
ATOM      9  C   UNL     1      31.958  -9.570 -21.001  0.00  0.00    +0.004 C 
ATOM     10  C   UNL     1      32.160 -10.769 -21.928  0.00  0.00    +0.022 C 
ATOM     11  C   UNL     1      33.449 -11.250 -23.991  0.00  0.00    -0.009 C 
ENDROOT
BRANCH  11  12
ATOM     12  C   UNL     1      33.833 -12.549 -23.501  0.00  0.00    -0.009 C 
ATOM     13  C   UNL     1      33.364 -13.695 -24.013  0.00  0.00    -0.039 C 
ATOM     14  C   UNL     1      33.779 -15.042 -23.485  0.00  0.00    +0.051 C 
ATOM     15  C   UNL     1      32.402 -13.729 -25.175  0.00  0.00    +0.051 C 
ATOM     16  C   UNL     1      34.321 -15.923 -24.612  0.00  0.00    +0.117 C 
ATOM     17  C   UNL     1      32.913 -14.641 -26.297  0.00  0.00    +0.117 C 
ATOM     18  C   UNL     1      33.330 -16.018 -25.777  0.00  0.00    +0.059 C 
BRANCH  16  19
ATOM     19  O   UNL     1      34.566 -17.225 -24.090  0.00  0.00    -0.384 OA
ATOM     20  H   UNL     1      34.477 -17.208 -23.124  0.00  0.00    +0.210 HD
ENDBRANCH  16  19
BRANCH  17  21
ATOM     21  O   UNL     1      34.029 -14.033 -26.944  0.00  0.00    -0.384 OA
ATOM     22  H   UNL     1      34.395 -14.645 -27.602  0.00  0.00    +0.210 HD
ENDBRANCH  17  21
ENDBRANCH  11  12
BRANCH   2  23
ATOM     23  C   UNL     1      31.538  -5.475 -22.705  0.00  0.00    +0.013 C 
ATOM     24  C   UNL     1      30.954  -4.983 -21.379  0.00  0.00    +0.001 C 
BRANCH  23  25
ATOM     25  C   UNL     1      30.983  -4.701 -23.912  0.00  0.00    +0.076 C 
BRANCH  25  26
ATOM     26  C   UNL     1      31.948  -4.551 -25.012  0.00  0.00    -0.089 C 
ATOM     27  C   UNL     1      32.734  -4.428 -25.912  0.00  0.00    -0.066 C 
BRANCH  27  28
ATOM     28  C   UNL     1      33.690  -4.276 -27.022  0.00  0.00    +0.141 C 
ATOM     29  C   UNL     1      34.880  -5.214 -26.824  0.00  0.00    +0.043 C 
ATOM     30  C   UNL     1      33.009  -4.551 -28.362  0.00  0.00    +0.043 C 
BRANCH  28  31
ATOM     31  O   UNL     1      34.197  -2.942 -27.034  0.00  0.00    -0.375 OA
ATOM     32  H   UNL     1      35.128  -2.951 -27.308  0.00  0.00    +0.211 HD
ENDBRANCH  28  31
ENDBRANCH  27  28
ENDBRANCH  25  26
ENDBRANCH  23  25
ENDBRANCH   2  23
TORSDOF 8
ENDMDL
MODEL 3
REMARK VINA RESULT:      -8.3      5.302     13.769
REMARK  Name = 6915835
REMARK  8 active torsions:
REMARK  status: ('A' for Active; 'I' for Inactive)
REMARK    1  A    between atoms: C_2  and  C_23
REMARK    2  A    between atoms: C_11  and  C_12
REMARK    3  A    between atoms: C_16  and  O_19
REMARK    4  A    between atoms: C_17  and  O_21
REMARK    5  A    between atoms: C_23  and  C_25
REMARK    6  A    between atoms: C_25  and  C_26
REMARK    7  A    between atoms: C_27  and  C_28
REMARK    8  A    between atoms: C_28  and  O_31
REMARK                            x       y       z     vdW  Elec       q    Type
REMARK                         _______ _______ _______ _____ _____    ______ ____
ROOT
ATOM      1  C   UNL     1      35.501 -19.217 -21.191  0.00  0.00    +0.003 C 
ATOM      2  C   UNL     1      34.692 -20.538 -20.960  0.00  0.00    +0.001 C 
ATOM      3  C   UNL     1      34.447 -18.079 -20.966  0.00  0.00    +0.018 C 
ATOM      4  C   UNL     1      33.455 -20.107 -20.174  0.00  0.00    +0.000 C 
ATOM      5  C   UNL     1      33.093 -18.785 -20.828  0.00  0.00    +0.004 C 
ATOM      6  C   UNL     1      36.104 -19.190 -22.620  0.00  0.00    +0.001 C 
ATOM      7  C   UNL     1      34.456 -17.008 -22.028  0.00  0.00    -0.045 C 
ATOM      8  C   UNL     1      36.658 -19.041 -20.187  0.00  0.00    +0.000 C 
ATOM      9  C   UNL     1      35.069 -18.835 -23.688  0.00  0.00    +0.004 C 
ATOM     10  C   UNL     1      34.449 -17.454 -23.467  0.00  0.00    +0.022 C 
ATOM     11  C   UNL     1      34.532 -15.705 -21.712  0.00  0.00    -0.009 C 
ENDROOT
BRANCH  11  12
ATOM     12  C   UNL     1      34.609 -14.658 -22.697  0.00  0.00    -0.009 C 
ATOM     13  C   UNL     1      33.585 -13.842 -22.984  0.00  0.00    -0.039 C 
ATOM     14  C   UNL     1      33.688 -12.754 -24.018  0.00  0.00    +0.051 C 
ATOM     15  C   UNL     1      32.254 -13.934 -22.277  0.00  0.00    +0.051 C 
ATOM     16  C   UNL     1      33.297 -11.401 -23.422  0.00  0.00    +0.117 C 
ATOM     17  C   UNL     1      31.829 -12.575 -21.709  0.00  0.00    +0.117 C 
ATOM     18  C   UNL     1      31.919 -11.459 -22.752  0.00  0.00    +0.059 C 
BRANCH  16  19
ATOM     19  O   UNL     1      33.274 -10.436 -24.469  0.00  0.00    -0.384 OA
ATOM     20  H   UNL     1      32.736 -10.769 -25.204  0.00  0.00    +0.210 HD
ENDBRANCH  16  19
BRANCH  17  21
ATOM     21  O   UNL     1      32.655 -12.236 -20.596  0.00  0.00    -0.384 OA
ATOM     22  H   UNL     1      32.480 -11.320 -20.330  0.00  0.00    +0.210 HD
ENDBRANCH  17  21
ENDBRANCH  11  12
BRANCH   2  23
ATOM     23  C   UNL     1      35.429 -21.690 -20.287  0.00  0.00    +0.013 C 
ATOM     24  C   UNL     1      34.436 -22.726 -19.755  0.00  0.00    +0.001 C 
BRANCH  23  25
ATOM     25  C   UNL     1      36.406 -21.204 -19.204  0.00  0.00    +0.076 C 
BRANCH  25  26
ATOM     26  C   UNL     1      36.288 -21.933 -17.932  0.00  0.00    -0.089 C 
ATOM     27  C   UNL     1      36.192 -22.531 -16.895  0.00  0.00    -0.066 C 
BRANCH  27  28
ATOM     28  C   UNL     1      36.073 -23.273 -15.628  0.00  0.00    +0.141 C 
ATOM     29  C   UNL     1      37.108 -22.769 -14.623  0.00  0.00    +0.043 C 
ATOM     30  C   UNL     1      34.662 -23.141 -15.055  0.00  0.00    +0.043 C 
BRANCH  28  31
ATOM     31  O   UNL     1      36.343 -24.656 -15.860  0.00  0.00    -0.375 OA
ATOM     32  H   UNL     1      37.259 -24.762 -16.159  0.00  0.00    +0.211 HD
ENDBRANCH  28  31
ENDBRANCH  27  28
ENDBRANCH  25  26
ENDBRANCH  23  25
ENDBRANCH   2  23
TORSDOF 8
ENDMDL
MODEL 4
REMARK VINA RESULT:      -7.8      4.344     12.309
REMARK  Name = 6915835
REMARK  8 active torsions:
REMARK  status: ('A' for Active; 'I' for Inactive)
REMARK    1  A    between atoms: C_2  and  C_23
REMARK    2  A    between atoms: C_11  and  C_12
REMARK    3  A    between atoms: C_16  and  O_19
REMARK    4  A    between atoms: C_17  and  O_21
REMARK    5  A    between atoms: C_23  and  C_25
REMARK    6  A    between atoms: C_25  and  C_26
REMARK    7  A    between atoms: C_27  and  C_28
REMARK    8  A    between atoms: C_28  and  O_31
REMARK                            x       y       z     vdW  Elec       q    Type
REMARK                         _______ _______ _______ _____ _____    ______ ____
ROOT
ATOM      1  C   UNL     1      34.077 -16.261 -21.254  0.00  0.00    +0.003 C 
ATOM      2  C   UNL     1      33.623 -17.755 -21.381  0.00  0.00    +0.001 C 
ATOM      3  C   UNL     1      32.753 -15.485 -20.931  0.00  0.00    +0.018 C 
ATOM      4  C   UNL     1      32.271 -17.814 -20.671  0.00  0.00    +0.000 C 
ATOM      5  C   UNL     1      31.620 -16.507 -21.090  0.00  0.00    +0.004 C 
ATOM      6  C   UNL     1      34.738 -15.778 -22.572  0.00  0.00    +0.001 C 
ATOM      7  C   UNL     1      32.551 -14.238 -21.754  0.00  0.00    -0.045 C 
ATOM      8  C   UNL     1      35.085 -16.037 -20.110  0.00  0.00    +0.000 C 
ATOM      9  C   UNL     1      33.713 -15.457 -23.660  0.00  0.00    +0.004 C 
ATOM     10  C   UNL     1      32.746 -14.347 -23.245  0.00  0.00    +0.022 C 
ATOM     11  C   UNL     1      32.269 -13.056 -21.182  0.00  0.00    -0.009 C 
ENDROOT
BRANCH  11  12
ATOM     12  C   UNL     1      32.133 -11.831 -21.926  0.00  0.00    -0.009 C 
ATOM     13  C   UNL     1      31.571 -10.723 -21.423  0.00  0.00    -0.039 C 
ATOM     14  C   UNL     1      31.440  -9.453 -22.219  0.00  0.00    +0.051 C 
ATOM     15  C   UNL     1      31.048 -10.652 -20.008  0.00  0.00    +0.051 C 
ATOM     16  C   UNL     1      32.063  -8.275 -21.470  0.00  0.00    +0.117 C 
ATOM     17  C   UNL     1      31.634  -9.452 -19.256  0.00  0.00    +0.117 C 
ATOM     18  C   UNL     1      31.499  -8.150 -20.050  0.00  0.00    +0.059 C 
BRANCH  16  19
ATOM     19  O   UNL     1      31.789  -7.082 -22.196  0.00  0.00    -0.384 OA
ATOM     20  H   UNL     1      31.114  -6.566 -21.727  0.00  0.00    +0.210 HD
ENDBRANCH  16  19
BRANCH  17  21
ATOM     21  O   UNL     1      33.014  -9.682 -18.976  0.00  0.00    -0.384 OA
ATOM     22  H   UNL     1      33.495  -9.821 -19.807  0.00  0.00    +0.210 HD
ENDBRANCH  17  21
ENDBRANCH  11  12
BRANCH   2  23
ATOM     23  C   UNL     1      34.589 -18.816 -20.868  0.00  0.00    +0.013 C 
ATOM     24  C   UNL     1      36.021 -18.490 -21.298  0.00  0.00    +0.001 C 
BRANCH  23  25
ATOM     25  C   UNL     1      34.164 -20.237 -21.274  0.00  0.00    +0.076 C 
BRANCH  25  26
ATOM     26  C   UNL     1      34.004 -21.153 -20.135  0.00  0.00    -0.089 C 
ATOM     27  C   UNL     1      33.872 -21.904 -19.207  0.00  0.00    -0.066 C 
BRANCH  27  28
ATOM     28  C   UNL     1      33.705 -22.831 -18.075  0.00  0.00    +0.141 C 
ATOM     29  C   UNL     1      34.865 -22.677 -17.092  0.00  0.00    +0.043 C 
ATOM     30  C   UNL     1      32.371 -22.589 -17.371  0.00  0.00    +0.043 C 
BRANCH  28  31
ATOM     31  O   UNL     1      33.729 -24.176 -18.554  0.00  0.00    -0.375 OA
ATOM     32  H   UNL     1      34.646 -24.492 -18.586  0.00  0.00    +0.211 HD
ENDBRANCH  28  31
ENDBRANCH  27  28
ENDBRANCH  25  26
ENDBRANCH  23  25
ENDBRANCH   2  23
TORSDOF 8
ENDMDL
MODEL 5
REMARK VINA RESULT:      -7.7      1.389      2.411
REMARK  Name = 6915835
REMARK  8 active torsions:
REMARK  status: ('A' for Active; 'I' for Inactive)
REMARK    1  A    between atoms: C_2  and  C_23
REMARK    2  A    between atoms: C_11  and  C_12
REMARK    3  A    between atoms: C_16  and  O_19
REMARK    4  A    between atoms: C_17  and  O_21
REMARK    5  A    between atoms: C_23  and  C_25
REMARK    6  A    between atoms: C_25  and  C_26
REMARK    7  A    between atoms: C_27  and  C_28
REMARK    8  A    between atoms: C_28  and  O_31
REMARK                            x       y       z     vdW  Elec       q    Type
REMARK                         _______ _______ _______ _____ _____    ______ ____
ROOT
ATOM      1  C   UNL     1      32.061  -7.973 -23.408  0.00  0.00    +0.003 C 
ATOM      2  C   UNL     1      32.374  -6.748 -22.483  0.00  0.00    +0.001 C 
ATOM      3  C   UNL     1      32.204  -9.214 -22.460  0.00  0.00    +0.018 C 
ATOM      4  C   UNL     1      32.184  -7.272 -21.061  0.00  0.00    +0.000 C 
ATOM      5  C   UNL     1      32.773  -8.670 -21.143  0.00  0.00    +0.004 C 
ATOM      6  C   UNL     1      33.053  -8.024 -24.600  0.00  0.00    +0.001 C 
ATOM      7  C   UNL     1      33.016 -10.345 -23.039  0.00  0.00    -0.045 C 
ATOM      8  C   UNL     1      30.632  -7.939 -23.983  0.00  0.00    +0.000 C 
ATOM      9  C   UNL     1      34.423  -8.574 -24.202  0.00  0.00    +0.004 C 
ATOM     10  C   UNL     1      34.346 -10.002 -23.659  0.00  0.00    +0.022 C 
ATOM     11  C   UNL     1      32.550 -11.604 -23.061  0.00  0.00    -0.009 C 
ENDROOT
BRANCH  11  12
ATOM     12  C   UNL     1      33.266 -12.699 -23.663  0.00  0.00    -0.009 C 
ATOM     13  C   UNL     1      33.853 -13.673 -22.953  0.00  0.00    -0.039 C 
ATOM     14  C   UNL     1      34.596 -14.808 -23.603  0.00  0.00    +0.051 C 
ATOM     15  C   UNL     1      33.794 -13.722 -21.445  0.00  0.00    +0.051 C 
ATOM     16  C   UNL     1      34.053 -16.156 -23.127  0.00  0.00    +0.117 C 
ATOM     17  C   UNL     1      33.290 -15.083 -20.951  0.00  0.00    +0.117 C 
ATOM     18  C   UNL     1      34.043 -16.248 -21.596  0.00  0.00    +0.059 C 
BRANCH  16  19
ATOM     19  O   UNL     1      34.878 -17.188 -23.658  0.00  0.00    -0.384 OA
ATOM     20  H   UNL     1      35.789 -17.065 -23.349  0.00  0.00    +0.210 HD
ENDBRANCH  16  19
BRANCH  17  21
ATOM     21  O   UNL     1      31.898 -15.217 -21.237  0.00  0.00    -0.384 OA
ATOM     22  H   UNL     1      31.670 -16.157 -21.305  0.00  0.00    +0.210 HD
ENDBRANCH  17  21
ENDBRANCH  11  12
BRANCH   2  23
ATOM     23  C   UNL     1      31.581  -5.471 -22.737  0.00  0.00    +0.013 C 
ATOM     24  C   UNL     1      30.535  -5.262 -21.641  0.00  0.00    +0.001 C 
BRANCH  23  25
ATOM     25  C   UNL     1      30.968  -5.437 -24.147  0.00  0.00    +0.076 C 
BRANCH  25  26
ATOM     26  C   UNL     1      31.893  -4.952 -25.182  0.00  0.00    -0.089 C 
ATOM     27  C   UNL     1      32.648  -4.559 -26.029  0.00  0.00    -0.066 C 
BRANCH  27  28
ATOM     28  C   UNL     1      33.572  -4.084 -27.074  0.00  0.00    +0.141 C 
ATOM     29  C   UNL     1      34.874  -4.882 -27.026  0.00  0.00    +0.043 C 
ATOM     30  C   UNL     1      32.927  -4.193 -28.455  0.00  0.00    +0.043 C 
BRANCH  28  31
ATOM     31  O   UNL     1      33.902  -2.716 -26.831  0.00  0.00    -0.375 OA
ATOM     32  H   UNL     1      34.777  -2.523 -27.203  0.00  0.00    +0.211 HD
ENDBRANCH  28  31
ENDBRANCH  27  28
ENDBRANCH  25  26
ENDBRANCH  23  25
ENDBRANCH   2  23
TORSDOF 8
ENDMDL
MODEL 6
REMARK VINA RESULT:      -7.5      5.089     10.066
REMARK  Name = 6915835
REMARK  8 active torsions:
REMARK  status: ('A' for Active; 'I' for Inactive)
REMARK    1  A    between atoms: C_2  and  C_23
REMARK    2  A    between atoms: C_11  and  C_12
REMARK    3  A    between atoms: C_16  and  O_19
REMARK    4  A    between atoms: C_17  and  O_21
REMARK    5  A    between atoms: C_23  and  C_25
REMARK    6  A    between atoms: C_25  and  C_26
REMARK    7  A    between atoms: C_27  and  C_28
REMARK    8  A    between atoms: C_28  and  O_31
REMARK                            x       y       z     vdW  Elec       q    Type
REMARK                         _______ _______ _______ _____ _____    ______ ____
ROOT
ATOM      1  C   UNL     1      34.252 -17.197 -21.563  0.00  0.00    +0.003 C 
ATOM      2  C   UNL     1      33.974 -16.677 -23.014  0.00  0.00    +0.001 C 
ATOM      3  C   UNL     1      34.783 -18.657 -21.775  0.00  0.00    +0.018 C 
ATOM      4  C   UNL     1      34.782 -17.602 -23.922  0.00  0.00    +0.000 C 
ATOM      5  C   UNL     1      34.592 -18.958 -23.267  0.00  0.00    +0.004 C 
ATOM      6  C   UNL     1      32.955 -17.159 -20.712  0.00  0.00    +0.001 C 
ATOM      7  C   UNL     1      34.147 -19.684 -20.872  0.00  0.00    -0.045 C 
ATOM      8  C   UNL     1      35.325 -16.371 -20.827  0.00  0.00    +0.000 C 
ATOM      9  C   UNL     1      32.009 -18.316 -21.031  0.00  0.00    +0.004 C 
ATOM     10  C   UNL     1      32.644 -19.682 -20.765  0.00  0.00    +0.022 C 
ATOM     11  C   UNL     1      34.888 -20.531 -20.140  0.00  0.00    -0.009 C 
ENDROOT
BRANCH  11  12
ATOM     12  C   UNL     1      34.321 -21.481 -19.218  0.00  0.00    -0.009 C 
ATOM     13  C   UNL     1      35.061 -22.272 -18.430  0.00  0.00    -0.039 C 
ATOM     14  C   UNL     1      34.447 -23.259 -17.473  0.00  0.00    +0.051 C 
ATOM     15  C   UNL     1      36.570 -22.221 -18.419  0.00  0.00    +0.051 C 
ATOM     16  C   UNL     1      34.972 -23.037 -16.054  0.00  0.00    +0.117 C 
ATOM     17  C   UNL     1      37.113 -22.040 -16.997  0.00  0.00    +0.117 C 
ATOM     18  C   UNL     1      36.505 -23.043 -16.015  0.00  0.00    +0.059 C 
BRANCH  16  19
ATOM     19  O   UNL     1      34.473 -24.078 -15.221  0.00  0.00    -0.384 OA
ATOM     20  H   UNL     1      34.523 -24.924 -15.693  0.00  0.00    +0.210 HD
ENDBRANCH  16  19
BRANCH  17  21
ATOM     21  O   UNL     1      36.838 -20.718 -16.538  0.00  0.00    -0.384 OA
ATOM     22  H   UNL     1      37.168 -20.614 -15.632  0.00  0.00    +0.210 HD
ENDBRANCH  17  21
ENDBRANCH  11  12
BRANCH   2  23
ATOM     23  C   UNL     1      34.262 -15.205 -23.287  0.00  0.00    +0.013 C 
ATOM     24  C   UNL     1      34.738 -14.506 -22.012  0.00  0.00    +0.001 C 
BRANCH  23  25
ATOM     25  C   UNL     1      33.067 -14.489 -23.938  0.00  0.00    +0.076 C 
BRANCH  25  26
ATOM     26  C   UNL     1      32.493 -13.422 -23.104  0.00  0.00    -0.089 C 
ATOM     27  C   UNL     1      32.026 -12.552 -22.421  0.00  0.00    -0.066 C 
BRANCH  27  28
ATOM     28  C   UNL     1      31.459 -11.487 -21.576  0.00  0.00    +0.141 C 
ATOM     29  C   UNL     1      31.793 -11.746 -20.107  0.00  0.00    +0.043 C 
ATOM     30  C   UNL     1      31.980 -10.118 -22.010  0.00  0.00    +0.043 C 
BRANCH  28  31
ATOM     31  O   UNL     1      30.036 -11.492 -21.696  0.00  0.00    -0.375 OA
ATOM     32  H   UNL     1      29.786 -11.252 -22.602  0.00  0.00    +0.211 HD
ENDBRANCH  28  31
ENDBRANCH  27  28
ENDBRANCH  25  26
ENDBRANCH  23  25
ENDBRANCH   2  23
TORSDOF 8
ENDMDL
MODEL 7
REMARK VINA RESULT:      -7.3      4.632      8.761
REMARK  Name = 6915835
REMARK  8 active torsions:
REMARK  status: ('A' for Active; 'I' for Inactive)
REMARK    1  A    between atoms: C_2  and  C_23
REMARK    2  A    between atoms: C_11  and  C_12
REMARK    3  A    between atoms: C_16  and  O_19
REMARK    4  A    between atoms: C_17  and  O_21
REMARK    5  A    between atoms: C_23  and  C_25
REMARK    6  A    between atoms: C_25  and  C_26
REMARK    7  A    between atoms: C_27  and  C_28
REMARK    8  A    between atoms: C_28  and  O_31
REMARK                            x       y       z     vdW  Elec       q    Type
REMARK                         _______ _______ _______ _____ _____    ______ ____
ROOT
ATOM      1  C   UNL     1      33.956 -16.214 -21.166  0.00  0.00    +0.003 C 
ATOM      2  C   UNL     1      33.671 -15.421 -22.487  0.00  0.00    +0.001 C 
ATOM      3  C   UNL     1      34.613 -17.550 -21.657  0.00  0.00    +0.018 C 
ATOM      4  C   UNL     1      34.576 -16.066 -23.534  0.00  0.00    +0.000 C 
ATOM      5  C   UNL     1      34.484 -17.542 -23.186  0.00  0.00    +0.004 C 
ATOM      6  C   UNL     1      32.640 -16.457 -20.381  0.00  0.00    +0.001 C 
ATOM      7  C   UNL     1      34.043 -18.791 -21.018  0.00  0.00    -0.045 C 
ATOM      8  C   UNL     1      34.937 -15.483 -20.229  0.00  0.00    +0.000 C 
ATOM      9  C   UNL     1      31.802 -17.590 -20.974  0.00  0.00    +0.004 C 
ATOM     10  C   UNL     1      32.543 -18.928 -20.975  0.00  0.00    +0.022 C 
ATOM     11  C   UNL     1      34.835 -19.714 -20.448  0.00  0.00    -0.009 C 
ENDROOT
BRANCH  11  12
ATOM     12  C   UNL     1      34.327 -20.879 -19.770  0.00  0.00    -0.009 C 
ATOM     13  C   UNL     1      35.110 -21.748 -19.116  0.00  0.00    -0.039 C 
ATOM     14  C   UNL     1      34.558 -22.960 -18.414  0.00  0.00    +0.051 C 
ATOM     15  C   UNL     1      36.605 -21.569 -19.008  0.00  0.00    +0.051 C 
ATOM     16  C   UNL     1      35.002 -22.990 -16.952  0.00  0.00    +0.117 C 
ATOM     17  C   UNL     1      37.071 -21.637 -17.549  0.00  0.00    +0.117 C 
ATOM     18  C   UNL     1      36.526 -22.870 -16.825  0.00  0.00    +0.059 C 
BRANCH  16  19
ATOM     19  O   UNL     1      34.575 -24.219 -16.374  0.00  0.00    -0.384 OA
ATOM     20  H   UNL     1      34.937 -24.299 -15.478  0.00  0.00    +0.210 HD
ENDBRANCH  16  19
BRANCH  17  21
ATOM     21  O   UNL     1      36.652 -20.466 -16.851  0.00  0.00    -0.384 OA
ATOM     22  H   UNL     1      35.932 -20.037 -17.340  0.00  0.00    +0.210 HD
ENDBRANCH  17  21
ENDBRANCH  11  12
BRANCH   2  23
ATOM     23  C   UNL     1      33.841 -13.907 -22.433  0.00  0.00    +0.013 C 
ATOM     24  C   UNL     1      32.890 -13.297 -21.401  0.00  0.00    +0.001 C 
BRANCH  23  25
ATOM     25  C   UNL     1      33.699 -13.255 -23.818  0.00  0.00    +0.076 C 
BRANCH  25  26
ATOM     26  C   UNL     1      33.537 -11.794 -23.770  0.00  0.00    -0.089 C 
ATOM     27  C   UNL     1      33.404 -10.601 -23.727  0.00  0.00    -0.066 C 
BRANCH  27  28
ATOM     28  C   UNL     1      33.235  -9.140 -23.666  0.00  0.00    +0.141 C 
ATOM     29  C   UNL     1      32.883  -8.708 -22.243  0.00  0.00    +0.043 C 
ATOM     30  C   UNL     1      34.501  -8.430 -24.144  0.00  0.00    +0.043 C 
BRANCH  28  31
ATOM     31  O   UNL     1      32.149  -8.751 -24.509  0.00  0.00    -0.375 OA
ATOM     32  H   UNL     1      31.594  -8.105 -24.045  0.00  0.00    +0.211 HD
ENDBRANCH  28  31
ENDBRANCH  27  28
ENDBRANCH  25  26
ENDBRANCH  23  25
ENDBRANCH   2  23
TORSDOF 8
ENDMDL
MODEL 8
REMARK VINA RESULT:      -7.1      5.056      9.422
REMARK  Name = 6915835
REMARK  8 active torsions:
REMARK  status: ('A' for Active; 'I' for Inactive)
REMARK    1  A    between atoms: C_2  and  C_23
REMARK    2  A    between atoms: C_11  and  C_12
REMARK    3  A    between atoms: C_16  and  O_19
REMARK    4  A    between atoms: C_17  and  O_21
REMARK    5  A    between atoms: C_23  and  C_25
REMARK    6  A    between atoms: C_25  and  C_26
REMARK    7  A    between atoms: C_27  and  C_28
REMARK    8  A    between atoms: C_28  and  O_31
REMARK                            x       y       z     vdW  Elec       q    Type
REMARK                         _______ _______ _______ _____ _____    ______ ____
ROOT
ATOM      1  C   UNL     1      34.084 -17.027 -21.311  0.00  0.00    +0.003 C 
ATOM      2  C   UNL     1      33.788 -16.401 -22.716  0.00  0.00    +0.001 C 
ATOM      3  C   UNL     1      34.692 -18.434 -21.640  0.00  0.00    +0.018 C 
ATOM      4  C   UNL     1      34.649 -17.202 -23.691  0.00  0.00    +0.000 C 
ATOM      5  C   UNL     1      34.526 -18.617 -23.154  0.00  0.00    +0.004 C 
ATOM      6  C   UNL     1      32.782 -17.128 -20.474  0.00  0.00    +0.001 C 
ATOM      7  C   UNL     1      34.105 -19.565 -20.834  0.00  0.00    -0.045 C 
ATOM      8  C   UNL     1      35.108 -16.212 -20.497  0.00  0.00    +0.000 C 
ATOM      9  C   UNL     1      31.899 -18.302 -20.899  0.00  0.00    +0.004 C 
ATOM     10  C   UNL     1      32.603 -19.651 -20.743  0.00  0.00    +0.022 C 
ATOM     11  C   UNL     1      34.885 -20.432 -20.168  0.00  0.00    -0.009 C 
ENDROOT
BRANCH  11  12
ATOM     12  C   UNL     1      34.363 -21.485 -19.336  0.00  0.00    -0.009 C 
ATOM     13  C   UNL     1      35.134 -22.257 -18.557  0.00  0.00    -0.039 C 
ATOM     14  C   UNL     1      34.566 -23.352 -17.694  0.00  0.00    +0.051 C 
ATOM     15  C   UNL     1      36.629 -22.074 -18.462  0.00  0.00    +0.051 C 
ATOM     16  C   UNL     1      34.999 -23.176 -16.239  0.00  0.00    +0.117 C 
ATOM     17  C   UNL     1      37.083 -21.937 -17.004  0.00  0.00    +0.117 C 
ATOM     18  C   UNL     1      36.522 -23.050 -16.117  0.00  0.00    +0.059 C 
BRANCH  16  19
ATOM     19  O   UNL     1      34.557 -24.308 -15.496  0.00  0.00    -0.384 OA
ATOM     20  H   UNL     1      33.764 -24.679 -15.913  0.00  0.00    +0.210 HD
ENDBRANCH  16  19
BRANCH  17  21
ATOM     21  O   UNL     1      36.667 -20.675 -16.484  0.00  0.00    -0.384 OA
ATOM     22  H   UNL     1      37.157 -19.964 -16.927  0.00  0.00    +0.210 HD
ENDBRANCH  17  21
ENDBRANCH  11  12
BRANCH   2  23
ATOM     23  C   UNL     1      34.000 -14.898 -22.861  0.00  0.00    +0.013 C 
ATOM     24  C   UNL     1      33.235 -14.141 -21.773  0.00  0.00    +0.001 C 
BRANCH  23  25
ATOM     25  C   UNL     1      33.662 -14.396 -24.274  0.00  0.00    +0.076 C 
BRANCH  25  26
ATOM     26  C   UNL     1      33.978 -12.975 -24.487  0.00  0.00    -0.089 C 
ATOM     27  C   UNL     1      34.239 -11.816 -24.661  0.00  0.00    -0.066 C 
BRANCH  27  28
ATOM     28  C   UNL     1      34.569 -10.396 -24.872  0.00  0.00    +0.141 C 
ATOM     29  C   UNL     1      35.320 -10.220 -26.191  0.00  0.00    +0.043 C 
ATOM     30  C   UNL     1      33.304  -9.540 -24.857  0.00  0.00    +0.043 C 
BRANCH  28  31
ATOM     31  O   UNL     1      35.434  -9.948 -23.828  0.00  0.00    -0.375 OA
ATOM     32  H   UNL     1      35.394 -10.571 -23.085  0.00  0.00    +0.211 HD
ENDBRANCH  28  31
ENDBRANCH  27  28
ENDBRANCH  25  26
ENDBRANCH  23  25
ENDBRANCH   2  23
TORSDOF 8
ENDMDL
MODEL 9
REMARK VINA RESULT:      -7.0      3.771     11.901
REMARK  Name = 6915835
REMARK  8 active torsions:
REMARK  status: ('A' for Active; 'I' for Inactive)
REMARK    1  A    between atoms: C_2  and  C_23
REMARK    2  A    between atoms: C_11  and  C_12
REMARK    3  A    between atoms: C_16  and  O_19
REMARK    4  A    between atoms: C_17  and  O_21
REMARK    5  A    between atoms: C_23  and  C_25
REMARK    6  A    between atoms: C_25  and  C_26
REMARK    7  A    between atoms: C_27  and  C_28
REMARK    8  A    between atoms: C_28  and  O_31
REMARK                            x       y       z     vdW  Elec       q    Type
REMARK                         _______ _______ _______ _____ _____    ______ ____
ROOT
ATOM      1  C   UNL     1      34.007 -15.633 -21.992  0.00  0.00    +0.003 C 
ATOM      2  C   UNL     1      33.062 -16.850 -21.708  0.00  0.00    +0.001 C 
ATOM      3  C   UNL     1      33.146 -14.382 -21.605  0.00  0.00    +0.018 C 
ATOM      4  C   UNL     1      31.992 -16.302 -20.765  0.00  0.00    +0.000 C 
ATOM      5  C   UNL     1      31.735 -14.915 -21.327  0.00  0.00    +0.004 C 
ATOM      6  C   UNL     1      34.439 -15.615 -23.482  0.00  0.00    +0.001 C 
ATOM      7  C   UNL     1      33.174 -13.272 -22.625  0.00  0.00    -0.045 C 
ATOM      8  C   UNL     1      35.284 -15.654 -21.129  0.00  0.00    +0.000 C 
ATOM      9  C   UNL     1      33.344 -15.081 -24.405  0.00  0.00    +0.004 C 
ATOM     10  C   UNL     1      32.942 -13.644 -24.067  0.00  0.00    +0.022 C 
ATOM     11  C   UNL     1      33.458 -12.006 -22.278  0.00  0.00    -0.009 C 
ENDROOT
BRANCH  11  12
ATOM     12  C   UNL     1      33.559 -10.931 -23.231  0.00  0.00    -0.009 C 
ATOM     13  C   UNL     1      32.800  -9.827 -23.177  0.00  0.00    -0.039 C 
ATOM     14  C   UNL     1      32.923  -8.715 -24.183  0.00  0.00    +0.051 C 
ATOM     15  C   UNL     1      31.781  -9.598 -22.087  0.00  0.00    +0.051 C 
ATOM     16  C   UNL     1      33.166  -7.376 -23.487  0.00  0.00    +0.117 C 
ATOM     17  C   UNL     1      31.987  -8.240 -21.406  0.00  0.00    +0.117 C 
ATOM     18  C   UNL     1      32.103  -7.098 -22.417  0.00  0.00    +0.059 C 
BRANCH  16  19
ATOM     19  O   UNL     1      33.133  -6.344 -24.467  0.00  0.00    -0.384 OA
ATOM     20  H   UNL     1      33.968  -5.851 -24.447  0.00  0.00    +0.210 HD
ENDBRANCH  16  19
BRANCH  17  21
ATOM     21  O   UNL     1      33.168  -8.274 -20.607  0.00  0.00    -0.384 OA
ATOM     22  H   UNL     1      33.899  -8.647 -21.124  0.00  0.00    +0.210 HD
ENDBRANCH  17  21
ENDBRANCH  11  12
BRANCH   2  23
ATOM     23  C   UNL     1      33.713 -18.118 -21.166  0.00  0.00    +0.013 C 
ATOM     24  C   UNL     1      34.825 -18.592 -22.104  0.00  0.00    +0.001 C 
BRANCH  23  25
ATOM     25  C   UNL     1      32.683 -19.221 -20.872  0.00  0.00    +0.076 C 
BRANCH  25  26
ATOM     26  C   UNL     1      33.240 -20.369 -20.141  0.00  0.00    -0.089 C 
ATOM     27  C   UNL     1      33.693 -21.308 -19.545  0.00  0.00    -0.066 C 
BRANCH  27  28
ATOM     28  C   UNL     1      34.240 -22.465 -18.816  0.00  0.00    +0.141 C 
ATOM     29  C   UNL     1      35.651 -22.156 -18.318  0.00  0.00    +0.043 C 
ATOM     30  C   UNL     1      33.331 -22.845 -17.647  0.00  0.00    +0.043 C 
BRANCH  28  31
ATOM     31  O   UNL     1      34.336 -23.583 -19.699  0.00  0.00    -0.375 OA
ATOM     32  H   UNL     1      33.625 -23.537 -20.358  0.00  0.00    +0.211 HD
ENDBRANCH  28  31
ENDBRANCH  27  28
ENDBRANCH  25  26
ENDBRANCH  23  25
ENDBRANCH   2  23
TORSDOF 8
ENDMDL
