MODEL 1
REMARK VINA RESULT:      -5.0      0.000      0.000
REMARK  Name = 867
REMARK  4 active torsions:
REMARK  status: ('A' for Active; 'I' for Inactive)
REMARK    1  A    between atoms: C_1  and  C_3
REMARK    2  A    between atoms: C_1  and  C_7
REMARK    3  A    between atoms: C_3  and  O_4
REMARK    4  A    between atoms: C_7  and  O_8
REMARK                            x       y       z     vdW  Elec       q    Type
REMARK                         _______ _______ _______ _____ _____    ______ ____
ROOT
ATOM      1  C   UNL     1      38.998 -25.551 -14.286  0.00  0.00    +0.218 C 
ENDROOT
BRANCH   1   3
ATOM      2  O   UNL     1      41.183 -26.563 -14.071  0.00  0.00    -0.250 OA
ATOM      3  C   UNL     1      40.315 -26.075 -14.782  0.00  0.00    +0.325 C 
BRANCH   3   4
ATOM      4  O   UNL     1      40.436 -25.918 -16.123  0.00  0.00    -0.480 OA
ATOM      5  H   UNL     1      41.106 -25.363 -16.471  0.00  0.00    +0.295 HD
ENDBRANCH   3   4
ENDBRANCH   1   3
BRANCH   1   7
ATOM      6  O   UNL     1      37.262 -27.102 -13.601  0.00  0.00    -0.250 OA
ATOM      7  C   UNL     1      37.829 -26.480 -14.487  0.00  0.00    +0.325 C 
BRANCH   7   8
ATOM      8  O   UNL     1      37.458 -26.539 -15.792  0.00  0.00    -0.480 OA
ATOM      9  H   UNL     1      37.680 -27.289 -16.309  0.00  0.00    +0.295 HD
ENDBRANCH   7   8
ENDBRANCH   1   7
TORSDOF 4
ENDMDL
MODEL 2
REMARK VINA RESULT:      -4.9      1.382      1.757
REMARK  Name = 867
REMARK  4 active torsions:
REMARK  status: ('A' for Active; 'I' for Inactive)
REMARK    1  A    between atoms: C_1  and  C_3
REMARK    2  A    between atoms: C_1  and  C_7
REMARK    3  A    between atoms: C_3  and  O_4
REMARK    4  A    between atoms: C_7  and  O_8
REMARK                            x       y       z     vdW  Elec       q    Type
REMARK                         _______ _______ _______ _____ _____    ______ ____
ROOT
ATOM      1  C   UNL     1      39.211 -25.395 -14.004  0.00  0.00    +0.218 C 
ENDROOT
BRANCH   1   3
ATOM      2  O   UNL     1      41.258 -26.679 -14.087  0.00  0.00    -0.250 OA
ATOM      3  C   UNL     1      40.385 -26.053 -14.672  0.00  0.00    +0.325 C 
BRANCH   3   4
ATOM      4  O   UNL     1      40.372 -25.844 -16.011  0.00  0.00    -0.480 OA
ATOM      5  H   UNL     1      40.000 -25.058 -16.359  0.00  0.00    +0.295 HD
ENDBRANCH   3   4
ENDBRANCH   1   3
BRANCH   1   7
ATOM      6  O   UNL     1      38.304 -23.493 -15.207  0.00  0.00    -0.250 OA
ATOM      7  C   UNL     1      38.267 -24.685 -14.938  0.00  0.00    +0.325 C 
BRANCH   7   8
ATOM      8  O   UNL     1      37.357 -25.540 -15.473  0.00  0.00    -0.480 OA
ATOM      9  H   UNL     1      37.563 -26.450 -15.558  0.00  0.00    +0.295 HD
ENDBRANCH   7   8
ENDBRANCH   1   7
TORSDOF 4
ENDMDL
MODEL 3
REMARK VINA RESULT:      -4.9      1.379      3.107
REMARK  Name = 867
REMARK  4 active torsions:
REMARK  status: ('A' for Active; 'I' for Inactive)
REMARK    1  A    between atoms: C_1  and  C_3
REMARK    2  A    between atoms: C_1  and  C_7
REMARK    3  A    between atoms: C_3  and  O_4
REMARK    4  A    between atoms: C_7  and  O_8
REMARK                            x       y       z     vdW  Elec       q    Type
REMARK                         _______ _______ _______ _____ _____    ______ ____
ROOT
ATOM      1  C   UNL     1      39.101 -25.530 -14.016  0.00  0.00    +0.218 C 
ENDROOT
BRANCH   1   3
ATOM      2  O   UNL     1      38.320 -23.527 -15.121  0.00  0.00    -0.250 OA
ATOM      3  C   UNL     1      38.212 -24.729 -14.924  0.00  0.00    +0.325 C 
BRANCH   3   4
ATOM      4  O   UNL     1      37.250 -25.504 -15.483  0.00  0.00    -0.480 OA
ATOM      5  H   UNL     1      36.835 -26.174 -14.976  0.00  0.00    +0.295 HD
ENDBRANCH   3   4
ENDBRANCH   1   3
BRANCH   1   7
ATOM      6  O   UNL     1      41.258 -26.640 -14.078  0.00  0.00    -0.250 OA
ATOM      7  C   UNL     1      40.354 -26.061 -14.662  0.00  0.00    +0.325 C 
BRANCH   7   8
ATOM      8  O   UNL     1      40.361 -25.831 -16.000  0.00  0.00    -0.480 OA
ATOM      9  H   UNL     1      40.483 -24.961 -16.326  0.00  0.00    +0.295 HD
ENDBRANCH   7   8
ENDBRANCH   1   7
TORSDOF 4
ENDMDL
MODEL 4
REMARK VINA RESULT:      -4.8      1.062      1.062
REMARK  Name = 867
REMARK  4 active torsions:
REMARK  status: ('A' for Active; 'I' for Inactive)
REMARK    1  A    between atoms: C_1  and  C_3
REMARK    2  A    between atoms: C_1  and  C_7
REMARK    3  A    between atoms: C_3  and  O_4
REMARK    4  A    between atoms: C_7  and  O_8
REMARK                            x       y       z     vdW  Elec       q    Type
REMARK                         _______ _______ _______ _____ _____    ______ ____
ROOT
ATOM      1  C   UNL     1      38.652 -24.981 -14.702  0.00  0.00    +0.218 C 
ENDROOT
BRANCH   1   3
ATOM      2  O   UNL     1      41.010 -24.718 -14.233  0.00  0.00    -0.250 OA
ATOM      3  C   UNL     1      40.123 -25.189 -14.931  0.00  0.00    +0.325 C 
BRANCH   3   4
ATOM      4  O   UNL     1      40.348 -25.948 -16.032  0.00  0.00    -0.480 OA
ATOM      5  H   UNL     1      40.404 -26.880 -15.954  0.00  0.00    +0.295 HD
ENDBRANCH   3   4
ENDBRANCH   1   3
BRANCH   1   7
ATOM      6  O   UNL     1      38.051 -27.327 -14.561  0.00  0.00    -0.250 OA
ATOM      7  C   UNL     1      37.795 -26.195 -14.944  0.00  0.00    +0.325 C 
BRANCH   7   8
ATOM      8  O   UNL     1      36.671 -25.882 -15.639  0.00  0.00    -0.480 OA
ATOM      9  H   UNL     1      35.903 -25.598 -15.184  0.00  0.00    +0.295 HD
ENDBRANCH   7   8
ENDBRANCH   1   7
TORSDOF 4
ENDMDL
MODEL 5
REMARK VINA RESULT:      -4.8     11.915     13.460
REMARK  Name = 867
REMARK  4 active torsions:
REMARK  status: ('A' for Active; 'I' for Inactive)
REMARK    1  A    between atoms: C_1  and  C_3
REMARK    2  A    between atoms: C_1  and  C_7
REMARK    3  A    between atoms: C_3  and  O_4
REMARK    4  A    between atoms: C_7  and  O_8
REMARK                            x       y       z     vdW  Elec       q    Type
REMARK                         _______ _______ _______ _____ _____    ______ ____
ROOT
ATOM      1  C   UNL     1      26.706 -21.904 -16.881  0.00  0.00    +0.218 C 
ENDROOT
BRANCH   1   3
ATOM      2  O   UNL     1      25.837 -21.771 -19.134  0.00  0.00    -0.250 OA
ATOM      3  C   UNL     1      26.113 -21.217 -18.079  0.00  0.00    +0.325 C 
BRANCH   3   4
ATOM      4  O   UNL     1      25.943 -19.891 -17.853  0.00  0.00    -0.480 OA
ATOM      5  H   UNL     1      26.375 -19.480 -17.130  0.00  0.00    +0.295 HD
ENDBRANCH   3   4
ENDBRANCH   1   3
BRANCH   1   7
ATOM      6  O   UNL     1      29.083 -22.376 -17.008  0.00  0.00    -0.250 OA
ATOM      7  C   UNL     1      27.926 -22.739 -17.169  0.00  0.00    +0.325 C 
BRANCH   7   8
ATOM      8  O   UNL     1      27.591 -23.974 -17.624  0.00  0.00    -0.480 OA
ATOM      9  H   UNL     1      27.707 -24.186 -18.529  0.00  0.00    +0.295 HD
ENDBRANCH   7   8
ENDBRANCH   1   7
TORSDOF 4
ENDMDL
MODEL 6
REMARK VINA RESULT:      -4.6      1.754      3.261
REMARK  Name = 867
REMARK  4 active torsions:
REMARK  status: ('A' for Active; 'I' for Inactive)
REMARK    1  A    between atoms: C_1  and  C_3
REMARK    2  A    between atoms: C_1  and  C_7
REMARK    3  A    between atoms: C_3  and  O_4
REMARK    4  A    between atoms: C_7  and  O_8
REMARK                            x       y       z     vdW  Elec       q    Type
REMARK                         _______ _______ _______ _____ _____    ______ ____
ROOT
ATOM      1  C   UNL     1      38.830 -25.979 -14.309  0.00  0.00    +0.218 C 
ENDROOT
BRANCH   1   3
ATOM      2  O   UNL     1      37.943 -25.956 -12.060  0.00  0.00    -0.250 OA
ATOM      3  C   UNL     1      38.360 -25.342 -13.032  0.00  0.00    +0.325 C 
BRANCH   3   4
ATOM      4  O   UNL     1      38.432 -23.990 -13.099  0.00  0.00    -0.480 OA
ATOM      5  H   UNL     1      37.708 -23.499 -13.436  0.00  0.00    +0.295 HD
ENDBRANCH   3   4
ENDBRANCH   1   3
BRANCH   1   7
ATOM      6  O   UNL     1      40.911 -24.734 -14.208  0.00  0.00    -0.250 OA
ATOM      7  C   UNL     1      40.152 -25.471 -14.821  0.00  0.00    +0.325 C 
BRANCH   7   8
ATOM      8  O   UNL     1      40.422 -25.947 -16.064  0.00  0.00    -0.480 OA
ATOM      9  H   UNL     1      40.272 -26.851 -16.263  0.00  0.00    +0.295 HD
ENDBRANCH   7   8
ENDBRANCH   1   7
TORSDOF 4
ENDMDL
MODEL 7
REMARK VINA RESULT:      -4.6      4.140      5.616
REMARK  Name = 867
REMARK  4 active torsions:
REMARK  status: ('A' for Active; 'I' for Inactive)
REMARK    1  A    between atoms: C_1  and  C_3
REMARK    2  A    between atoms: C_1  and  C_7
REMARK    3  A    between atoms: C_3  and  O_4
REMARK    4  A    between atoms: C_7  and  O_8
REMARK                            x       y       z     vdW  Elec       q    Type
REMARK                         _______ _______ _______ _____ _____    ______ ____
ROOT
ATOM      1  C   UNL     1      36.750 -24.630 -12.263  0.00  0.00    +0.218 C 
ENDROOT
BRANCH   1   3
ATOM      2  O   UNL     1      35.279 -25.063 -10.393  0.00  0.00    -0.250 OA
ATOM      3  C   UNL     1      35.496 -24.483 -11.447  0.00  0.00    +0.325 C 
BRANCH   3   4
ATOM      4  O   UNL     1      34.617 -23.639 -12.042  0.00  0.00    -0.480 OA
ATOM      5  H   UNL     1      33.698 -23.731 -11.882  0.00  0.00    +0.295 HD
ENDBRANCH   3   4
ENDBRANCH   1   3
BRANCH   1   7
ATOM      6  O   UNL     1      39.020 -23.772 -12.279  0.00  0.00    -0.250 OA
ATOM      7  C   UNL     1      37.864 -23.689 -11.888  0.00  0.00    +0.325 C 
BRANCH   7   8
ATOM      8  O   UNL     1      37.430 -22.705 -11.059  0.00  0.00    -0.480 OA
ATOM      9  H   UNL     1      37.127 -21.892 -11.415  0.00  0.00    +0.295 HD
ENDBRANCH   7   8
ENDBRANCH   1   7
TORSDOF 4
ENDMDL
MODEL 8
REMARK VINA RESULT:      -4.5      1.951      2.827
REMARK  Name = 867
REMARK  4 active torsions:
REMARK  status: ('A' for Active; 'I' for Inactive)
REMARK    1  A    between atoms: C_1  and  C_3
REMARK    2  A    between atoms: C_1  and  C_7
REMARK    3  A    between atoms: C_3  and  O_4
REMARK    4  A    between atoms: C_7  and  O_8
REMARK                            x       y       z     vdW  Elec       q    Type
REMARK                         _______ _______ _______ _____ _____    ______ ____
ROOT
ATOM      1  C   UNL     1      38.549 -25.259 -13.493  0.00  0.00    +0.218 C 
ENDROOT
BRANCH   1   3
ATOM      2  O   UNL     1      38.403 -27.281 -14.812  0.00  0.00    -0.250 OA
ATOM      3  C   UNL     1      38.081 -26.114 -14.637  0.00  0.00    +0.325 C 
BRANCH   3   4
ATOM      4  O   UNL     1      37.270 -25.419 -15.473  0.00  0.00    -0.480 OA
ATOM      5  H   UNL     1      37.036 -24.534 -15.270  0.00  0.00    +0.295 HD
ENDBRANCH   3   4
ENDBRANCH   1   3
BRANCH   1   7
ATOM      6  O   UNL     1      37.799 -24.582 -11.287  0.00  0.00    -0.250 OA
ATOM      7  C   UNL     1      37.663 -25.289 -12.276  0.00  0.00    +0.325 C 
BRANCH   7   8
ATOM      8  O   UNL     1      36.664 -26.199 -12.407  0.00  0.00    -0.480 OA
ATOM      9  H   UNL     1      36.620 -26.740 -13.172  0.00  0.00    +0.295 HD
ENDBRANCH   7   8
ENDBRANCH   1   7
TORSDOF 4
ENDMDL
MODEL 9
REMARK VINA RESULT:      -4.4      2.012      3.186
REMARK  Name = 867
REMARK  4 active torsions:
REMARK  status: ('A' for Active; 'I' for Inactive)
REMARK    1  A    between atoms: C_1  and  C_3
REMARK    2  A    between atoms: C_1  and  C_7
REMARK    3  A    between atoms: C_3  and  O_4
REMARK    4  A    between atoms: C_7  and  O_8
REMARK                            x       y       z     vdW  Elec       q    Type
REMARK                         _______ _______ _______ _____ _____    ______ ____
ROOT
ATOM      1  C   UNL     1      38.399 -25.151 -13.499  0.00  0.00    +0.218 C 
ENDROOT
BRANCH   1   3
ATOM      2  O   UNL     1      37.752 -24.555 -11.247  0.00  0.00    -0.250 OA
ATOM      3  C   UNL     1      37.663 -25.316 -12.200  0.00  0.00    +0.325 C 
BRANCH   3   4
ATOM      4  O   UNL     1      36.901 -26.438 -12.204  0.00  0.00    -0.480 OA
ATOM      5  H   UNL     1      36.454 -26.703 -11.424  0.00  0.00    +0.295 HD
ENDBRANCH   3   4
ENDBRANCH   1   3
BRANCH   1   7
ATOM      6  O   UNL     1      38.275 -27.265 -14.684  0.00  0.00    -0.250 OA
ATOM      7  C   UNL     1      37.965 -26.085 -14.597  0.00  0.00    +0.325 C 
BRANCH   7   8
ATOM      8  O   UNL     1      37.159 -25.461 -15.495  0.00  0.00    -0.480 OA
ATOM      9  H   UNL     1      36.448 -25.927 -15.889  0.00  0.00    +0.295 HD
ENDBRANCH   7   8
ENDBRANCH   1   7
TORSDOF 4
ENDMDL
