MODEL 1
REMARK VINA RESULT:     -10.5      0.000      0.000
REMARK  Name = 46208720
REMARK  6 active torsions:
REMARK  status: ('A' for Active; 'I' for Inactive)
REMARK    1  A    between atoms: C_3  and  C_21
REMARK    2  A    between atoms: C_8  and  C_13
REMARK    3  A    between atoms: C_16  and  C_19
REMARK    4  A    between atoms: C_21  and  C_23
REMARK    5  A    between atoms: C_21  and  C_31
REMARK    6  A    between atoms: C_21  and  O_35
REMARK                            x       y       z     vdW  Elec       q    Type
REMARK                         _______ _______ _______ _____ _____    ______ ____
ROOT
ATOM      1  O   UNL     1      31.445  -7.988 -18.724  0.00  0.00    -0.270 OA
ATOM      2  N   UNL     1      31.611 -10.076 -19.747  0.00  0.00    -0.253 N 
ATOM      3  C   UNL     1      32.726 -12.272 -23.204  0.00  0.00    +0.011 C 
ATOM      4  C   UNL     1      32.504 -10.149 -22.028  0.00  0.00    +0.014 C 
ATOM      5  C   UNL     1      32.870 -10.886 -23.169  0.00  0.00    -0.000 C 
ATOM      6  C   UNL     1      31.985 -10.825 -20.908  0.00  0.00    +0.054 C 
ATOM      7  C   UNL     1      32.214 -12.941 -22.100  0.00  0.00    -0.000 C 
ATOM      8  C   UNL     1      32.660  -8.681 -22.000  0.00  0.00    +0.006 C 
ATOM      9  C   UNL     1      31.846 -12.224 -20.962  0.00  0.00    +0.015 C 
ATOM     10  C   UNL     1      32.298  -8.017 -20.892  0.00  0.00    +0.058 C 
ATOM     11  C   UNL     1      31.746  -8.690 -19.690  0.00  0.00    +0.253 C 
ATOM     12  C   UNL     1      31.073 -10.781 -18.587  0.00  0.00    +0.120 C 
ENDROOT
BRANCH   8  13
ATOM     13  C   UNL     1      33.183  -7.847 -23.079  0.00  0.00    +0.001 C 
ATOM     14  C   UNL     1      32.410  -6.808 -23.597  0.00  0.00    +0.008 C 
ATOM     15  C   UNL     1      34.458  -8.089 -23.591  0.00  0.00    +0.000 C 
ATOM     16  C   UNL     1      32.911  -6.011 -24.626  0.00  0.00    +0.043 C 
ATOM     17  C   UNL     1      34.960  -7.292 -24.620  0.00  0.00    +0.001 C 
ATOM     18  C   UNL     1      34.186  -6.253 -25.138  0.00  0.00    +0.008 C 
BRANCH  16  19
ATOM     19  C   UNL     1      32.119  -4.946 -25.157  0.00  0.00    -0.051 C 
ATOM     20  C   UNL     1      31.453  -4.051 -25.602  0.00  0.00    -0.009 C 
ENDBRANCH  16  19
ENDBRANCH   8  13
BRANCH   3  21
ATOM     21  C   UNL     1      33.119 -13.033 -24.425  0.00  0.00    +0.158 C 
BRANCH  21  23
ATOM     22 CL   UNL     1      35.602 -18.454 -23.257  0.00  0.00    -0.082 Cl
ATOM     23  C   UNL     1      33.760 -14.428 -24.125  0.00  0.00    +0.011 C 
ATOM     24  C   UNL     1      33.619 -15.473 -25.040  0.00  0.00    -0.000 C 
ATOM     25  C   UNL     1      34.471 -14.630 -22.943  0.00  0.00    -0.000 C 
ATOM     26  C   UNL     1      34.188 -16.717 -24.772  0.00  0.00    +0.011 C 
ATOM     27  C   UNL     1      35.041 -15.874 -22.674  0.00  0.00    +0.011 C 
ATOM     28  C   UNL     1      34.900 -16.918 -23.589  0.00  0.00    +0.058 C 
ENDBRANCH  21  23
BRANCH  21  31
ATOM     29  N   UNL     1      34.028 -12.507 -26.787  0.00  0.00    -0.268 N 
ATOM     30  N   UNL     1      35.368 -10.761 -26.488  0.00  0.00    -0.225 NA
ATOM     31  C   UNL     1      33.980 -12.223 -25.452  0.00  0.00    +0.082 C 
ATOM     32  C   UNL     1      34.815 -11.141 -25.291  0.00  0.00    +0.114 C 
ATOM     33  C   UNL     1      34.875 -11.603 -27.368  0.00  0.00    +0.168 C 
ATOM     34  C   UNL     1      33.324 -13.563 -27.474  0.00  0.00    +0.119 C 
ENDBRANCH  21  31
BRANCH  21  35
ATOM     35  O   UNL     1      31.883 -13.373 -25.134  0.00  0.00    -0.374 OA
ATOM     36  H   UNL     1      32.101 -13.809 -25.973  0.00  0.00    +0.212 HD
ENDBRANCH  21  35
ENDBRANCH   3  21
TORSDOF 6
ENDMDL
MODEL 2
REMARK VINA RESULT:      -9.0     12.093     16.249
REMARK  Name = 46208720
REMARK  6 active torsions:
REMARK  status: ('A' for Active; 'I' for Inactive)
REMARK    1  A    between atoms: C_3  and  C_21
REMARK    2  A    between atoms: C_8  and  C_13
REMARK    3  A    between atoms: C_16  and  C_19
REMARK    4  A    between atoms: C_21  and  C_23
REMARK    5  A    between atoms: C_21  and  C_31
REMARK    6  A    between atoms: C_21  and  O_35
REMARK                            x       y       z     vdW  Elec       q    Type
REMARK                         _______ _______ _______ _____ _____    ______ ____
ROOT
ATOM      1  O   UNL     1      33.115 -21.484 -20.566  0.00  0.00    -0.270 OA
ATOM      2  N   UNL     1      34.987 -21.716 -19.197  0.00  0.00    -0.253 N 
ATOM      3  C   UNL     1      36.516 -22.911 -15.422  0.00  0.00    +0.011 C 
ATOM      4  C   UNL     1      34.637 -22.621 -16.947  0.00  0.00    +0.014 C 
ATOM      5  C   UNL     1      35.154 -23.014 -15.699  0.00  0.00    -0.000 C 
ATOM      6  C   UNL     1      35.512 -22.117 -17.927  0.00  0.00    +0.054 C 
ATOM      7  C   UNL     1      37.380 -22.413 -16.388  0.00  0.00    -0.000 C 
ATOM      8  C   UNL     1      33.193 -22.734 -17.231  0.00  0.00    +0.006 C 
ATOM      9  C   UNL     1      36.883 -22.019 -17.630  0.00  0.00    +0.015 C 
ATOM     10  C   UNL     1      32.742 -22.348 -18.435  0.00  0.00    +0.058 C 
ATOM     11  C   UNL     1      33.629 -21.810 -19.496  0.00  0.00    +0.253 C 
ATOM     12  C   UNL     1      35.898 -21.192 -20.212  0.00  0.00    +0.120 C 
ENDROOT
BRANCH   8  13
ATOM     13  C   UNL     1      32.169 -23.238 -16.319  0.00  0.00    +0.001 C 
ATOM     14  C   UNL     1      30.855 -22.782 -16.423  0.00  0.00    +0.008 C 
ATOM     15  C   UNL     1      32.507 -24.177 -15.344  0.00  0.00    +0.000 C 
ATOM     16  C   UNL     1      29.878 -23.265 -15.551  0.00  0.00    +0.043 C 
ATOM     17  C   UNL     1      31.529 -24.660 -14.474  0.00  0.00    +0.001 C 
ATOM     18  C   UNL     1      30.216 -24.204 -14.577  0.00  0.00    +0.008 C 
BRANCH  16  19
ATOM     19  C   UNL     1      28.531 -22.797 -15.657  0.00  0.00    -0.051 C 
ATOM     20  C   UNL     1      27.399 -22.406 -15.747  0.00  0.00    -0.009 C 
ENDBRANCH  16  19
ENDBRANCH   8  13
BRANCH   3  21
ATOM     21  C   UNL     1      37.042 -23.332 -14.092  0.00  0.00    +0.158 C 
BRANCH  21  23
ATOM     22 CL   UNL     1      41.625 -27.309 -14.392  0.00  0.00    -0.082 Cl
ATOM     23  C   UNL     1      38.221 -24.357 -14.170  0.00  0.00    +0.011 C 
ATOM     24  C   UNL     1      38.428 -25.264 -13.130  0.00  0.00    -0.000 C 
ATOM     25  C   UNL     1      39.067 -24.365 -15.279  0.00  0.00    -0.000 C 
ATOM     26  C   UNL     1      39.480 -26.177 -13.199  0.00  0.00    +0.011 C 
ATOM     27  C   UNL     1      40.119 -25.277 -15.348  0.00  0.00    +0.011 C 
ATOM     28  C   UNL     1      40.326 -26.184 -14.308  0.00  0.00    +0.058 C 
ENDBRANCH  21  23
BRANCH  21  31
ATOM     29  N   UNL     1      35.992 -23.530 -11.737  0.00  0.00    -0.268 N 
ATOM     30  N   UNL     1      34.136 -24.708 -12.057  0.00  0.00    -0.225 NA
ATOM     31  C   UNL     1      35.947 -23.803 -13.075  0.00  0.00    +0.082 C 
ATOM     32  C   UNL     1      34.793 -24.531 -13.248  0.00  0.00    +0.114 C 
ATOM     33  C   UNL     1      34.884 -24.093 -11.167  0.00  0.00    +0.168 C 
ATOM     34  C   UNL     1      37.013 -22.786 -11.038  0.00  0.00    +0.119 C 
ENDBRANCH  21  31
BRANCH  21  35
ATOM     35  O   UNL     1      37.659 -22.152 -13.482  0.00  0.00    -0.374 OA
ATOM     36  H   UNL     1      37.030 -21.413 -13.499  0.00  0.00    +0.212 HD
ENDBRANCH  21  35
ENDBRANCH   3  21
TORSDOF 6
ENDMDL
MODEL 3
REMARK VINA RESULT:      -7.7      4.544      8.596
REMARK  Name = 46208720
REMARK  6 active torsions:
REMARK  status: ('A' for Active; 'I' for Inactive)
REMARK    1  A    between atoms: C_3  and  C_21
REMARK    2  A    between atoms: C_8  and  C_13
REMARK    3  A    between atoms: C_16  and  C_19
REMARK    4  A    between atoms: C_21  and  C_23
REMARK    5  A    between atoms: C_21  and  C_31
REMARK    6  A    between atoms: C_21  and  O_35
REMARK                            x       y       z     vdW  Elec       q    Type
REMARK                         _______ _______ _______ _____ _____    ______ ____
ROOT
ATOM      1  O   UNL     1      31.828  -7.720 -19.953  0.00  0.00    -0.270 OA
ATOM      2  N   UNL     1      31.665  -6.052 -21.573  0.00  0.00    -0.253 N 
ATOM      3  C   UNL     1      32.537  -4.848 -25.548  0.00  0.00    +0.011 C 
ATOM      4  C   UNL     1      32.642  -6.513 -23.772  0.00  0.00    +0.014 C 
ATOM      5  C   UNL     1      32.926  -6.104 -25.088  0.00  0.00    -0.000 C 
ATOM      6  C   UNL     1      31.954  -5.637 -22.912  0.00  0.00    +0.054 C 
ATOM      7  C   UNL     1      31.858  -3.982 -24.701  0.00  0.00    -0.000 C 
ATOM      8  C   UNL     1      33.059  -7.846 -23.294  0.00  0.00    +0.006 C 
ATOM      9  C   UNL     1      31.569  -4.373 -23.393  0.00  0.00    +0.015 C 
ATOM     10  C   UNL     1      32.768  -8.196 -22.031  0.00  0.00    +0.058 C 
ATOM     11  C   UNL     1      32.045  -7.303 -21.091  0.00  0.00    +0.253 C 
ATOM     12  C   UNL     1      30.952  -5.140 -20.682  0.00  0.00    +0.120 C 
ENDROOT
BRANCH   8  13
ATOM     13  C   UNL     1      33.773  -8.858 -24.067  0.00  0.00    +0.001 C 
ATOM     14  C   UNL     1      33.361 -10.190 -24.025  0.00  0.00    +0.008 C 
ATOM     15  C   UNL     1      34.868  -8.491 -24.850  0.00  0.00    +0.000 C 
ATOM     16  C   UNL     1      34.044 -11.155 -24.765  0.00  0.00    +0.043 C 
ATOM     17  C   UNL     1      35.550  -9.457 -25.591  0.00  0.00    +0.001 C 
ATOM     18  C   UNL     1      35.139 -10.788 -25.548  0.00  0.00    +0.008 C 
BRANCH  16  19
ATOM     19  C   UNL     1      33.623 -12.520 -24.723  0.00  0.00    -0.051 C 
ATOM     20  C   UNL     1      33.269 -13.668 -24.686  0.00  0.00    -0.009 C 
ENDBRANCH  16  19
ENDBRANCH   8  13
BRANCH   3  21
ATOM     21  C   UNL     1      32.850  -4.434 -26.946  0.00  0.00    +0.158 C 
BRANCH  21  23
ATOM     22 CL   UNL     1      38.609  -2.686 -27.781  0.00  0.00    -0.082 Cl
ATOM     23  C   UNL     1      34.333  -3.984 -27.160  0.00  0.00    +0.011 C 
ATOM     24  C   UNL     1      34.645  -2.627 -27.247  0.00  0.00    -0.000 C 
ATOM     25  C   UNL     1      35.343  -4.939 -27.264  0.00  0.00    -0.000 C 
ATOM     26  C   UNL     1      35.966  -2.226 -27.439  0.00  0.00    +0.011 C 
ATOM     27  C   UNL     1      36.666  -4.538 -27.456  0.00  0.00    +0.011 C 
ATOM     28  C   UNL     1      36.978  -3.181 -27.543  0.00  0.00    +0.058 C 
ENDBRANCH  21  23
BRANCH  21  31
ATOM     29  N   UNL     1      31.671  -3.226 -28.905  0.00  0.00    -0.268 N 
ATOM     30  N   UNL     1      30.298  -1.786 -27.919  0.00  0.00    -0.225 NA
ATOM     31  C   UNL     1      31.848  -3.399 -27.561  0.00  0.00    +0.082 C 
ATOM     32  C   UNL     1      30.990  -2.499 -26.974  0.00  0.00    +0.114 C 
ATOM     33  C   UNL     1      30.731  -2.247 -29.071  0.00  0.00    +0.168 C 
ATOM     34  C   UNL     1      32.345  -3.936 -29.966  0.00  0.00    +0.119 C 
ENDBRANCH  21  31
BRANCH  21  35
ATOM     35  O   UNL     1      32.736  -5.632 -27.782  0.00  0.00    -0.374 OA
ATOM     36  H   UNL     1      33.623  -5.962 -27.997  0.00  0.00    +0.212 HD
ENDBRANCH  21  35
ENDBRANCH   3  21
TORSDOF 6
ENDMDL
