MODEL 1
REMARK VINA RESULT:      -5.0      0.000      0.000
REMARK  Name = 9577379
REMARK  5 active torsions:
REMARK  status: ('A' for Active; 'I' for Inactive)
REMARK    1  A    between atoms: C_1  and  C_2
REMARK    2  A    between atoms: C_1  and  C_7
REMARK    3  A    between atoms: C_2  and  C_3
REMARK    4  A    between atoms: C_3  and  N_5
REMARK    5  A    between atoms: C_7  and  S_8
REMARK                            x       y       z     vdW  Elec       q    Type
REMARK                         _______ _______ _______ _____ _____    ______ ____
ROOT
ATOM      1  C   UNL     1      34.812 -19.228 -23.756  0.00  0.00    +0.016 C 
ENDROOT
BRANCH   1   2
ATOM      2  C   UNL     1      34.356 -18.555 -25.058  0.00  0.00    +0.028 C 
BRANCH   2   3
ATOM      3  C   UNL     1      34.771 -17.089 -25.129  0.00  0.00    +0.136 C 
BRANCH   3   5
ATOM      4  S   UNL     1      33.064 -13.871 -24.983  0.00  0.00    +0.020 S 
ATOM      5  N   UNL     1      33.824 -16.345 -25.962  0.00  0.00    -0.222 NA
ATOM      6  C   UNL     1      33.509 -15.296 -25.536  0.00  0.00    +0.037 C 
ENDBRANCH   3   5
ENDBRANCH   2   3
ENDBRANCH   1   2
BRANCH   1   7
ATOM      7  C   UNL     1      35.736 -18.346 -22.923  0.00  0.00    +0.092 C 
BRANCH   7   8
ATOM      8  S   UNL     1      35.308 -18.385 -21.156  0.00  0.00    +0.043 S 
ATOM      9  O   UNL     1      36.424 -19.088 -20.448  0.00  0.00    -0.256 OA
ATOM     10  C   UNL     1      33.945 -19.559 -21.335  0.00  0.00    +0.106 C 
ENDBRANCH   7   8
ENDBRANCH   1   7
TORSDOF 5
ENDMDL
MODEL 2
REMARK VINA RESULT:      -5.0      4.410      7.118
REMARK  Name = 9577379
REMARK  5 active torsions:
REMARK  status: ('A' for Active; 'I' for Inactive)
REMARK    1  A    between atoms: C_1  and  C_2
REMARK    2  A    between atoms: C_1  and  C_7
REMARK    3  A    between atoms: C_2  and  C_3
REMARK    4  A    between atoms: C_3  and  N_5
REMARK    5  A    between atoms: C_7  and  S_8
REMARK                            x       y       z     vdW  Elec       q    Type
REMARK                         _______ _______ _______ _____ _____    ______ ____
ROOT
ATOM      1  C   UNL     1      33.573 -19.765 -20.956  0.00  0.00    +0.016 C 
ENDROOT
BRANCH   1   2
ATOM      2  C   UNL     1      32.827 -20.645 -19.945  0.00  0.00    +0.028 C 
BRANCH   2   3
ATOM      3  C   UNL     1      33.723 -21.724 -19.343  0.00  0.00    +0.136 C 
BRANCH   3   5
ATOM      4  S   UNL     1      34.158 -23.487 -16.183  0.00  0.00    +0.020 S 
ATOM      5  N   UNL     1      32.926 -22.619 -18.503  0.00  0.00    -0.222 NA
ATOM      6  C   UNL     1      33.459 -22.981 -17.521  0.00  0.00    +0.037 C 
ENDBRANCH   3   5
ENDBRANCH   2   3
ENDBRANCH   1   2
BRANCH   1   7
ATOM      7  C   UNL     1      35.085 -19.964 -20.917  0.00  0.00    +0.092 C 
BRANCH   7   8
ATOM      8  S   UNL     1      35.983 -18.485 -21.478  0.00  0.00    +0.043 S 
ATOM      9  O   UNL     1      35.431 -17.320 -20.717  0.00  0.00    -0.256 OA
ATOM     10  C   UNL     1      35.251 -18.456 -23.131  0.00  0.00    +0.106 C 
ENDBRANCH   7   8
ENDBRANCH   1   7
TORSDOF 5
ENDMDL
MODEL 3
REMARK VINA RESULT:      -4.9      3.583      5.739
REMARK  Name = 9577379
REMARK  5 active torsions:
REMARK  status: ('A' for Active; 'I' for Inactive)
REMARK    1  A    between atoms: C_1  and  C_2
REMARK    2  A    between atoms: C_1  and  C_7
REMARK    3  A    between atoms: C_2  and  C_3
REMARK    4  A    between atoms: C_3  and  N_5
REMARK    5  A    between atoms: C_7  and  S_8
REMARK                            x       y       z     vdW  Elec       q    Type
REMARK                         _______ _______ _______ _____ _____    ______ ____
ROOT
ATOM      1  C   UNL     1      35.443 -18.681 -22.581  0.00  0.00    +0.016 C 
ENDROOT
BRANCH   1   2
ATOM      2  C   UNL     1      34.842 -19.745 -21.655  0.00  0.00    +0.028 C 
BRANCH   2   3
ATOM      3  C   UNL     1      33.562 -19.266 -20.975  0.00  0.00    +0.136 C 
BRANCH   3   5
ATOM      4  S   UNL     1      34.104 -22.249 -18.952  0.00  0.00    +0.020 S 
ATOM      5  N   UNL     1      32.770 -20.418 -20.540  0.00  0.00    -0.222 NA
ATOM      6  C   UNL     1      33.347 -21.188 -19.866  0.00  0.00    +0.037 C 
ENDBRANCH   3   5
ENDBRANCH   2   3
ENDBRANCH   1   2
BRANCH   1   7
ATOM      7  C   UNL     1      34.887 -18.743 -24.000  0.00  0.00    +0.092 C 
BRANCH   7   8
ATOM      8  S   UNL     1      34.296 -17.121 -24.573  0.00  0.00    +0.043 S 
ATOM      9  O   UNL     1      35.028 -16.809 -25.842  0.00  0.00    -0.256 OA
ATOM     10  C   UNL     1      35.074 -16.175 -23.244  0.00  0.00    +0.106 C 
ENDBRANCH   7   8
ENDBRANCH   1   7
TORSDOF 5
ENDMDL
MODEL 4
REMARK VINA RESULT:      -4.8      3.139      5.062
REMARK  Name = 9577379
REMARK  5 active torsions:
REMARK  status: ('A' for Active; 'I' for Inactive)
REMARK    1  A    between atoms: C_1  and  C_2
REMARK    2  A    between atoms: C_1  and  C_7
REMARK    3  A    between atoms: C_2  and  C_3
REMARK    4  A    between atoms: C_3  and  N_5
REMARK    5  A    between atoms: C_7  and  S_8
REMARK                            x       y       z     vdW  Elec       q    Type
REMARK                         _______ _______ _______ _____ _____    ______ ____
ROOT
ATOM      1  C   UNL     1      34.323 -18.281 -25.104  0.00  0.00    +0.016 C 
ENDROOT
BRANCH   1   2
ATOM      2  C   UNL     1      34.890 -19.022 -23.886  0.00  0.00    +0.028 C 
BRANCH   2   3
ATOM      3  C   UNL     1      35.478 -18.069 -22.849  0.00  0.00    +0.136 C 
BRANCH   3   5
ATOM      4  S   UNL     1      33.464 -20.113 -20.602  0.00  0.00    +0.020 S 
ATOM      5  N   UNL     1      34.505 -17.836 -21.781  0.00  0.00    -0.222 NA
ATOM      6  C   UNL     1      34.070 -18.810 -21.288  0.00  0.00    +0.037 C 
ENDBRANCH   3   5
ENDBRANCH   2   3
ENDBRANCH   1   2
BRANCH   1   7
ATOM      7  C   UNL     1      34.780 -16.829 -25.183  0.00  0.00    +0.092 C 
BRANCH   7   8
ATOM      8  S   UNL     1      33.401 -15.697 -25.538  0.00  0.00    +0.043 S 
ATOM      9  O   UNL     1      33.745 -14.965 -26.798  0.00  0.00    -0.256 OA
ATOM     10  C   UNL     1      33.729 -14.586 -24.150  0.00  0.00    +0.106 C 
ENDBRANCH   7   8
ENDBRANCH   1   7
TORSDOF 5
ENDMDL
MODEL 5
REMARK VINA RESULT:      -4.7      3.507      4.379
REMARK  Name = 9577379
REMARK  5 active torsions:
REMARK  status: ('A' for Active; 'I' for Inactive)
REMARK    1  A    between atoms: C_1  and  C_2
REMARK    2  A    between atoms: C_1  and  C_7
REMARK    3  A    between atoms: C_2  and  C_3
REMARK    4  A    between atoms: C_3  and  N_5
REMARK    5  A    between atoms: C_7  and  S_8
REMARK                            x       y       z     vdW  Elec       q    Type
REMARK                         _______ _______ _______ _____ _____    ______ ____
ROOT
ATOM      1  C   UNL     1      34.377 -20.441 -20.266  0.00  0.00    +0.016 C 
ENDROOT
BRANCH   1   2
ATOM      2  C   UNL     1      33.782 -19.302 -21.105  0.00  0.00    +0.028 C 
BRANCH   2   3
ATOM      3  C   UNL     1      34.857 -18.442 -21.762  0.00  0.00    +0.136 C 
BRANCH   3   5
ATOM      4  S   UNL     1      34.624 -16.914 -25.063  0.00  0.00    +0.020 S 
ATOM      5  N   UNL     1      35.052 -18.866 -23.149  0.00  0.00    -0.222 NA
ATOM      6  C   UNL     1      34.868 -18.029 -23.952  0.00  0.00    +0.037 C 
ENDBRANCH   3   5
ENDBRANCH   2   3
ENDBRANCH   1   2
BRANCH   1   7
ATOM      7  C   UNL     1      33.316 -21.288 -19.573  0.00  0.00    +0.092 C 
BRANCH   7   8
ATOM      8  S   UNL     1      34.043 -22.693 -18.674  0.00  0.00    +0.043 S 
ATOM      9  O   UNL     1      33.986 -23.877 -19.588  0.00  0.00    -0.256 OA
ATOM     10  C   UNL     1      32.692 -22.852 -17.484  0.00  0.00    +0.106 C 
ENDBRANCH   7   8
ENDBRANCH   1   7
TORSDOF 5
ENDMDL
MODEL 6
REMARK VINA RESULT:      -4.7      3.850      6.057
REMARK  Name = 9577379
REMARK  5 active torsions:
REMARK  status: ('A' for Active; 'I' for Inactive)
REMARK    1  A    between atoms: C_1  and  C_2
REMARK    2  A    between atoms: C_1  and  C_7
REMARK    3  A    between atoms: C_2  and  C_3
REMARK    4  A    between atoms: C_3  and  N_5
REMARK    5  A    between atoms: C_7  and  S_8
REMARK                            x       y       z     vdW  Elec       q    Type
REMARK                         _______ _______ _______ _____ _____    ______ ____
ROOT
ATOM      1  C   UNL     1      33.007 -14.209 -23.345  0.00  0.00    +0.016 C 
ENDROOT
BRANCH   1   2
ATOM      2  C   UNL     1      34.194 -14.819 -22.588  0.00  0.00    +0.028 C 
BRANCH   2   3
ATOM      3  C   UNL     1      33.902 -14.999 -21.101  0.00  0.00    +0.136 C 
BRANCH   3   5
ATOM      4  S   UNL     1      35.128 -18.411 -21.471  0.00  0.00    +0.020 S 
ATOM      5  N   UNL     1      34.938 -15.832 -20.488  0.00  0.00    -0.222 NA
ATOM      6  C   UNL     1      35.010 -16.924 -20.914  0.00  0.00    +0.037 C 
ENDBRANCH   3   5
ENDBRANCH   2   3
ENDBRANCH   1   2
BRANCH   1   7
ATOM      7  C   UNL     1      33.414 -13.553 -24.660  0.00  0.00    +0.092 C 
BRANCH   7   8
ATOM      8  S   UNL     1      32.937 -14.557 -26.100  0.00  0.00    +0.043 S 
ATOM      9  O   UNL     1      33.905 -15.696 -26.183  0.00  0.00    -0.256 OA
ATOM     10  C   UNL     1      33.426 -13.330 -27.335  0.00  0.00    +0.106 C 
ENDBRANCH   7   8
ENDBRANCH   1   7
TORSDOF 5
ENDMDL
MODEL 7
REMARK VINA RESULT:      -4.7      1.349      1.404
REMARK  Name = 9577379
REMARK  5 active torsions:
REMARK  status: ('A' for Active; 'I' for Inactive)
REMARK    1  A    between atoms: C_1  and  C_2
REMARK    2  A    between atoms: C_1  and  C_7
REMARK    3  A    between atoms: C_2  and  C_3
REMARK    4  A    between atoms: C_3  and  N_5
REMARK    5  A    between atoms: C_7  and  S_8
REMARK                            x       y       z     vdW  Elec       q    Type
REMARK                         _______ _______ _______ _____ _____    ______ ____
ROOT
ATOM      1  C   UNL     1      35.372 -18.289 -23.804  0.00  0.00    +0.016 C 
ENDROOT
BRANCH   1   2
ATOM      2  C   UNL     1      34.530 -17.939 -25.038  0.00  0.00    +0.028 C 
BRANCH   2   3
ATOM      3  C   UNL     1      34.165 -16.458 -25.089  0.00  0.00    +0.136 C 
BRANCH   3   5
ATOM      4  S   UNL     1      33.528 -13.312 -23.362  0.00  0.00    +0.020 S 
ATOM      5  N   UNL     1      34.655 -15.784 -23.885  0.00  0.00    -0.222 NA
ATOM      6  C   UNL     1      34.170 -14.736 -23.673  0.00  0.00    +0.037 C 
ENDBRANCH   3   5
ENDBRANCH   2   3
ENDBRANCH   1   2
BRANCH   1   7
ATOM      7  C   UNL     1      34.693 -19.302 -22.888  0.00  0.00    +0.092 C 
BRANCH   7   8
ATOM      8  S   UNL     1      34.455 -18.650 -21.207  0.00  0.00    +0.043 S 
ATOM      9  O   UNL     1      35.815 -18.465 -20.610  0.00  0.00    -0.256 OA
ATOM     10  C   UNL     1      33.759 -20.174 -20.529  0.00  0.00    +0.106 C 
ENDBRANCH   7   8
ENDBRANCH   1   7
TORSDOF 5
ENDMDL
MODEL 8
REMARK VINA RESULT:      -4.7     11.208     12.677
REMARK  Name = 9577379
REMARK  5 active torsions:
REMARK  status: ('A' for Active; 'I' for Inactive)
REMARK    1  A    between atoms: C_1  and  C_2
REMARK    2  A    between atoms: C_1  and  C_7
REMARK    3  A    between atoms: C_2  and  C_3
REMARK    4  A    between atoms: C_3  and  N_5
REMARK    5  A    between atoms: C_7  and  S_8
REMARK                            x       y       z     vdW  Elec       q    Type
REMARK                         _______ _______ _______ _____ _____    ______ ____
ROOT
ATOM      1  C   UNL     1      37.370 -26.088 -12.777  0.00  0.00    +0.016 C 
ENDROOT
BRANCH   1   2
ATOM      2  C   UNL     1      37.575 -26.439 -14.256  0.00  0.00    +0.028 C 
BRANCH   2   3
ATOM      3  C   UNL     1      36.312 -26.224 -15.084  0.00  0.00    +0.136 C 
BRANCH   3   5
ATOM      4  S   UNL     1      33.805 -23.580 -15.205  0.00  0.00    +0.020 S 
ATOM      5  N   UNL     1      36.248 -24.835 -15.542  0.00  0.00    -0.222 NA
ATOM      6  C   UNL     1      35.207 -24.313 -15.393  0.00  0.00    +0.037 C 
ENDBRANCH   3   5
ENDBRANCH   2   3
ENDBRANCH   1   2
BRANCH   1   7
ATOM      7  C   UNL     1      38.096 -24.813 -12.362  0.00  0.00    +0.092 C 
BRANCH   7   8
ATOM      8  S   UNL     1      36.951 -23.419 -12.131  0.00  0.00    +0.043 S 
ATOM      9  O   UNL     1      37.388 -22.688 -10.899  0.00  0.00    -0.256 OA
ATOM     10  C   UNL     1      35.526 -24.439 -11.688  0.00  0.00    +0.106 C 
ENDBRANCH   7   8
ENDBRANCH   1   7
TORSDOF 5
ENDMDL
MODEL 9
REMARK VINA RESULT:      -4.6      8.003      9.946
REMARK  Name = 9577379
REMARK  5 active torsions:
REMARK  status: ('A' for Active; 'I' for Inactive)
REMARK    1  A    between atoms: C_1  and  C_2
REMARK    2  A    between atoms: C_1  and  C_7
REMARK    3  A    between atoms: C_2  and  C_3
REMARK    4  A    between atoms: C_3  and  N_5
REMARK    5  A    between atoms: C_7  and  S_8
REMARK                            x       y       z     vdW  Elec       q    Type
REMARK                         _______ _______ _______ _____ _____    ______ ____
ROOT
ATOM      1  C   UNL     1      35.431 -23.291 -15.339  0.00  0.00    +0.016 C 
ENDROOT
BRANCH   1   2
ATOM      2  C   UNL     1      36.838 -22.691 -15.454  0.00  0.00    +0.028 C 
BRANCH   2   3
ATOM      3  C   UNL     1      37.079 -22.034 -16.810  0.00  0.00    +0.136 C 
BRANCH   3   5
ATOM      4  S   UNL     1      35.960 -20.924 -20.097  0.00  0.00    +0.020 S 
ATOM      5  N   UNL     1      35.956 -22.316 -17.705  0.00  0.00    -0.222 NA
ATOM      6  C   UNL     1      35.969 -21.720 -18.717  0.00  0.00    +0.037 C 
ENDBRANCH   3   5
ENDBRANCH   2   3
ENDBRANCH   1   2
BRANCH   1   7
ATOM      7  C   UNL     1      35.409 -24.619 -14.589  0.00  0.00    +0.092 C 
BRANCH   7   8
ATOM      8  S   UNL     1      36.849 -25.655 -14.992  0.00  0.00    +0.043 S 
ATOM      9  O   UNL     1      36.343 -26.823 -15.781  0.00  0.00    -0.256 OA
ATOM     10  C   UNL     1      37.135 -26.218 -13.299  0.00  0.00    +0.106 C 
ENDBRANCH   7   8
ENDBRANCH   1   7
TORSDOF 5
ENDMDL
