MODEL 1
REMARK VINA RESULT:      -9.9      0.000      0.000
REMARK  Name = 11586735
REMARK  3 active torsions:
REMARK  status: ('A' for Active; 'I' for Inactive)
REMARK    1  A    between atoms: C_1  and  C_3
REMARK    2  A    between atoms: C_1  and  C_12
REMARK    3  A    between atoms: C_12  and  C_14
REMARK                            x       y       z     vdW  Elec       q    Type
REMARK                         _______ _______ _______ _____ _____    ______ ____
ROOT
ATOM      1  C   UNL     1      34.601 -18.730 -22.263  0.00  0.00    +0.034 C 
ENDROOT
BRANCH   1   3
ATOM      2  N   UNL     1      32.711 -21.965 -18.942  0.00  0.00    -0.312 N 
ATOM      3  C   UNL     1      34.700 -19.742 -21.169  0.00  0.00    -0.021 C 
ATOM      4  C   UNL     1      33.668 -21.254 -19.629  0.00  0.00    +0.048 C 
ATOM      5  C   UNL     1      34.911 -21.637 -19.117  0.00  0.00    +0.015 C 
ATOM      6  C   UNL     1      33.531 -20.309 -20.653  0.00  0.00    +0.010 C 
ATOM      7  C   UNL     1      35.953 -20.104 -20.678  0.00  0.00    -0.004 C 
ATOM      8  C   UNL     1      36.074 -21.049 -19.653  0.00  0.00    +0.001 C 
ATOM      9  C   UNL     1      34.664 -22.602 -18.102  0.00  0.00    +0.017 C 
ATOM     10  C   UNL     1      33.303 -22.782 -18.016  0.00  0.00    +0.062 C 
ATOM     11  H   UNL     1      31.741 -21.896 -19.094  0.00  0.00    +0.152 HD
ENDBRANCH   1   3
BRANCH   1  12
ATOM     12  C   UNL     1      35.369 -17.425 -21.980  0.00  0.00    +0.064 C 
BRANCH  12  14
ATOM     13  N   UNL     1      34.775 -15.218 -22.779  0.00  0.00    -0.396 NA
ATOM     14  C   UNL     1      34.476 -16.209 -21.923  0.00  0.00    +0.110 C 
ATOM     15  C   UNL     1      33.437 -16.193 -21.018  0.00  0.00    +0.023 C 
ATOM     16  C   UNL     1      32.634 -15.058 -20.989  0.00  0.00    -0.015 C 
ATOM     17  C   UNL     1      33.973 -14.131 -22.724  0.00  0.00    +0.158 C 
ATOM     18  C   UNL     1      32.900 -14.003 -21.855  0.00  0.00    +0.100 C 
ATOM     19  N   UNL     1      34.231 -13.048 -23.599  0.00  0.00    -0.336 N 
ATOM     20  H   UNL     1      34.983 -13.095 -24.233  0.00  0.00    +0.144 HD
ATOM     21  H   UNL     1      33.659 -12.246 -23.573  0.00  0.00    +0.144 HD
ENDBRANCH  12  14
ENDBRANCH   1  12
TORSDOF 3
ENDMDL
MODEL 2
REMARK VINA RESULT:      -9.9      1.969      7.184
REMARK  Name = 11586735
REMARK  3 active torsions:
REMARK  status: ('A' for Active; 'I' for Inactive)
REMARK    1  A    between atoms: C_1  and  C_3
REMARK    2  A    between atoms: C_1  and  C_12
REMARK    3  A    between atoms: C_12  and  C_14
REMARK                            x       y       z     vdW  Elec       q    Type
REMARK                         _______ _______ _______ _____ _____    ______ ____
ROOT
ATOM      1  C   UNL     1      35.562 -18.532 -23.365  0.00  0.00    +0.034 C 
ENDROOT
BRANCH   1   3
ATOM      2  N   UNL     1      34.275 -13.716 -22.897  0.00  0.00    -0.312 N 
ATOM      3  C   UNL     1      34.937 -17.259 -23.832  0.00  0.00    -0.021 C 
ATOM      4  C   UNL     1      34.384 -14.958 -23.482  0.00  0.00    +0.048 C 
ATOM      5  C   UNL     1      33.758 -14.882 -24.729  0.00  0.00    +0.015 C 
ATOM      6  C   UNL     1      34.980 -16.131 -23.006  0.00  0.00    +0.010 C 
ATOM      7  C   UNL     1      34.319 -17.212 -25.080  0.00  0.00    -0.004 C 
ATOM      8  C   UNL     1      33.726 -16.032 -25.542  0.00  0.00    +0.001 C 
ATOM      9  C   UNL     1      33.273 -13.552 -24.871  0.00  0.00    +0.017 C 
ATOM     10  C   UNL     1      33.605 -12.860 -23.730  0.00  0.00    +0.062 C 
ATOM     11  H   UNL     1      34.629 -13.479 -22.010  0.00  0.00    +0.152 HD
ENDBRANCH   1   3
BRANCH   1  12
ATOM     12  C   UNL     1      35.914 -18.544 -21.865  0.00  0.00    +0.064 C 
BRANCH  12  14
ATOM     13  N   UNL     1      35.717 -20.321 -20.232  0.00  0.00    -0.396 NA
ATOM     14  C   UNL     1      35.059 -19.493 -21.060  0.00  0.00    +0.110 C 
ATOM     15  C   UNL     1      33.691 -19.451 -21.222  0.00  0.00    +0.023 C 
ATOM     16  C   UNL     1      32.932 -20.338 -20.468  0.00  0.00    -0.015 C 
ATOM     17  C   UNL     1      34.947 -21.169 -19.514  0.00  0.00    +0.158 C 
ATOM     18  C   UNL     1      33.565 -21.218 -19.595  0.00  0.00    +0.100 C 
ATOM     19  N   UNL     1      35.576 -22.071 -18.621  0.00  0.00    -0.336 N 
ATOM     20  H   UNL     1      36.557 -22.072 -18.531  0.00  0.00    +0.144 HD
ATOM     21  H   UNL     1      35.033 -22.698 -18.090  0.00  0.00    +0.144 HD
ENDBRANCH  12  14
ENDBRANCH   1  12
TORSDOF 3
ENDMDL
MODEL 3
REMARK VINA RESULT:      -9.8      1.733      2.326
REMARK  Name = 11586735
REMARK  3 active torsions:
REMARK  status: ('A' for Active; 'I' for Inactive)
REMARK    1  A    between atoms: C_1  and  C_3
REMARK    2  A    between atoms: C_1  and  C_12
REMARK    3  A    between atoms: C_12  and  C_14
REMARK                            x       y       z     vdW  Elec       q    Type
REMARK                         _______ _______ _______ _____ _____    ______ ____
ROOT
ATOM      1  C   UNL     1      35.905 -18.297 -22.312  0.00  0.00    +0.034 C 
ENDROOT
BRANCH   1   3
ATOM      2  N   UNL     1      35.503 -21.952 -18.914  0.00  0.00    -0.312 N 
ATOM      3  C   UNL     1      35.145 -19.244 -21.443  0.00  0.00    -0.021 C 
ATOM      4  C   UNL     1      35.093 -20.994 -19.814  0.00  0.00    +0.048 C 
ATOM      5  C   UNL     1      33.696 -21.011 -19.824  0.00  0.00    +0.015 C 
ATOM      6  C   UNL     1      35.844 -20.124 -20.612  0.00  0.00    +0.010 C 
ATOM      7  C   UNL     1      33.752 -19.239 -21.475  0.00  0.00    -0.004 C 
ATOM      8  C   UNL     1      33.014 -20.116 -20.672  0.00  0.00    +0.001 C 
ATOM      9  C   UNL     1      33.284 -22.010 -18.899  0.00  0.00    +0.017 C 
ATOM     10  C   UNL     1      34.417 -22.572 -18.356  0.00  0.00    +0.062 C 
ATOM     11  H   UNL     1      36.441 -22.160 -18.702  0.00  0.00    +0.152 HD
ENDBRANCH   1   3
BRANCH   1  12
ATOM     12  C   UNL     1      35.280 -18.085 -23.704  0.00  0.00    +0.064 C 
BRANCH  12  14
ATOM     13  N   UNL     1      33.980 -16.520 -25.017  0.00  0.00    -0.396 NA
ATOM     14  C   UNL     1      34.669 -16.716 -23.880  0.00  0.00    +0.110 C 
ATOM     15  C   UNL     1      34.853 -15.776 -22.889  0.00  0.00    +0.023 C 
ATOM     16  C   UNL     1      34.279 -14.525 -23.082  0.00  0.00    -0.015 C 
ATOM     17  C   UNL     1      33.436 -15.291 -25.170  0.00  0.00    +0.158 C 
ATOM     18  C   UNL     1      33.555 -14.269 -24.242  0.00  0.00    +0.100 C 
ATOM     19  N   UNL     1      32.696 -15.015 -26.347  0.00  0.00    -0.336 N 
ATOM     20  H   UNL     1      32.586 -15.712 -27.033  0.00  0.00    +0.144 HD
ATOM     21  H   UNL     1      32.293 -14.126 -26.478  0.00  0.00    +0.144 HD
ENDBRANCH  12  14
ENDBRANCH   1  12
TORSDOF 3
ENDMDL
MODEL 4
REMARK VINA RESULT:      -9.8      2.180      7.212
REMARK  Name = 11586735
REMARK  3 active torsions:
REMARK  status: ('A' for Active; 'I' for Inactive)
REMARK    1  A    between atoms: C_1  and  C_3
REMARK    2  A    between atoms: C_1  and  C_12
REMARK    3  A    between atoms: C_12  and  C_14
REMARK                            x       y       z     vdW  Elec       q    Type
REMARK                         _______ _______ _______ _____ _____    ______ ____
ROOT
ATOM      1  C   UNL     1      35.630 -18.514 -23.239  0.00  0.00    +0.034 C 
ENDROOT
BRANCH   1   3
ATOM      2  N   UNL     1      33.182 -15.426 -26.328  0.00  0.00    -0.312 N 
ATOM      3  C   UNL     1      34.988 -17.218 -23.610  0.00  0.00    -0.021 C 
ATOM      4  C   UNL     1      33.817 -15.846 -25.181  0.00  0.00    +0.048 C 
ATOM      5  C   UNL     1      33.790 -14.777 -24.281  0.00  0.00    +0.015 C 
ATOM      6  C   UNL     1      34.409 -17.076 -24.874  0.00  0.00    +0.010 C 
ATOM      7  C   UNL     1      34.976 -16.169 -22.692  0.00  0.00    -0.004 C 
ATOM      8  C   UNL     1      34.381 -14.944 -23.013  0.00  0.00    +0.001 C 
ATOM      9  C   UNL     1      33.116 -13.704 -24.928  0.00  0.00    +0.017 C 
ATOM     10  C   UNL     1      32.755 -14.132 -26.185  0.00  0.00    +0.062 C 
ATOM     11  H   UNL     1      33.054 -15.976 -27.133  0.00  0.00    +0.152 HD
ENDBRANCH   1   3
BRANCH   1  12
ATOM     12  C   UNL     1      35.995 -18.627 -21.746  0.00  0.00    +0.064 C 
BRANCH  12  14
ATOM     13  N   UNL     1      35.686 -20.407 -20.134  0.00  0.00    -0.396 NA
ATOM     14  C   UNL     1      35.083 -19.554 -20.979  0.00  0.00    +0.110 C 
ATOM     15  C   UNL     1      33.724 -19.468 -21.188  0.00  0.00    +0.023 C 
ATOM     16  C   UNL     1      32.912 -20.336 -20.467  0.00  0.00    -0.015 C 
ATOM     17  C   UNL     1      34.865 -21.236 -19.450  0.00  0.00    +0.158 C 
ATOM     18  C   UNL     1      33.485 -21.240 -19.579  0.00  0.00    +0.100 C 
ATOM     19  N   UNL     1      35.434 -22.162 -18.542  0.00  0.00    -0.336 N 
ATOM     20  H   UNL     1      36.410 -22.194 -18.418  0.00  0.00    +0.144 HD
ATOM     21  H   UNL     1      34.853 -22.775 -18.035  0.00  0.00    +0.144 HD
ENDBRANCH  12  14
ENDBRANCH   1  12
TORSDOF 3
ENDMDL
MODEL 5
REMARK VINA RESULT:      -9.5      2.745      7.542
REMARK  Name = 11586735
REMARK  3 active torsions:
REMARK  status: ('A' for Active; 'I' for Inactive)
REMARK    1  A    between atoms: C_1  and  C_3
REMARK    2  A    between atoms: C_1  and  C_12
REMARK    3  A    between atoms: C_12  and  C_14
REMARK                            x       y       z     vdW  Elec       q    Type
REMARK                         _______ _______ _______ _____ _____    ______ ____
ROOT
ATOM      1  C   UNL     1      33.529 -23.071 -18.524  0.00  0.00    +0.034 C 
ENDROOT
BRANCH   1   3
ATOM      2  N   UNL     1      33.865 -18.915 -21.296  0.00  0.00    -0.312 N 
ATOM      3  C   UNL     1      34.271 -21.976 -19.216  0.00  0.00    -0.021 C 
ATOM      4  C   UNL     1      34.292 -19.989 -20.548  0.00  0.00    +0.048 C 
ATOM      5  C   UNL     1      35.687 -19.931 -20.505  0.00  0.00    +0.015 C 
ATOM      6  C   UNL     1      33.557 -20.998 -19.915  0.00  0.00    +0.010 C 
ATOM      7  C   UNL     1      35.663 -21.944 -19.156  0.00  0.00    -0.004 C 
ATOM      8  C   UNL     1      36.384 -20.929 -19.795  0.00  0.00    +0.001 C 
ATOM      9  C   UNL     1      36.080 -18.785 -21.250  0.00  0.00    +0.017 C 
ATOM     10  C   UNL     1      34.939 -18.181 -21.725  0.00  0.00    +0.062 C 
ATOM     11  H   UNL     1      32.924 -18.704 -21.493  0.00  0.00    +0.152 HD
ENDBRANCH   1   3
BRANCH   1  12
ATOM     12  C   UNL     1      33.722 -23.089 -16.995  0.00  0.00    +0.064 C 
BRANCH  12  14
ATOM     13  N   UNL     1      31.309 -22.889 -16.964  0.00  0.00    -0.396 NA
ATOM     14  C   UNL     1      32.421 -23.065 -16.230  0.00  0.00    +0.110 C 
ATOM     15  C   UNL     1      32.455 -23.219 -14.862  0.00  0.00    +0.023 C 
ATOM     16  C   UNL     1      31.240 -23.190 -14.186  0.00  0.00    -0.015 C 
ATOM     17  C   UNL     1      30.146 -22.866 -16.274  0.00  0.00    +0.158 C 
ATOM     18  C   UNL     1      30.059 -23.011 -14.899  0.00  0.00    +0.100 C 
ATOM     19  N   UNL     1      28.935 -22.684 -16.985  0.00  0.00    -0.336 N 
ATOM     20  H   UNL     1      28.950 -22.577 -17.964  0.00  0.00    +0.144 HD
ATOM     21  H   UNL     1      28.078 -22.663 -16.501  0.00  0.00    +0.144 HD
ENDBRANCH  12  14
ENDBRANCH   1  12
TORSDOF 3
ENDMDL
MODEL 6
REMARK VINA RESULT:      -9.4      1.732      2.208
REMARK  Name = 11586735
REMARK  3 active torsions:
REMARK  status: ('A' for Active; 'I' for Inactive)
REMARK    1  A    between atoms: C_1  and  C_3
REMARK    2  A    between atoms: C_1  and  C_12
REMARK    3  A    between atoms: C_12  and  C_14
REMARK                            x       y       z     vdW  Elec       q    Type
REMARK                         _______ _______ _______ _____ _____    ______ ____
ROOT
ATOM      1  C   UNL     1      35.285 -17.270 -22.152  0.00  0.00    +0.034 C 
ENDROOT
BRANCH   1   3
ATOM      2  N   UNL     1      33.022 -21.115 -19.880  0.00  0.00    -0.312 N 
ATOM      3  C   UNL     1      35.262 -18.538 -21.364  0.00  0.00    -0.021 C 
ATOM      4  C   UNL     1      34.057 -20.322 -20.319  0.00  0.00    +0.048 C 
ATOM      5  C   UNL     1      35.245 -20.917 -19.886  0.00  0.00    +0.015 C 
ATOM      6  C   UNL     1      34.034 -19.133 -21.058  0.00  0.00    +0.010 C 
ATOM      7  C   UNL     1      36.462 -19.110 -20.945  0.00  0.00    -0.004 C 
ATOM      8  C   UNL     1      36.469 -20.298 -20.205  0.00  0.00    +0.001 C 
ATOM      9  C   UNL     1      34.885 -22.095 -19.174  0.00  0.00    +0.017 C 
ATOM     10  C   UNL     1      33.512 -22.190 -19.187  0.00  0.00    +0.062 C 
ATOM     11  H   UNL     1      32.068 -20.937 -20.042  0.00  0.00    +0.152 HD
ENDBRANCH   1   3
BRANCH   1  12
ATOM     12  C   UNL     1      34.967 -17.456 -23.648  0.00  0.00    +0.064 C 
BRANCH  12  14
ATOM     13  N   UNL     1      34.182 -15.172 -23.483  0.00  0.00    -0.396 NA
ATOM     14  C   UNL     1      34.291 -16.258 -24.267  0.00  0.00    +0.110 C 
ATOM     15  C   UNL     1      33.837 -16.350 -25.565  0.00  0.00    +0.023 C 
ATOM     16  C   UNL     1      33.217 -15.229 -26.105  0.00  0.00    -0.015 C 
ATOM     17  C   UNL     1      33.575 -14.101 -24.041  0.00  0.00    +0.158 C 
ATOM     18  C   UNL     1      33.079 -14.079 -25.335  0.00  0.00    +0.100 C 
ATOM     19  N   UNL     1      33.426 -12.922 -23.270  0.00  0.00    -0.336 N 
ATOM     20  H   UNL     1      33.763 -12.893 -22.345  0.00  0.00    +0.144 HD
ATOM     21  H   UNL     1      32.985 -12.132 -23.659  0.00  0.00    +0.144 HD
ENDBRANCH  12  14
ENDBRANCH   1  12
TORSDOF 3
ENDMDL
MODEL 7
REMARK VINA RESULT:      -9.4      1.489      7.291
REMARK  Name = 11586735
REMARK  3 active torsions:
REMARK  status: ('A' for Active; 'I' for Inactive)
REMARK    1  A    between atoms: C_1  and  C_3
REMARK    2  A    between atoms: C_1  and  C_12
REMARK    3  A    between atoms: C_12  and  C_14
REMARK                            x       y       z     vdW  Elec       q    Type
REMARK                         _______ _______ _______ _____ _____    ______ ____
ROOT
ATOM      1  C   UNL     1      35.302 -17.447 -21.606  0.00  0.00    +0.034 C 
ENDROOT
BRANCH   1   3
ATOM      2  N   UNL     1      34.057 -13.064 -23.680  0.00  0.00    -0.312 N 
ATOM      3  C   UNL     1      34.456 -16.226 -21.756  0.00  0.00    -0.021 C 
ATOM      4  C   UNL     1      33.972 -14.145 -22.833  0.00  0.00    +0.048 C 
ATOM      5  C   UNL     1      32.854 -13.944 -22.020  0.00  0.00    +0.015 C 
ATOM      6  C   UNL     1      34.792 -15.274 -22.724  0.00  0.00    +0.010 C 
ATOM      7  C   UNL     1      33.347 -16.051 -20.931  0.00  0.00    -0.004 C 
ATOM      8  C   UNL     1      32.537 -14.916 -21.051  0.00  0.00    +0.001 C 
ATOM      9  C   UNL     1      32.272 -12.706 -22.410  0.00  0.00    +0.017 C 
ATOM     10  C   UNL     1      33.034 -12.188 -23.432  0.00  0.00    +0.062 C 
ATOM     11  H   UNL     1      34.752 -12.938 -24.365  0.00  0.00    +0.152 HD
ENDBRANCH   1   3
BRANCH   1  12
ATOM     12  C   UNL     1      34.631 -18.739 -22.109  0.00  0.00    +0.064 C 
BRANCH  12  14
ATOM     13  N   UNL     1      35.600 -20.216 -20.453  0.00  0.00    -0.396 NA
ATOM     14  C   UNL     1      34.467 -19.784 -21.032  0.00  0.00    +0.110 C 
ATOM     15  C   UNL     1      33.197 -20.218 -20.719  0.00  0.00    +0.023 C 
ATOM     16  C   UNL     1      33.080 -21.182 -19.723  0.00  0.00    -0.015 C 
ATOM     17  C   UNL     1      35.448 -21.153 -19.490  0.00  0.00    +0.158 C 
ATOM     18  C   UNL     1      34.223 -21.663 -19.092  0.00  0.00    +0.100 C 
ATOM     19  N   UNL     1      36.601 -21.653 -18.837  0.00  0.00    -0.336 N 
ATOM     20  H   UNL     1      37.493 -21.319 -19.088  0.00  0.00    +0.144 HD
ATOM     21  H   UNL     1      36.511 -22.337 -18.134  0.00  0.00    +0.144 HD
ENDBRANCH  12  14
ENDBRANCH   1  12
TORSDOF 3
ENDMDL
MODEL 8
REMARK VINA RESULT:      -9.3      2.842      7.910
REMARK  Name = 11586735
REMARK  3 active torsions:
REMARK  status: ('A' for Active; 'I' for Inactive)
REMARK    1  A    between atoms: C_1  and  C_3
REMARK    2  A    between atoms: C_1  and  C_12
REMARK    3  A    between atoms: C_12  and  C_14
REMARK                            x       y       z     vdW  Elec       q    Type
REMARK                         _______ _______ _______ _____ _____    ______ ____
ROOT
ATOM      1  C   UNL     1      34.025 -22.972 -18.865  0.00  0.00    +0.034 C 
ENDROOT
BRANCH   1   3
ATOM      2  N   UNL     1      36.305 -19.117 -21.103  0.00  0.00    -0.312 N 
ATOM      3  C   UNL     1      34.054 -21.668 -19.592  0.00  0.00    -0.021 C 
ATOM      4  C   UNL     1      35.266 -19.888 -20.633  0.00  0.00    +0.048 C 
ATOM      5  C   UNL     1      34.081 -19.223 -20.957  0.00  0.00    +0.015 C 
ATOM      6  C   UNL     1      35.284 -21.110 -19.952  0.00  0.00    +0.010 C 
ATOM      7  C   UNL     1      32.856 -21.027 -19.902  0.00  0.00    -0.004 C 
ATOM      8  C   UNL     1      32.853 -19.805 -20.583  0.00  0.00    +0.001 C 
ATOM      9  C   UNL     1      34.446 -18.028 -21.638  0.00  0.00    +0.017 C 
ATOM     10  C   UNL     1      35.819 -17.990 -21.712  0.00  0.00    +0.062 C 
ATOM     11  H   UNL     1      37.258 -19.343 -21.015  0.00  0.00    +0.152 HD
ENDBRANCH   1   3
BRANCH   1  12
ATOM     12  C   UNL     1      33.296 -22.916 -17.509  0.00  0.00    +0.064 C 
BRANCH  12  14
ATOM     13  N   UNL     1      35.513 -23.185 -16.575  0.00  0.00    -0.396 NA
ATOM     14  C   UNL     1      34.192 -23.235 -16.337  0.00  0.00    +0.110 C 
ATOM     15  C   UNL     1      33.613 -23.549 -15.127  0.00  0.00    +0.023 C 
ATOM     16  C   UNL     1      34.465 -23.839 -14.068  0.00  0.00    -0.015 C 
ATOM     17  C   UNL     1      36.312 -23.472 -15.522  0.00  0.00    +0.158 C 
ATOM     18  C   UNL     1      35.842 -23.802 -14.261  0.00  0.00    +0.100 C 
ATOM     19  N   UNL     1      37.717 -23.439 -15.703  0.00  0.00    -0.336 N 
ATOM     20  H   UNL     1      38.095 -23.210 -16.582  0.00  0.00    +0.144 HD
ATOM     21  H   UNL     1      38.315 -23.647 -14.948  0.00  0.00    +0.144 HD
ENDBRANCH  12  14
ENDBRANCH   1  12
TORSDOF 3
ENDMDL
MODEL 9
REMARK VINA RESULT:      -9.2      3.178      8.487
REMARK  Name = 11586735
REMARK  3 active torsions:
REMARK  status: ('A' for Active; 'I' for Inactive)
REMARK    1  A    between atoms: C_1  and  C_3
REMARK    2  A    between atoms: C_1  and  C_12
REMARK    3  A    between atoms: C_12  and  C_14
REMARK                            x       y       z     vdW  Elec       q    Type
REMARK                         _______ _______ _______ _____ _____    ______ ____
ROOT
ATOM      1  C   UNL     1      33.756 -22.909 -18.258  0.00  0.00    +0.034 C 
ENDROOT
BRANCH   1   3
ATOM      2  N   UNL     1      36.570 -19.560 -20.695  0.00  0.00    -0.312 N 
ATOM      3  C   UNL     1      33.970 -21.746 -19.170  0.00  0.00    -0.021 C 
ATOM      4  C   UNL     1      35.428 -20.206 -20.277  0.00  0.00    +0.048 C 
ATOM      5  C   UNL     1      34.346 -19.562 -20.883  0.00  0.00    +0.015 C 
ATOM      6  C   UNL     1      35.272 -21.298 -19.416  0.00  0.00    +0.010 C 
ATOM      7  C   UNL     1      32.872 -21.123 -19.760  0.00  0.00    -0.004 C 
ATOM      8  C   UNL     1      33.044 -20.031 -20.618  0.00  0.00    +0.001 C 
ATOM      9  C   UNL     1      34.879 -18.511 -21.679  0.00  0.00    +0.017 C 
ATOM     10  C   UNL     1      36.248 -18.534 -21.543  0.00  0.00    +0.062 C 
ATOM     11  H   UNL     1      37.484 -19.802 -20.424  0.00  0.00    +0.152 HD
ENDBRANCH   1   3
BRANCH   1  12
ATOM     12  C   UNL     1      32.433 -22.851 -17.471  0.00  0.00    +0.064 C 
BRANCH  12  14
ATOM     13  N   UNL     1      31.402 -23.994 -15.602  0.00  0.00    -0.396 NA
ATOM     14  C   UNL     1      32.533 -23.461 -16.093  0.00  0.00    +0.110 C 
ATOM     15  C   UNL     1      33.747 -23.432 -15.443  0.00  0.00    +0.023 C 
ATOM     16  C   UNL     1      33.806 -24.000 -14.175  0.00  0.00    -0.015 C 
ATOM     17  C   UNL     1      31.496 -24.538 -14.367  0.00  0.00    +0.158 C 
ATOM     18  C   UNL     1      32.663 -24.566 -13.620  0.00  0.00    +0.100 C 
ATOM     19  N   UNL     1      30.341 -25.119 -13.788  0.00  0.00    -0.336 N 
ATOM     20  H   UNL     1      29.490 -25.121 -14.283  0.00  0.00    +0.144 HD
ATOM     21  H   UNL     1      30.389 -25.519 -12.889  0.00  0.00    +0.144 HD
ENDBRANCH  12  14
ENDBRANCH   1  12
TORSDOF 3
ENDMDL
