MODEL 1
REMARK VINA RESULT:     -10.0      0.000      0.000
REMARK  Name = 448533
REMARK  4 active torsions:
REMARK  status: ('A' for Active; 'I' for Inactive)
REMARK    1  A    between atoms: N_3  and  C_12
REMARK    2  A    between atoms: C_6  and  C_20
REMARK    3  A    between atoms: C_17  and  C_19
REMARK    4  A    between atoms: C_20  and  C_24
REMARK                            x       y       z     vdW  Elec       q    Type
REMARK                         _______ _______ _______ _____ _____    ______ ____
ROOT
ATOM      1  N   UNL     1      34.126 -22.645 -16.262  0.00  0.00    -0.264 NA
ATOM      2  N   UNL     1      33.480 -23.944 -14.350  0.00  0.00    -0.264 NA
ATOM      3  N   UNL     1      32.777 -22.682 -18.180  0.00  0.00    -0.237 N 
ATOM      4  N   UNL     1      32.121 -23.963 -16.328  0.00  0.00    -0.247 NA
ATOM      5  N   UNL     1      31.515 -25.220 -14.444  0.00  0.00    -0.282 N 
ATOM      6  C   UNL     1      34.273 -23.108 -15.021  0.00  0.00    +0.144 C 
ATOM      7  C   UNL     1      33.020 -23.118 -16.860  0.00  0.00    +0.224 C 
ATOM      8  C   UNL     1      32.416 -24.333 -15.072  0.00  0.00    +0.217 C 
ATOM      9  H   UNL     1      31.955 -23.054 -18.575  0.00  0.00    +0.166 HD
ATOM     10  H   UNL     1      31.684 -25.524 -13.523  0.00  0.00    +0.156 HD
ATOM     11  H   UNL     1      30.717 -25.536 -14.928  0.00  0.00    +0.156 HD
ENDROOT
BRANCH   3  12
ATOM     12  C   UNL     1      33.478 -21.818 -19.042  0.00  0.00    +0.059 C 
ATOM     13  C   UNL     1      34.852 -21.983 -19.232  0.00  0.00    +0.016 C 
ATOM     14  C   UNL     1      32.804 -20.794 -19.708  0.00  0.00    +0.016 C 
ATOM     15  C   UNL     1      35.547 -21.127 -20.086  0.00  0.00    +0.012 C 
ATOM     16  C   UNL     1      33.498 -19.938 -20.562  0.00  0.00    +0.012 C 
ATOM     17  C   UNL     1      34.871 -20.105 -20.751  0.00  0.00    +0.069 C 
BRANCH  17  19
ATOM     18  N   UNL     1      36.162 -18.514 -22.338  0.00  0.00    -0.191 NA
ATOM     19  C   UNL     1      35.583 -19.228 -21.626  0.00  0.00    +0.100 C 
ENDBRANCH  17  19
ENDBRANCH   3  12
BRANCH   6  20
ATOM     20  C   UNL     1      35.496 -22.620 -14.276  0.00  0.00    +0.154 C 
BRANCH  20  24
ATOM     21 CL   UNL     1      37.253 -21.595 -16.549  0.00  0.00    -0.083 Cl
ATOM     22  N   UNL     1      38.294 -26.328 -13.272  0.00  0.00    -0.312 N 
ATOM     23  C   UNL     1      37.055 -24.559 -13.829  0.00  0.00    +0.013 C 
ATOM     24  C   UNL     1      36.736 -23.407 -14.575  0.00  0.00    +0.007 C 
ATOM     25  C   UNL     1      38.221 -25.261 -14.139  0.00  0.00    +0.048 C 
ATOM     26  C   UNL     1      36.432 -25.242 -12.746  0.00  0.00    +0.017 C 
ATOM     27  C   UNL     1      37.596 -23.000 -15.603  0.00  0.00    +0.055 C 
ATOM     28  C   UNL     1      39.090 -24.866 -15.163  0.00  0.00    +0.015 C 
ATOM     29  C   UNL     1      38.754 -23.721 -15.890  0.00  0.00    +0.012 C 
ATOM     30  C   UNL     1      37.218 -26.324 -12.427  0.00  0.00    +0.062 C 
ATOM     31  H   UNL     1      39.017 -26.996 -13.262  0.00  0.00    +0.152 HD
ENDBRANCH  20  24
ENDBRANCH   6  20
TORSDOF 4
ENDMDL
MODEL 2
REMARK VINA RESULT:      -9.5      6.245     12.519
REMARK  Name = 448533
REMARK  4 active torsions:
REMARK  status: ('A' for Active; 'I' for Inactive)
REMARK    1  A    between atoms: N_3  and  C_12
REMARK    2  A    between atoms: C_6  and  C_20
REMARK    3  A    between atoms: C_17  and  C_19
REMARK    4  A    between atoms: C_20  and  C_24
REMARK                            x       y       z     vdW  Elec       q    Type
REMARK                         _______ _______ _______ _____ _____    ______ ____
ROOT
ATOM      1  N   UNL     1      34.385 -15.679 -23.330  0.00  0.00    -0.264 NA
ATOM      2  N   UNL     1      33.629 -13.977 -24.843  0.00  0.00    -0.264 NA
ATOM      3  N   UNL     1      34.388 -17.916 -24.033  0.00  0.00    -0.237 N 
ATOM      4  N   UNL     1      33.642 -16.275 -25.533  0.00  0.00    -0.247 NA
ATOM      5  N   UNL     1      32.911 -14.590 -26.990  0.00  0.00    -0.282 N 
ATOM      6  C   UNL     1      34.109 -14.424 -23.683  0.00  0.00    +0.144 C 
ATOM      7  C   UNL     1      34.125 -16.558 -24.312  0.00  0.00    +0.224 C 
ATOM      8  C   UNL     1      33.418 -14.966 -25.727  0.00  0.00    +0.217 C 
ATOM      9  H   UNL     1      34.182 -18.522 -24.782  0.00  0.00    +0.166 HD
ATOM     10  H   UNL     1      32.728 -13.642 -27.186  0.00  0.00    +0.156 HD
ATOM     11  H   UNL     1      32.739 -15.275 -27.676  0.00  0.00    +0.156 HD
ENDROOT
BRANCH   3  12
ATOM     12  C   UNL     1      34.886 -18.575 -22.893  0.00  0.00    +0.059 C 
ATOM     13  C   UNL     1      36.218 -18.403 -22.512  0.00  0.00    +0.016 C 
ATOM     14  C   UNL     1      34.050 -19.403 -22.142  0.00  0.00    +0.016 C 
ATOM     15  C   UNL     1      36.713 -19.056 -21.383  0.00  0.00    +0.012 C 
ATOM     16  C   UNL     1      34.544 -20.056 -21.013  0.00  0.00    +0.012 C 
ATOM     17  C   UNL     1      35.875 -19.883 -20.633  0.00  0.00    +0.069 C 
BRANCH  17  19
ATOM     18  N   UNL     1      36.792 -21.096 -18.536  0.00  0.00    -0.191 NA
ATOM     19  C   UNL     1      36.381 -20.552 -19.476  0.00  0.00    +0.100 C 
ENDBRANCH  17  19
ENDBRANCH   3  12
BRANCH   6  20
ATOM     20  C   UNL     1      34.377 -13.370 -22.631  0.00  0.00    +0.154 C 
BRANCH  20  24
ATOM     21 CL   UNL     1      32.642 -14.652 -20.474  0.00  0.00    -0.083 Cl
ATOM     22  N   UNL     1      31.622  -9.526 -23.104  0.00  0.00    -0.312 N 
ATOM     23  C   UNL     1      32.841 -11.370 -22.802  0.00  0.00    +0.013 C 
ATOM     24  C   UNL     1      33.153 -12.612 -22.214  0.00  0.00    +0.007 C 
ATOM     25  C   UNL     1      31.692 -10.696 -22.381  0.00  0.00    +0.048 C 
ATOM     26  C   UNL     1      33.456 -10.563 -23.801  0.00  0.00    +0.017 C 
ATOM     27  C   UNL     1      32.306 -13.133 -21.228  0.00  0.00    +0.055 C 
ATOM     28  C   UNL     1      30.836 -11.204 -21.398  0.00  0.00    +0.015 C 
ATOM     29  C   UNL     1      31.166 -12.438 -20.828  0.00  0.00    +0.012 C 
ATOM     30  C   UNL     1      32.684  -9.438 -23.963  0.00  0.00    +0.062 C 
ATOM     31  H   UNL     1      30.910  -8.851 -23.015  0.00  0.00    +0.152 HD
ENDBRANCH  20  24
ENDBRANCH   6  20
TORSDOF 4
ENDMDL
MODEL 3
REMARK VINA RESULT:      -9.5      7.141     13.438
REMARK  Name = 448533
REMARK  4 active torsions:
REMARK  status: ('A' for Active; 'I' for Inactive)
REMARK    1  A    between atoms: N_3  and  C_12
REMARK    2  A    between atoms: C_6  and  C_20
REMARK    3  A    between atoms: C_17  and  C_19
REMARK    4  A    between atoms: C_20  and  C_24
REMARK                            x       y       z     vdW  Elec       q    Type
REMARK                         _______ _______ _______ _____ _____    ______ ____
ROOT
ATOM      1  N   UNL     1      34.067 -14.631 -24.207  0.00  0.00    -0.264 NA
ATOM      2  N   UNL     1      33.315 -12.830 -25.604  0.00  0.00    -0.264 NA
ATOM      3  N   UNL     1      34.004 -16.824 -25.034  0.00  0.00    -0.237 N 
ATOM      4  N   UNL     1      33.260 -15.086 -26.421  0.00  0.00    -0.247 NA
ATOM      5  N   UNL     1      32.534 -13.306 -27.763  0.00  0.00    -0.282 N 
ATOM      6  C   UNL     1      33.811 -13.352 -24.482  0.00  0.00    +0.144 C 
ATOM      7  C   UNL     1      33.765 -15.447 -25.229  0.00  0.00    +0.224 C 
ATOM      8  C   UNL     1      33.061 -13.764 -26.536  0.00  0.00    +0.217 C 
ATOM      9  H   UNL     1      33.768 -17.382 -25.810  0.00  0.00    +0.166 HD
ATOM     10  H   UNL     1      32.368 -12.345 -27.901  0.00  0.00    +0.156 HD
ATOM     11  H   UNL     1      32.330 -13.948 -28.482  0.00  0.00    +0.156 HD
ENDROOT
BRANCH   3  12
ATOM     12  C   UNL     1      34.513 -17.557 -23.945  0.00  0.00    +0.059 C 
ATOM     13  C   UNL     1      34.631 -18.946 -24.030  0.00  0.00    +0.016 C 
ATOM     14  C   UNL     1      34.902 -16.898 -22.778  0.00  0.00    +0.016 C 
ATOM     15  C   UNL     1      35.136 -19.672 -22.951  0.00  0.00    +0.012 C 
ATOM     16  C   UNL     1      35.407 -17.623 -21.699  0.00  0.00    +0.012 C 
ATOM     17  C   UNL     1      35.524 -19.011 -21.786  0.00  0.00    +0.069 C 
BRANCH  17  19
ATOM     18  N   UNL     1      36.462 -20.359 -19.782  0.00  0.00    -0.191 NA
ATOM     19  C   UNL     1      36.041 -19.754 -20.681  0.00  0.00    +0.100 C 
ENDBRANCH  17  19
ENDBRANCH   3  12
BRANCH   6  20
ATOM     20  C   UNL     1      34.127 -12.365 -23.380  0.00  0.00    +0.154 C 
BRANCH  20  24
ATOM     21 CL   UNL     1      32.507 -14.118 -21.479  0.00  0.00    -0.083 Cl
ATOM     22  N   UNL     1      31.295  -8.577 -22.914  0.00  0.00    -0.312 N 
ATOM     23  C   UNL     1      32.554 -10.413 -23.060  0.00  0.00    +0.013 C 
ATOM     24  C   UNL     1      32.911 -11.743 -22.763  0.00  0.00    +0.007 C 
ATOM     25  C   UNL     1      31.414  -9.872 -22.461  0.00  0.00    +0.048 C 
ATOM     26  C   UNL     1      33.113  -9.398 -23.887  0.00  0.00    +0.017 C 
ATOM     27  C   UNL     1      32.115 -12.482 -21.878  0.00  0.00    +0.055 C 
ATOM     28  C   UNL     1      30.610 -10.598 -21.576  0.00  0.00    +0.015 C 
ATOM     29  C   UNL     1      30.983 -11.916 -21.296  0.00  0.00    +0.012 C 
ATOM     30  C   UNL     1      32.317  -8.283 -23.776  0.00  0.00    +0.062 C 
ATOM     31  H   UNL     1      30.577  -7.954 -22.655  0.00  0.00    +0.152 HD
ENDBRANCH  20  24
ENDBRANCH   6  20
TORSDOF 4
ENDMDL
MODEL 4
REMARK VINA RESULT:      -9.4     10.331     14.492
REMARK  Name = 448533
REMARK  4 active torsions:
REMARK  status: ('A' for Active; 'I' for Inactive)
REMARK    1  A    between atoms: N_3  and  C_12
REMARK    2  A    between atoms: C_6  and  C_20
REMARK    3  A    between atoms: C_17  and  C_19
REMARK    4  A    between atoms: C_20  and  C_24
REMARK                            x       y       z     vdW  Elec       q    Type
REMARK                         _______ _______ _______ _____ _____    ______ ____
ROOT
ATOM      1  N   UNL     1      32.050  -9.696 -21.767  0.00  0.00    -0.264 NA
ATOM      2  N   UNL     1      31.534 -11.211 -19.979  0.00  0.00    -0.264 NA
ATOM      3  N   UNL     1      32.814  -7.538 -21.256  0.00  0.00    -0.237 N 
ATOM      4  N   UNL     1      32.316  -8.995 -19.487  0.00  0.00    -0.247 NA
ATOM      5  N   UNL     1      31.805 -10.498 -17.761  0.00  0.00    -0.282 N 
ATOM      6  C   UNL     1      31.646 -10.860 -21.261  0.00  0.00    +0.144 C 
ATOM      7  C   UNL     1      32.371  -8.804 -20.816  0.00  0.00    +0.224 C 
ATOM      8  C   UNL     1      31.889 -10.220 -19.143  0.00  0.00    +0.217 C 
ATOM      9  H   UNL     1      33.038  -6.920 -20.523  0.00  0.00    +0.166 HD
ATOM     10  H   UNL     1      31.498 -11.381 -17.453  0.00  0.00    +0.156 HD
ATOM     11  H   UNL     1      32.054  -9.808 -17.104  0.00  0.00    +0.156 HD
ENDROOT
BRANCH   3  12
ATOM     12  C   UNL     1      32.998  -6.987 -22.538  0.00  0.00    +0.059 C 
ATOM     13  C   UNL     1      34.125  -7.324 -23.290  0.00  0.00    +0.016 C 
ATOM     14  C   UNL     1      32.054  -6.101 -23.061  0.00  0.00    +0.016 C 
ATOM     15  C   UNL     1      34.308  -6.778 -24.560  0.00  0.00    +0.012 C 
ATOM     16  C   UNL     1      32.236  -5.555 -24.331  0.00  0.00    +0.012 C 
ATOM     17  C   UNL     1      33.364  -5.892 -25.081  0.00  0.00    +0.069 C 
BRANCH  17  19
ATOM     18  N   UNL     1      33.702  -4.877 -27.440  0.00  0.00    -0.191 NA
ATOM     19  C   UNL     1      33.550  -5.332 -26.382  0.00  0.00    +0.100 C 
ENDBRANCH  17  19
ENDBRANCH   3  12
BRANCH   6  20
ATOM     20  C   UNL     1      31.267 -11.922 -22.269  0.00  0.00    +0.154 C 
BRANCH  20  24
ATOM     21 CL   UNL     1      33.048 -11.149 -24.622  0.00  0.00    -0.083 Cl
ATOM     22  N   UNL     1      33.615 -15.942 -21.315  0.00  0.00    -0.312 N 
ATOM     23  C   UNL     1      32.586 -14.037 -21.851  0.00  0.00    +0.013 C 
ATOM     24  C   UNL     1      32.386 -12.862 -22.602  0.00  0.00    +0.007 C 
ATOM     25  C   UNL     1      33.643 -14.883 -22.194  0.00  0.00    +0.048 C 
ATOM     26  C   UNL     1      31.926 -14.625 -20.735  0.00  0.00    +0.017 C 
ATOM     27  C   UNL     1      33.249 -12.577 -23.668  0.00  0.00    +0.055 C 
ATOM     28  C   UNL     1      34.513 -14.612 -23.257  0.00  0.00    +0.015 C 
ATOM     29  C   UNL     1      34.295 -13.441 -23.988  0.00  0.00    +0.012 C 
ATOM     30  C   UNL     1      32.581 -15.794 -20.430  0.00  0.00    +0.062 C 
ATOM     31  H   UNL     1      34.248 -16.697 -21.323  0.00  0.00    +0.152 HD
ENDBRANCH  20  24
ENDBRANCH   6  20
TORSDOF 4
ENDMDL
MODEL 5
REMARK VINA RESULT:      -9.4      1.619      2.119
REMARK  Name = 448533
REMARK  4 active torsions:
REMARK  status: ('A' for Active; 'I' for Inactive)
REMARK    1  A    between atoms: N_3  and  C_12
REMARK    2  A    between atoms: C_6  and  C_20
REMARK    3  A    between atoms: C_17  and  C_19
REMARK    4  A    between atoms: C_20  and  C_24
REMARK                            x       y       z     vdW  Elec       q    Type
REMARK                         _______ _______ _______ _____ _____    ______ ____
ROOT
ATOM      1  N   UNL     1      34.555 -22.995 -16.992  0.00  0.00    -0.264 NA
ATOM      2  N   UNL     1      34.138 -24.384 -15.080  0.00  0.00    -0.264 NA
ATOM      3  N   UNL     1      32.739 -22.172 -18.226  0.00  0.00    -0.237 N 
ATOM      4  N   UNL     1      32.300 -23.528 -16.364  0.00  0.00    -0.247 NA
ATOM      5  N   UNL     1      31.924 -24.887 -14.490  0.00  0.00    -0.282 N 
ATOM      6  C   UNL     1      34.918 -23.735 -15.945  0.00  0.00    +0.144 C 
ATOM      7  C   UNL     1      33.221 -22.936 -17.142  0.00  0.00    +0.224 C 
ATOM      8  C   UNL     1      32.831 -24.235 -15.355  0.00  0.00    +0.217 C 
ATOM      9  H   UNL     1      31.756 -22.158 -18.295  0.00  0.00    +0.166 HD
ATOM     10  H   UNL     1      32.261 -25.419 -13.733  0.00  0.00    +0.156 HD
ATOM     11  H   UNL     1      30.955 -24.810 -14.645  0.00  0.00    +0.156 HD
ENDROOT
BRANCH   3  12
ATOM     12  C   UNL     1      33.386 -21.426 -19.229  0.00  0.00    +0.059 C 
ATOM     13  C   UNL     1      34.750 -21.611 -19.468  0.00  0.00    +0.016 C 
ATOM     14  C   UNL     1      32.669 -20.498 -19.986  0.00  0.00    +0.016 C 
ATOM     15  C   UNL     1      35.392 -20.872 -20.462  0.00  0.00    +0.012 C 
ATOM     16  C   UNL     1      33.310 -19.759 -20.979  0.00  0.00    +0.012 C 
ATOM     17  C   UNL     1      34.672 -19.945 -21.217  0.00  0.00    +0.069 C 
BRANCH  17  19
ATOM     18  N   UNL     1      35.864 -18.571 -23.062  0.00  0.00    -0.191 NA
ATOM     19  C   UNL     1      35.330 -19.188 -22.234  0.00  0.00    +0.100 C 
ENDBRANCH  17  19
ENDBRANCH   3  12
BRANCH   6  20
ATOM     20  C   UNL     1      36.407 -23.851 -15.704  0.00  0.00    +0.154 C 
BRANCH  20  24
ATOM     21 CL   UNL     1      36.531 -26.876 -16.079  0.00  0.00    -0.083 Cl
ATOM     22  N   UNL     1      37.547 -23.989 -11.093  0.00  0.00    -0.312 N 
ATOM     23  C   UNL     1      37.018 -24.040 -13.259  0.00  0.00    +0.013 C 
ATOM     24  C   UNL     1      36.760 -24.664 -14.496  0.00  0.00    +0.007 C 
ATOM     25  C   UNL     1      37.346 -24.836 -12.159  0.00  0.00    +0.048 C 
ATOM     26  C   UNL     1      37.031 -22.688 -12.815  0.00  0.00    +0.017 C 
ATOM     27  C   UNL     1      36.838 -26.059 -14.586  0.00  0.00    +0.055 C 
ATOM     28  C   UNL     1      37.428 -26.231 -12.235  0.00  0.00    +0.015 C 
ATOM     29  C   UNL     1      37.167 -26.828 -13.472  0.00  0.00    +0.012 C 
ATOM     30  C   UNL     1      37.359 -22.690 -11.480  0.00  0.00    +0.062 C 
ATOM     31  H   UNL     1      37.791 -24.278 -10.183  0.00  0.00    +0.152 HD
ENDBRANCH  20  24
ENDBRANCH   6  20
TORSDOF 4
ENDMDL
MODEL 6
REMARK VINA RESULT:      -9.1      5.487      9.746
REMARK  Name = 448533
REMARK  4 active torsions:
REMARK  status: ('A' for Active; 'I' for Inactive)
REMARK    1  A    between atoms: N_3  and  C_12
REMARK    2  A    between atoms: C_6  and  C_20
REMARK    3  A    between atoms: C_17  and  C_19
REMARK    4  A    between atoms: C_20  and  C_24
REMARK                            x       y       z     vdW  Elec       q    Type
REMARK                         _______ _______ _______ _____ _____    ______ ____
ROOT
ATOM      1  N   UNL     1      34.180 -15.929 -23.101  0.00  0.00    -0.264 NA
ATOM      2  N   UNL     1      34.820 -18.194 -23.569  0.00  0.00    -0.264 NA
ATOM      3  N   UNL     1      33.486 -14.547 -24.864  0.00  0.00    -0.237 N 
ATOM      4  N   UNL     1      34.106 -16.755 -25.353  0.00  0.00    -0.247 NA
ATOM      5  N   UNL     1      34.736 -18.973 -25.780  0.00  0.00    -0.282 N 
ATOM      6  C   UNL     1      34.611 -17.147 -22.772  0.00  0.00    +0.144 C 
ATOM      7  C   UNL     1      33.947 -15.804 -24.418  0.00  0.00    +0.224 C 
ATOM      8  C   UNL     1      34.546 -17.922 -24.857  0.00  0.00    +0.217 C 
ATOM      9  H   UNL     1      33.328 -14.505 -25.835  0.00  0.00    +0.166 HD
ATOM     10  H   UNL     1      35.057 -19.851 -25.469  0.00  0.00    +0.156 HD
ATOM     11  H   UNL     1      34.549 -18.829 -26.736  0.00  0.00    +0.156 HD
ENDROOT
BRANCH   3  12
ATOM     12  C   UNL     1      33.206 -13.342 -24.192  0.00  0.00    +0.059 C 
ATOM     13  C   UNL     1      32.338 -13.336 -23.098  0.00  0.00    +0.016 C 
ATOM     14  C   UNL     1      33.794 -12.150 -24.618  0.00  0.00    +0.016 C 
ATOM     15  C   UNL     1      32.060 -12.142 -22.433  0.00  0.00    +0.012 C 
ATOM     16  C   UNL     1      33.518 -10.957 -23.953  0.00  0.00    +0.012 C 
ATOM     17  C   UNL     1      32.650 -10.952 -22.860  0.00  0.00    +0.069 C 
BRANCH  17  19
ATOM     18  N   UNL     1      32.135  -8.734 -21.625  0.00  0.00    -0.191 NA
ATOM     19  C   UNL     1      32.366  -9.729 -22.179  0.00  0.00    +0.100 C 
ENDBRANCH  17  19
ENDBRANCH   3  12
BRANCH   6  20
ATOM     20  C   UNL     1      34.895 -17.370 -21.303  0.00  0.00    +0.154 C 
BRANCH  20  24
ATOM     21 CL   UNL     1      31.882 -17.706 -20.961  0.00  0.00    -0.083 Cl
ATOM     22  N   UNL     1      35.940 -21.761 -19.815  0.00  0.00    -0.312 N 
ATOM     23  C   UNL     1      35.337 -19.724 -20.495  0.00  0.00    +0.013 C 
ATOM     24  C   UNL     1      34.420 -18.697 -20.793  0.00  0.00    +0.007 C 
ATOM     25  C   UNL     1      34.851 -20.945 -20.025  0.00  0.00    +0.048 C 
ATOM     26  C   UNL     1      36.755 -19.836 -20.560  0.00  0.00    +0.017 C 
ATOM     27  C   UNL     1      33.051 -18.930 -20.610  0.00  0.00    +0.055 C 
ATOM     28  C   UNL     1      33.487 -21.193 -19.837  0.00  0.00    +0.015 C 
ATOM     29  C   UNL     1      32.595 -20.160 -20.139  0.00  0.00    +0.012 C 
ATOM     30  C   UNL     1      37.094 -21.098 -20.136  0.00  0.00    +0.062 C 
ATOM     31  H   UNL     1      35.895 -22.686 -19.482  0.00  0.00    +0.152 HD
ENDBRANCH  20  24
ENDBRANCH   6  20
TORSDOF 4
ENDMDL
MODEL 7
REMARK VINA RESULT:      -9.1      1.696      2.401
REMARK  Name = 448533
REMARK  4 active torsions:
REMARK  status: ('A' for Active; 'I' for Inactive)
REMARK    1  A    between atoms: N_3  and  C_12
REMARK    2  A    between atoms: C_6  and  C_20
REMARK    3  A    between atoms: C_17  and  C_19
REMARK    4  A    between atoms: C_20  and  C_24
REMARK                            x       y       z     vdW  Elec       q    Type
REMARK                         _______ _______ _______ _____ _____    ______ ____
ROOT
ATOM      1  N   UNL     1      33.901 -23.098 -15.310  0.00  0.00    -0.264 NA
ATOM      2  N   UNL     1      33.070 -24.253 -13.378  0.00  0.00    -0.264 NA
ATOM      3  N   UNL     1      32.666 -23.163 -17.302  0.00  0.00    -0.237 N 
ATOM      4  N   UNL     1      31.829 -24.303 -15.432  0.00  0.00    -0.247 NA
ATOM      5  N   UNL     1      31.042 -25.421 -13.527  0.00  0.00    -0.282 N 
ATOM      6  C   UNL     1      33.949 -23.500 -14.040  0.00  0.00    +0.144 C 
ATOM      7  C   UNL     1      32.807 -23.540 -15.950  0.00  0.00    +0.224 C 
ATOM      8  C   UNL     1      32.029 -24.621 -14.143  0.00  0.00    +0.217 C 
ATOM      9  H   UNL     1      31.849 -23.510 -17.728  0.00  0.00    +0.166 HD
ATOM     10  H   UNL     1      31.139 -25.684 -12.583  0.00  0.00    +0.156 HD
ATOM     11  H   UNL     1      30.257 -25.718 -14.042  0.00  0.00    +0.156 HD
ENDROOT
BRANCH   3  12
ATOM     12  C   UNL     1      33.466 -22.387 -18.163  0.00  0.00    +0.059 C 
ATOM     13  C   UNL     1      34.858 -22.478 -18.096  0.00  0.00    +0.016 C 
ATOM     14  C   UNL     1      32.871 -21.524 -19.084  0.00  0.00    +0.016 C 
ATOM     15  C   UNL     1      35.651 -21.710 -18.948  0.00  0.00    +0.012 C 
ATOM     16  C   UNL     1      33.663 -20.756 -19.937  0.00  0.00    +0.012 C 
ATOM     17  C   UNL     1      35.054 -20.849 -19.868  0.00  0.00    +0.069 C 
BRANCH  17  19
ATOM     18  N   UNL     1      36.526 -19.421 -21.452  0.00  0.00    -0.191 NA
ATOM     19  C   UNL     1      35.866 -20.061 -20.742  0.00  0.00    +0.100 C 
ENDBRANCH  17  19
ENDBRANCH   3  12
BRANCH   6  20
ATOM     20  C   UNL     1      35.153 -23.041 -13.248  0.00  0.00    +0.154 C 
BRANCH  20  24
ATOM     21 CL   UNL     1      35.415 -25.166 -11.075  0.00  0.00    -0.083 Cl
ATOM     22  N   UNL     1      39.069 -24.390 -15.578  0.00  0.00    -0.312 N 
ATOM     23  C   UNL     1      37.252 -23.841 -14.406  0.00  0.00    +0.013 C 
ATOM     24  C   UNL     1      36.328 -23.966 -13.350  0.00  0.00    +0.007 C 
ATOM     25  C   UNL     1      38.331 -24.725 -14.465  0.00  0.00    +0.048 C 
ATOM     26  C   UNL     1      37.368 -22.966 -15.524  0.00  0.00    +0.017 C 
ATOM     27  C   UNL     1      36.518 -24.969 -12.391  0.00  0.00    +0.055 C 
ATOM     28  C   UNL     1      38.535 -25.732 -13.514  0.00  0.00    +0.015 C 
ATOM     29  C   UNL     1      37.606 -25.837 -12.475  0.00  0.00    +0.012 C 
ATOM     30  C   UNL     1      38.494 -23.329 -16.224  0.00  0.00    +0.062 C 
ATOM     31  H   UNL     1      39.891 -24.849 -15.867  0.00  0.00    +0.152 HD
ENDBRANCH  20  24
ENDBRANCH   6  20
TORSDOF 4
ENDMDL
MODEL 8
REMARK VINA RESULT:      -9.1     10.233     14.075
REMARK  Name = 448533
REMARK  4 active torsions:
REMARK  status: ('A' for Active; 'I' for Inactive)
REMARK    1  A    between atoms: N_3  and  C_12
REMARK    2  A    between atoms: C_6  and  C_20
REMARK    3  A    between atoms: C_17  and  C_19
REMARK    4  A    between atoms: C_20  and  C_24
REMARK                            x       y       z     vdW  Elec       q    Type
REMARK                         _______ _______ _______ _____ _____    ______ ____
ROOT
ATOM      1  N   UNL     1      32.084 -11.981 -21.687  0.00  0.00    -0.264 NA
ATOM      2  N   UNL     1      31.157 -10.213 -20.355  0.00  0.00    -0.264 NA
ATOM      3  N   UNL     1      32.750 -13.972 -20.644  0.00  0.00    -0.237 N 
ATOM      4  N   UNL     1      31.849 -12.263 -19.315  0.00  0.00    -0.247 NA
ATOM      5  N   UNL     1      30.938 -10.519 -18.040  0.00  0.00    -0.282 N 
ATOM      6  C   UNL     1      31.557 -10.771 -21.498  0.00  0.00    +0.144 C 
ATOM      7  C   UNL     1      32.202 -12.676 -20.544  0.00  0.00    +0.224 C 
ATOM      8  C   UNL     1      31.335 -11.023 -19.298  0.00  0.00    +0.217 C 
ATOM      9  H   UNL     1      32.816 -14.443 -19.781  0.00  0.00    +0.166 HD
ATOM     10  H   UNL     1      30.555  -9.614 -17.970  0.00  0.00    +0.156 HD
ATOM     11  H   UNL     1      31.046 -11.071 -17.232  0.00  0.00    +0.156 HD
ENDROOT
BRANCH   3  12
ATOM     12  C   UNL     1      33.221 -14.726 -21.736  0.00  0.00    +0.059 C 
ATOM     13  C   UNL     1      33.940 -15.903 -21.516  0.00  0.00    +0.016 C 
ATOM     14  C   UNL     1      32.973 -14.298 -23.041  0.00  0.00    +0.016 C 
ATOM     15  C   UNL     1      34.406 -16.650 -22.598  0.00  0.00    +0.012 C 
ATOM     16  C   UNL     1      33.439 -15.044 -24.123  0.00  0.00    +0.012 C 
ATOM     17  C   UNL     1      34.157 -16.220 -23.901  0.00  0.00    +0.069 C 
BRANCH  17  19
ATOM     18  N   UNL     1      35.023 -17.607 -25.911  0.00  0.00    -0.191 NA
ATOM     19  C   UNL     1      34.635 -16.985 -25.009  0.00  0.00    +0.100 C 
ENDBRANCH  17  19
ENDBRANCH   3  12
BRANCH   6  20
ATOM     20  C   UNL     1      31.388  -9.924 -22.739  0.00  0.00    +0.154 C 
BRANCH  20  24
ATOM     21 CL   UNL     1      31.793  -7.107 -21.641  0.00  0.00    -0.083 Cl
ATOM     22  N   UNL     1      35.449  -9.961 -25.207  0.00  0.00    -0.312 N 
ATOM     23  C   UNL     1      33.568  -9.835 -24.014  0.00  0.00    +0.013 C 
ATOM     24  C   UNL     1      32.639  -9.213 -23.157  0.00  0.00    +0.007 C 
ATOM     25  C   UNL     1      34.722  -9.138 -24.377  0.00  0.00    +0.048 C 
ATOM     26  C   UNL     1      33.629 -11.105 -24.656  0.00  0.00    +0.017 C 
ATOM     27  C   UNL     1      32.899  -7.917 -22.695  0.00  0.00    +0.055 C 
ATOM     28  C   UNL     1      34.995  -7.842 -23.923  0.00  0.00    +0.015 C 
ATOM     29  C   UNL     1      34.059  -7.244 -23.074  0.00  0.00    +0.012 C 
ATOM     30  C   UNL     1      34.796 -11.151 -25.381  0.00  0.00    +0.062 C 
ATOM     31  H   UNL     1      36.313  -9.726 -25.617  0.00  0.00    +0.152 HD
ENDBRANCH  20  24
ENDBRANCH   6  20
TORSDOF 4
ENDMDL
MODEL 9
REMARK VINA RESULT:      -9.1      1.625      7.273
REMARK  Name = 448533
REMARK  4 active torsions:
REMARK  status: ('A' for Active; 'I' for Inactive)
REMARK    1  A    between atoms: N_3  and  C_12
REMARK    2  A    between atoms: C_6  and  C_20
REMARK    3  A    between atoms: C_17  and  C_19
REMARK    4  A    between atoms: C_20  and  C_24
REMARK                            x       y       z     vdW  Elec       q    Type
REMARK                         _______ _______ _______ _____ _____    ______ ____
ROOT
ATOM      1  N   UNL     1      34.493 -23.432 -17.270  0.00  0.00    -0.264 NA
ATOM      2  N   UNL     1      32.460 -22.548 -18.188  0.00  0.00    -0.264 NA
ATOM      3  N   UNL     1      34.561 -24.027 -15.003  0.00  0.00    -0.237 N 
ATOM      4  N   UNL     1      32.561 -23.164 -15.871  0.00  0.00    -0.247 NA
ATOM      5  N   UNL     1      30.588 -22.300 -16.797  0.00  0.00    -0.282 N 
ATOM      6  C   UNL     1      33.732 -22.940 -18.248  0.00  0.00    +0.144 C 
ATOM      7  C   UNL     1      33.837 -23.516 -16.101  0.00  0.00    +0.224 C 
ATOM      8  C   UNL     1      31.935 -22.689 -16.959  0.00  0.00    +0.217 C 
ATOM      9  H   UNL     1      34.039 -24.070 -14.169  0.00  0.00    +0.166 HD
ATOM     10  H   UNL     1      30.082 -21.943 -17.563  0.00  0.00    +0.156 HD
ATOM     11  H   UNL     1      30.154 -22.383 -15.917  0.00  0.00    +0.156 HD
ENDROOT
BRANCH   3  12
ATOM     12  C   UNL     1      35.884 -24.488 -14.866  0.00  0.00    +0.059 C 
ATOM     13  C   UNL     1      36.187 -25.830 -15.108  0.00  0.00    +0.016 C 
ATOM     14  C   UNL     1      36.897 -23.605 -14.487  0.00  0.00    +0.016 C 
ATOM     15  C   UNL     1      37.498 -26.286 -14.972  0.00  0.00    +0.012 C 
ATOM     16  C   UNL     1      38.208 -24.062 -14.352  0.00  0.00    +0.012 C 
ATOM     17  C   UNL     1      38.508 -25.402 -14.594  0.00  0.00    +0.069 C 
BRANCH  17  19
ATOM     18  N   UNL     1      40.944 -26.250 -14.342  0.00  0.00    -0.191 NA
ATOM     19  C   UNL     1      39.851 -25.870 -14.455  0.00  0.00    +0.100 C 
ENDBRANCH  17  19
ENDBRANCH   3  12
BRANCH   6  20
ATOM     20  C   UNL     1      34.397 -22.816 -19.601  0.00  0.00    +0.154 C 
BRANCH  20  24
ATOM     21 CL   UNL     1      37.331 -22.276 -18.963  0.00  0.00    -0.083 Cl
ATOM     22  N   UNL     1      33.546 -18.432 -21.225  0.00  0.00    -0.312 N 
ATOM     23  C   UNL     1      34.055 -20.457 -20.441  0.00  0.00    +0.013 C 
ATOM     24  C   UNL     1      34.907 -21.437 -19.896  0.00  0.00    +0.007 C 
ATOM     25  C   UNL     1      34.572 -19.186 -20.703  0.00  0.00    +0.048 C 
ATOM     26  C   UNL     1      32.684 -20.437 -20.825  0.00  0.00    +0.017 C 
ATOM     27  C   UNL     1      36.243 -21.111 -19.632  0.00  0.00    +0.055 C 
ATOM     28  C   UNL     1      35.905 -18.845 -20.445  0.00  0.00    +0.015 C 
ATOM     29  C   UNL     1      36.731 -19.834 -19.903  0.00  0.00    +0.012 C 
ATOM     30  C   UNL     1      32.402 -19.179 -21.303  0.00  0.00    +0.062 C 
ATOM     31  H   UNL     1      33.624 -17.490 -21.502  0.00  0.00    +0.152 HD
ENDBRANCH  20  24
ENDBRANCH   6  20
TORSDOF 4
ENDMDL
