MODEL 1
REMARK VINA RESULT:     -10.2      0.000      0.000
REMARK  Name = 15604015
REMARK  4 active torsions:
REMARK  status: ('A' for Active; 'I' for Inactive)
REMARK    1  A    between atoms: C_1  and  C_12
REMARK    2  A    between atoms: C_2  and  C_20
REMARK    3  A    between atoms: N_19  and  C_22
REMARK    4  A    between atoms: C_22  and  C_24
REMARK                            x       y       z     vdW  Elec       q    Type
REMARK                         _______ _______ _______ _____ _____    ______ ____
ROOT
ATOM      1  C   UNL     1      34.160 -16.905 -22.017  0.00  0.00    +0.019 C 
ATOM      2  C   UNL     1      34.237 -19.333 -21.222  0.00  0.00    +0.069 C 
ATOM      3  C   UNL     1      34.847 -18.798 -23.601  0.00  0.00    +0.001 C 
ATOM      4  C   UNL     1      36.389 -18.121 -21.737  0.00  0.00    +0.001 C 
ATOM      5  C   UNL     1      33.502 -17.983 -21.106  0.00  0.00    +0.013 C 
ATOM      6  C   UNL     1      34.117 -17.450 -23.477  0.00  0.00    +0.004 C 
ATOM      7  C   UNL     1      35.659 -16.771 -21.620  0.00  0.00    +0.004 C 
ATOM      8  C   UNL     1      34.174 -19.824 -22.678  0.00  0.00    +0.009 C 
ATOM      9  C   UNL     1      35.710 -19.145 -20.812  0.00  0.00    +0.009 C 
ATOM     10  C   UNL     1      36.313 -18.619 -23.186  0.00  0.00    +0.000 C 
ENDROOT
BRANCH   1  12
ATOM     11 CL   UNL     1      31.345 -11.598 -21.309  0.00  0.00    -0.082 Cl
ATOM     12  C   UNL     1      33.445 -15.556 -21.837  0.00  0.00    -0.023 C 
ATOM     13  C   UNL     1      33.124 -15.101 -20.557  0.00  0.00    -0.003 C 
ATOM     14  C   UNL     1      33.117 -14.786 -22.952  0.00  0.00    -0.003 C 
ATOM     15  C   UNL     1      32.475 -13.878 -20.394  0.00  0.00    +0.011 C 
ATOM     16  C   UNL     1      32.467 -13.561 -22.789  0.00  0.00    +0.011 C 
ATOM     17  C   UNL     1      32.146 -13.108 -21.510  0.00  0.00    +0.058 C 
ENDBRANCH   1  12
BRANCH   2  20
ATOM     18  O   UNL     1      32.376 -20.336 -20.106  0.00  0.00    -0.275 OA
ATOM     19  N   UNL     1      34.495 -21.254 -19.810  0.00  0.00    -0.300 N 
ATOM     20  C   UNL     1      33.583 -20.353 -20.332  0.00  0.00    +0.222 C 
ATOM     21  H   UNL     1      35.441 -21.165 -20.066  0.00  0.00    +0.150 HD
BRANCH  19  22
ATOM     22  C   UNL     1      34.124 -22.319 -18.907  0.00  0.00    +0.116 C 
BRANCH  22  24
ATOM     23  N   UNL     1      36.786 -22.586 -15.558  0.00  0.00    -0.242 NA
ATOM     24  C   UNL     1      35.057 -22.413 -17.734  0.00  0.00    +0.001 C 
ATOM     25  C   UNL     1      34.641 -23.044 -16.573  0.00  0.00    +0.018 C 
ATOM     26  C   UNL     1      36.327 -21.868 -17.821  0.00  0.00    +0.018 C 
ATOM     27  C   UNL     1      35.538 -23.104 -15.520  0.00  0.00    +0.099 C 
ATOM     28  C   UNL     1      37.150 -21.980 -16.711  0.00  0.00    +0.099 C 
ENDBRANCH  22  24
ENDBRANCH  19  22
ENDBRANCH   2  20
TORSDOF 4
ENDMDL
MODEL 2
REMARK VINA RESULT:      -9.8      4.467      9.415
REMARK  Name = 15604015
REMARK  4 active torsions:
REMARK  status: ('A' for Active; 'I' for Inactive)
REMARK    1  A    between atoms: C_1  and  C_12
REMARK    2  A    between atoms: C_2  and  C_20
REMARK    3  A    between atoms: N_19  and  C_22
REMARK    4  A    between atoms: C_22  and  C_24
REMARK                            x       y       z     vdW  Elec       q    Type
REMARK                         _______ _______ _______ _____ _____    ______ ____
ROOT
ATOM      1  C   UNL     1      34.288 -24.098 -14.395  0.00  0.00    +0.019 C 
ATOM      2  C   UNL     1      36.497 -23.156 -15.271  0.00  0.00    +0.069 C 
ATOM      3  C   UNL     1      36.207 -23.513 -12.800  0.00  0.00    +0.001 C 
ATOM      4  C   UNL     1      36.426 -25.494 -14.328  0.00  0.00    +0.001 C 
ATOM      5  C   UNL     1      34.966 -23.181 -15.455  0.00  0.00    +0.013 C 
ATOM      6  C   UNL     1      34.682 -23.543 -12.991  0.00  0.00    +0.004 C 
ATOM      7  C   UNL     1      34.898 -25.525 -14.512  0.00  0.00    +0.004 C 
ATOM      8  C   UNL     1      36.833 -22.611 -13.874  0.00  0.00    +0.009 C 
ATOM      9  C   UNL     1      37.047 -24.588 -15.404  0.00  0.00    +0.009 C 
ATOM     10  C   UNL     1      36.763 -24.936 -12.940  0.00  0.00    +0.000 C 
ENDROOT
BRANCH   1  12
ATOM     11 CL   UNL     1      28.320 -24.313 -15.352  0.00  0.00    -0.082 Cl
ATOM     12  C   UNL     1      32.771 -24.152 -14.637  0.00  0.00    -0.023 C 
ATOM     13  C   UNL     1      31.971 -25.002 -13.872  0.00  0.00    -0.003 C 
ATOM     14  C   UNL     1      32.193 -23.352 -15.623  0.00  0.00    -0.003 C 
ATOM     15  C   UNL     1      30.595 -25.051 -14.093  0.00  0.00    +0.011 C 
ATOM     16  C   UNL     1      30.816 -23.402 -15.844  0.00  0.00    +0.011 C 
ATOM     17  C   UNL     1      30.018 -24.251 -15.079  0.00  0.00    +0.058 C 
ENDBRANCH   1  12
BRANCH   2  20
ATOM     18  O   UNL     1      38.150 -21.630 -16.081  0.00  0.00    -0.275 OA
ATOM     19  N   UNL     1      36.403 -22.251 -17.490  0.00  0.00    -0.300 N 
ATOM     20  C   UNL     1      37.124 -22.267 -16.309  0.00  0.00    +0.222 C 
ATOM     21  H   UNL     1      35.594 -22.807 -17.552  0.00  0.00    +0.150 HD
BRANCH  19  22
ATOM     22  C   UNL     1      36.783 -21.458 -18.637  0.00  0.00    +0.116 C 
BRANCH  22  24
ATOM     23  N   UNL     1      33.382 -20.225 -20.934  0.00  0.00    -0.242 NA
ATOM     24  C   UNL     1      35.592 -21.026 -19.442  0.00  0.00    +0.001 C 
ATOM     25  C   UNL     1      35.745 -20.083 -20.444  0.00  0.00    +0.018 C 
ATOM     26  C   UNL     1      34.348 -21.575 -19.176  0.00  0.00    +0.018 C 
ATOM     27  C   UNL     1      34.615 -19.718 -21.158  0.00  0.00    +0.099 C 
ATOM     28  C   UNL     1      33.280 -21.143 -19.947  0.00  0.00    +0.099 C 
ENDBRANCH  22  24
ENDBRANCH  19  22
ENDBRANCH   2  20
TORSDOF 4
ENDMDL
MODEL 3
REMARK VINA RESULT:      -9.3      7.602     11.549
REMARK  Name = 15604015
REMARK  4 active torsions:
REMARK  status: ('A' for Active; 'I' for Inactive)
REMARK    1  A    between atoms: C_1  and  C_12
REMARK    2  A    between atoms: C_2  and  C_20
REMARK    3  A    between atoms: N_19  and  C_22
REMARK    4  A    between atoms: C_22  and  C_24
REMARK                            x       y       z     vdW  Elec       q    Type
REMARK                         _______ _______ _______ _____ _____    ______ ____
ROOT
ATOM      1  C   UNL     1      32.376  -6.034 -24.397  0.00  0.00    +0.019 C 
ATOM      2  C   UNL     1      33.152  -8.330 -23.585  0.00  0.00    +0.069 C 
ATOM      3  C   UNL     1      32.499  -6.586 -21.897  0.00  0.00    +0.001 C 
ATOM      4  C   UNL     1      30.733  -7.667 -23.319  0.00  0.00    +0.001 C 
ATOM      5  C   UNL     1      33.338  -7.231 -24.650  0.00  0.00    +0.013 C 
ATOM      6  C   UNL     1      32.681  -5.495 -22.965  0.00  0.00    +0.004 C 
ATOM      7  C   UNL     1      30.914  -6.570 -24.383  0.00  0.00    +0.004 C 
ATOM      8  C   UNL     1      33.456  -7.749 -22.194  0.00  0.00    +0.009 C 
ATOM      9  C   UNL     1      31.695  -8.828 -23.620  0.00  0.00    +0.009 C 
ATOM     10  C   UNL     1      31.051  -7.092 -21.933  0.00  0.00    +0.000 C 
ENDROOT
BRANCH   1  12
ATOM     11 CL   UNL     1      33.026  -1.891 -28.755  0.00  0.00    -0.082 Cl
ATOM     12  C   UNL     1      32.540  -4.981 -25.505  0.00  0.00    -0.023 C 
ATOM     13  C   UNL     1      33.516  -5.150 -26.488  0.00  0.00    -0.003 C 
ATOM     14  C   UNL     1      31.715  -3.857 -25.528  0.00  0.00    -0.003 C 
ATOM     15  C   UNL     1      33.666  -4.195 -27.493  0.00  0.00    +0.011 C 
ATOM     16  C   UNL     1      31.866  -2.901 -26.533  0.00  0.00    +0.011 C 
ATOM     17  C   UNL     1      32.841  -3.070 -27.515  0.00  0.00    +0.058 C 
ENDBRANCH   1  12
BRANCH   2  20
ATOM     18  O   UNL     1      35.308  -9.310 -23.921  0.00  0.00    -0.275 OA
ATOM     19  N   UNL     1      33.421 -10.670 -24.036  0.00  0.00    -0.300 N 
ATOM     20  C   UNL     1      34.091  -9.473 -23.855  0.00  0.00    +0.222 C 
ATOM     21  H   UNL     1      32.440 -10.674 -23.958  0.00  0.00    +0.150 HD
BRANCH  19  22
ATOM     22  C   UNL     1      34.093 -11.915 -24.331  0.00  0.00    +0.116 C 
BRANCH  22  24
ATOM     23  N   UNL     1      32.725 -15.112 -21.826  0.00  0.00    -0.242 NA
ATOM     24  C   UNL     1      33.613 -13.035 -23.453  0.00  0.00    +0.001 C 
ATOM     25  C   UNL     1      32.630 -12.795 -22.508  0.00  0.00    +0.018 C 
ATOM     26  C   UNL     1      34.158 -14.301 -23.596  0.00  0.00    +0.018 C 
ATOM     27  C   UNL     1      32.222 -13.862 -21.724  0.00  0.00    +0.099 C 
ATOM     28  C   UNL     1      33.682 -15.300 -22.763  0.00  0.00    +0.099 C 
ENDBRANCH  22  24
ENDBRANCH  19  22
ENDBRANCH   2  20
TORSDOF 4
ENDMDL
MODEL 4
REMARK VINA RESULT:      -8.9      8.381     12.275
REMARK  Name = 15604015
REMARK  4 active torsions:
REMARK  status: ('A' for Active; 'I' for Inactive)
REMARK    1  A    between atoms: C_1  and  C_12
REMARK    2  A    between atoms: C_2  and  C_20
REMARK    3  A    between atoms: N_19  and  C_22
REMARK    4  A    between atoms: C_22  and  C_24
REMARK                            x       y       z     vdW  Elec       q    Type
REMARK                         _______ _______ _______ _____ _____    ______ ____
ROOT
ATOM      1  C   UNL     1      32.408  -5.874 -24.586  0.00  0.00    +0.019 C 
ATOM      2  C   UNL     1      33.055  -8.121 -23.555  0.00  0.00    +0.069 C 
ATOM      3  C   UNL     1      32.192  -6.289 -22.066  0.00  0.00    +0.001 C 
ATOM      4  C   UNL     1      30.627  -7.448 -23.652  0.00  0.00    +0.001 C 
ATOM      5  C   UNL     1      33.389  -7.081 -24.643  0.00  0.00    +0.013 C 
ATOM      6  C   UNL     1      32.522  -5.257 -23.158  0.00  0.00    +0.004 C 
ATOM      7  C   UNL     1      30.955  -6.410 -24.739  0.00  0.00    +0.004 C 
ATOM      8  C   UNL     1      33.174  -7.465 -22.169  0.00  0.00    +0.009 C 
ATOM      9  C   UNL     1      31.613  -8.622 -23.758  0.00  0.00    +0.009 C 
ATOM     10  C   UNL     1      30.759  -6.798 -22.269  0.00  0.00    +0.000 C 
ENDROOT
BRANCH   1  12
ATOM     11 CL   UNL     1      33.658  -1.975 -29.038  0.00  0.00    -0.082 Cl
ATOM     12  C   UNL     1      32.727  -4.882 -25.717  0.00  0.00    -0.023 C 
ATOM     13  C   UNL     1      31.965  -3.722 -25.863  0.00  0.00    -0.003 C 
ATOM     14  C   UNL     1      33.775  -5.143 -26.599  0.00  0.00    -0.003 C 
ATOM     15  C   UNL     1      32.253  -2.823 -26.889  0.00  0.00    +0.011 C 
ATOM     16  C   UNL     1      34.063  -4.243 -27.626  0.00  0.00    +0.011 C 
ATOM     17  C   UNL     1      33.303  -3.084 -27.771  0.00  0.00    +0.058 C 
ENDBRANCH   1  12
BRANCH   2  20
ATOM     18  O   UNL     1      35.221  -9.106 -23.800  0.00  0.00    -0.275 OA
ATOM     19  N   UNL     1      33.374 -10.497 -23.525  0.00  0.00    -0.300 N 
ATOM     20  C   UNL     1      34.015  -9.276 -23.635  0.00  0.00    +0.222 C 
ATOM     21  H   UNL     1      32.399 -10.506 -23.393  0.00  0.00    +0.150 HD
BRANCH  19  22
ATOM     22  C   UNL     1      34.070 -11.763 -23.593  0.00  0.00    +0.116 C 
BRANCH  22  24
ATOM     23  N   UNL     1      32.948 -14.028 -27.054  0.00  0.00    -0.242 NA
ATOM     24  C   UNL     1      33.677 -12.556 -24.805  0.00  0.00    +0.001 C 
ATOM     25  C   UNL     1      33.206 -13.850 -24.657  0.00  0.00    +0.018 C 
ATOM     26  C   UNL     1      33.788 -11.988 -26.064  0.00  0.00    +0.018 C 
ATOM     27  C   UNL     1      32.857 -14.540 -25.806  0.00  0.00    +0.099 C 
ATOM     28  C   UNL     1      33.413 -12.762 -27.151  0.00  0.00    +0.099 C 
ENDBRANCH  22  24
ENDBRANCH  19  22
ENDBRANCH   2  20
TORSDOF 4
ENDMDL
MODEL 5
REMARK VINA RESULT:      -8.4      2.263      3.599
REMARK  Name = 15604015
REMARK  4 active torsions:
REMARK  status: ('A' for Active; 'I' for Inactive)
REMARK    1  A    between atoms: C_1  and  C_12
REMARK    2  A    between atoms: C_2  and  C_20
REMARK    3  A    between atoms: N_19  and  C_22
REMARK    4  A    between atoms: C_22  and  C_24
REMARK                            x       y       z     vdW  Elec       q    Type
REMARK                         _______ _______ _______ _____ _____    ______ ____
ROOT
ATOM      1  C   UNL     1      33.674 -15.208 -22.625  0.00  0.00    +0.019 C 
ATOM      2  C   UNL     1      34.277 -17.417 -21.488  0.00  0.00    +0.069 C 
ATOM      3  C   UNL     1      34.772 -15.253 -20.309  0.00  0.00    +0.001 C 
ATOM      4  C   UNL     1      32.392 -16.016 -20.567  0.00  0.00    +0.001 C 
ATOM      5  C   UNL     1      34.183 -16.665 -22.830  0.00  0.00    +0.013 C 
ATOM      6  C   UNL     1      34.671 -14.508 -21.650  0.00  0.00    +0.004 C 
ATOM      7  C   UNL     1      32.294 -15.264 -21.906  0.00  0.00    +0.004 C 
ATOM      8  C   UNL     1      35.262 -16.686 -20.562  0.00  0.00    +0.009 C 
ATOM      9  C   UNL     1      32.886 -17.449 -20.826  0.00  0.00    +0.009 C 
ATOM     10  C   UNL     1      33.387 -15.295 -19.649  0.00  0.00    +0.000 C 
ENDROOT
BRANCH   1  12
ATOM     11 CL   UNL     1      33.119 -12.428 -27.967  0.00  0.00    -0.082 Cl
ATOM     12  C   UNL     1      33.534 -14.502 -23.983  0.00  0.00    -0.023 C 
ATOM     13  C   UNL     1      33.690 -13.118 -24.069  0.00  0.00    -0.003 C 
ATOM     14  C   UNL     1      33.250 -15.244 -25.129  0.00  0.00    -0.003 C 
ATOM     15  C   UNL     1      33.562 -12.477 -25.300  0.00  0.00    +0.011 C 
ATOM     16  C   UNL     1      33.121 -14.602 -26.362  0.00  0.00    +0.011 C 
ATOM     17  C   UNL     1      33.277 -13.219 -26.447  0.00  0.00    +0.058 C 
ENDBRANCH   1  12
BRANCH   2  20
ATOM     18  O   UNL     1      34.513 -19.435 -22.750  0.00  0.00    -0.275 OA
ATOM     19  N   UNL     1      35.491 -19.304 -20.641  0.00  0.00    -0.300 N 
ATOM     20  C   UNL     1      34.767 -18.820 -21.717  0.00  0.00    +0.222 C 
ATOM     21  H   UNL     1      35.630 -18.714 -19.866  0.00  0.00    +0.150 HD
BRANCH  19  22
ATOM     22  C   UNL     1      36.054 -20.634 -20.602  0.00  0.00    +0.116 C 
BRANCH  22  24
ATOM     23  N   UNL     1      34.753 -22.828 -17.157  0.00  0.00    -0.242 NA
ATOM     24  C   UNL     1      35.598 -21.403 -19.396  0.00  0.00    +0.001 C 
ATOM     25  C   UNL     1      34.312 -21.916 -19.352  0.00  0.00    +0.018 C 
ATOM     26  C   UNL     1      36.467 -21.593 -18.334  0.00  0.00    +0.018 C 
ATOM     27  C   UNL     1      33.940 -22.618 -18.217  0.00  0.00    +0.099 C 
ATOM     28  C   UNL     1      35.999 -22.309 -17.243  0.00  0.00    +0.099 C 
ENDBRANCH  22  24
ENDBRANCH  19  22
ENDBRANCH   2  20
TORSDOF 4
ENDMDL
MODEL 6
REMARK VINA RESULT:      -7.9      9.046     14.586
REMARK  Name = 15604015
REMARK  4 active torsions:
REMARK  status: ('A' for Active; 'I' for Inactive)
REMARK    1  A    between atoms: C_1  and  C_12
REMARK    2  A    between atoms: C_2  and  C_20
REMARK    3  A    between atoms: N_19  and  C_22
REMARK    4  A    between atoms: C_22  and  C_24
REMARK                            x       y       z     vdW  Elec       q    Type
REMARK                         _______ _______ _______ _____ _____    ______ ____
ROOT
ATOM      1  C   UNL     1      32.151  -9.012 -22.875  0.00  0.00    +0.019 C 
ATOM      2  C   UNL     1      32.933  -6.861 -24.014  0.00  0.00    +0.069 C 
ATOM      3  C   UNL     1      30.524  -7.083 -23.329  0.00  0.00    +0.001 C 
ATOM      4  C   UNL     1      32.301  -6.819 -21.573  0.00  0.00    +0.001 C 
ATOM      5  C   UNL     1      33.093  -8.393 -23.948  0.00  0.00    +0.013 C 
ATOM      6  C   UNL     1      30.693  -8.610 -23.259  0.00  0.00    +0.004 C 
ATOM      7  C   UNL     1      32.462  -8.348 -21.501  0.00  0.00    +0.004 C 
ATOM      8  C   UNL     1      31.482  -6.517 -24.387  0.00  0.00    +0.009 C 
ATOM      9  C   UNL     1      33.260  -6.257 -22.635  0.00  0.00    +0.009 C 
ATOM     10  C   UNL     1      30.857  -6.475 -21.960  0.00  0.00    +0.000 C 
ENDROOT
BRANCH   1  12
ATOM     11 CL   UNL     1      33.028 -14.987 -22.539  0.00  0.00    -0.082 Cl
ATOM     12  C   UNL     1      32.374 -10.530 -22.789  0.00  0.00    -0.023 C 
ATOM     13  C   UNL     1      33.239 -11.160 -23.685  0.00  0.00    -0.003 C 
ATOM     14  C   UNL     1      31.712 -11.279 -21.816  0.00  0.00    -0.003 C 
ATOM     15  C   UNL     1      33.441 -12.538 -23.607  0.00  0.00    +0.011 C 
ATOM     16  C   UNL     1      31.914 -12.658 -21.739  0.00  0.00    +0.011 C 
ATOM     17  C   UNL     1      32.778 -13.287 -22.634  0.00  0.00    +0.058 C 
ENDBRANCH   1  12
BRANCH   2  20
ATOM     18  O   UNL     1      35.057  -6.549 -25.067  0.00  0.00    -0.275 OA
ATOM     19  N   UNL     1      33.195  -5.458 -25.940  0.00  0.00    -0.300 N 
ATOM     20  C   UNL     1      33.856  -6.292 -25.055  0.00  0.00    +0.222 C 
ATOM     21  H   UNL     1      32.226  -5.329 -25.829  0.00  0.00    +0.150 HD
BRANCH  19  22
ATOM     22  C   UNL     1      33.861  -4.768 -27.022  0.00  0.00    +0.116 C 
BRANCH  22  24
ATOM     23  N   UNL     1      31.093  -2.676 -29.538  0.00  0.00    -0.242 NA
ATOM     24  C   UNL     1      32.891  -4.035 -27.903  0.00  0.00    +0.001 C 
ATOM     25  C   UNL     1      32.148  -2.986 -27.386  0.00  0.00    +0.018 C 
ATOM     26  C   UNL     1      32.747  -4.412 -29.228  0.00  0.00    +0.018 C 
ATOM     27  C   UNL     1      31.268  -2.343 -28.240  0.00  0.00    +0.099 C 
ATOM     28  C   UNL     1      31.839  -3.705 -30.000  0.00  0.00    +0.099 C 
ENDBRANCH  22  24
ENDBRANCH  19  22
ENDBRANCH   2  20
TORSDOF 4
ENDMDL
MODEL 7
REMARK VINA RESULT:      -7.2      8.979     14.126
REMARK  Name = 15604015
REMARK  4 active torsions:
REMARK  status: ('A' for Active; 'I' for Inactive)
REMARK    1  A    between atoms: C_1  and  C_12
REMARK    2  A    between atoms: C_2  and  C_20
REMARK    3  A    between atoms: N_19  and  C_22
REMARK    4  A    between atoms: C_22  and  C_24
REMARK                            x       y       z     vdW  Elec       q    Type
REMARK                         _______ _______ _______ _____ _____    ______ ____
ROOT
ATOM      1  C   UNL     1      32.908  -9.551 -23.073  0.00  0.00    +0.019 C 
ATOM      2  C   UNL     1      32.005  -7.204 -23.532  0.00  0.00    +0.069 C 
ATOM      3  C   UNL     1      32.153  -8.022 -21.160  0.00  0.00    +0.001 C 
ATOM      4  C   UNL     1      34.254  -7.479 -22.424  0.00  0.00    +0.001 C 
ATOM      5  C   UNL     1      32.075  -8.658 -24.039  0.00  0.00    +0.013 C 
ATOM      6  C   UNL     1      32.228  -9.470 -21.672  0.00  0.00    +0.004 C 
ATOM      7  C   UNL     1      34.329  -8.931 -22.929  0.00  0.00    +0.004 C 
ATOM      8  C   UNL     1      31.336  -7.178 -22.149  0.00  0.00    +0.009 C 
ATOM      9  C   UNL     1      33.434  -6.639 -23.417  0.00  0.00    +0.009 C 
ATOM     10  C   UNL     1      33.573  -7.451 -21.050  0.00  0.00    +0.000 C 
ENDROOT
BRANCH   1  12
ATOM     11 CL   UNL     1      33.314 -15.172 -25.269  0.00  0.00    -0.082 Cl
ATOM     12  C   UNL     1      33.011 -10.980 -23.632  0.00  0.00    -0.023 C 
ATOM     13  C   UNL     1      32.447 -12.046 -22.930  0.00  0.00    -0.003 C 
ATOM     14  C   UNL     1      33.667 -11.211 -24.840  0.00  0.00    -0.003 C 
ATOM     15  C   UNL     1      32.540 -13.342 -23.436  0.00  0.00    +0.011 C 
ATOM     16  C   UNL     1      33.761 -12.508 -25.347  0.00  0.00    +0.011 C 
ATOM     17  C   UNL     1      33.198 -13.573 -24.645  0.00  0.00    +0.058 C 
ENDBRANCH   1  12
BRANCH   2  20
ATOM     18  O   UNL     1      30.233  -6.823 -25.092  0.00  0.00    -0.275 OA
ATOM     19  N   UNL     1      31.688  -5.076 -24.591  0.00  0.00    -0.300 N 
ATOM     20  C   UNL     1      31.198  -6.366 -24.484  0.00  0.00    +0.222 C 
ATOM     21  H   UNL     1      32.471  -4.826 -24.050  0.00  0.00    +0.150 HD
BRANCH  19  22
ATOM     22  C   UNL     1      31.104  -4.078 -25.457  0.00  0.00    +0.116 C 
BRANCH  22  24
ATOM     23  N   UNL     1      33.651  -3.143 -28.775  0.00  0.00    -0.242 NA
ATOM     24  C   UNL     1      31.996  -3.751 -26.620  0.00  0.00    +0.001 C 
ATOM     25  C   UNL     1      31.719  -2.647 -27.410  0.00  0.00    +0.018 C 
ATOM     26  C   UNL     1      33.091  -4.554 -26.893  0.00  0.00    +0.018 C 
ATOM     27  C   UNL     1      32.572  -2.388 -28.470  0.00  0.00    +0.099 C 
ATOM     28  C   UNL     1      33.883  -4.210 -27.977  0.00  0.00    +0.099 C 
ENDBRANCH  22  24
ENDBRANCH  19  22
ENDBRANCH   2  20
TORSDOF 4
ENDMDL
MODEL 8
REMARK VINA RESULT:      -7.2      4.058      8.841
REMARK  Name = 15604015
REMARK  4 active torsions:
REMARK  status: ('A' for Active; 'I' for Inactive)
REMARK    1  A    between atoms: C_1  and  C_12
REMARK    2  A    between atoms: C_2  and  C_20
REMARK    3  A    between atoms: N_19  and  C_22
REMARK    4  A    between atoms: C_22  and  C_24
REMARK                            x       y       z     vdW  Elec       q    Type
REMARK                         _______ _______ _______ _____ _____    ______ ____
ROOT
ATOM      1  C   UNL     1      32.459 -23.492 -14.958  0.00  0.00    +0.019 C 
ATOM      2  C   UNL     1      34.919 -23.363 -15.640  0.00  0.00    +0.069 C 
ATOM      3  C   UNL     1      34.313 -23.256 -13.203  0.00  0.00    +0.001 C 
ATOM      4  C   UNL     1      34.060 -25.418 -14.456  0.00  0.00    +0.001 C 
ATOM      5  C   UNL     1      33.476 -22.975 -16.017  0.00  0.00    +0.013 C 
ATOM      6  C   UNL     1      32.873 -22.875 -13.586  0.00  0.00    +0.004 C 
ATOM      7  C   UNL     1      32.618 -25.036 -14.832  0.00  0.00    +0.004 C 
ATOM      8  C   UNL     1      35.276 -22.739 -14.281  0.00  0.00    +0.009 C 
ATOM      9  C   UNL     1      35.021 -24.897 -15.538  0.00  0.00    +0.009 C 
ATOM     10  C   UNL     1      34.423 -24.783 -13.108  0.00  0.00    +0.000 C 
ENDROOT
BRANCH   1  12
ATOM     11 CL   UNL     1      26.818 -22.117 -16.652  0.00  0.00    -0.082 Cl
ATOM     12  C   UNL     1      31.025 -23.143 -15.388  0.00  0.00    -0.023 C 
ATOM     13  C   UNL     1      30.613 -23.381 -16.700  0.00  0.00    -0.003 C 
ATOM     14  C   UNL     1      30.136 -22.588 -14.468  0.00  0.00    -0.003 C 
ATOM     15  C   UNL     1      29.312 -23.064 -17.090  0.00  0.00    +0.011 C 
ATOM     16  C   UNL     1      28.834 -22.270 -14.859  0.00  0.00    +0.011 C 
ATOM     17  C   UNL     1      28.423 -22.508 -16.170  0.00  0.00    +0.058 C 
ENDBRANCH   1  12
BRANCH   2  20
ATOM     18  O   UNL     1      37.092 -22.855 -16.499  0.00  0.00    -0.275 OA
ATOM     19  N   UNL     1      35.225 -22.385 -17.808  0.00  0.00    -0.300 N 
ATOM     20  C   UNL     1      35.877 -22.854 -16.681  0.00  0.00    +0.222 C 
ATOM     21  H   UNL     1      34.242 -22.438 -17.837  0.00  0.00    +0.150 HD
BRANCH  19  22
ATOM     22  C   UNL     1      35.917 -21.822 -18.945  0.00  0.00    +0.116 C 
BRANCH  22  24
ATOM     23  N   UNL     1      33.333 -19.408 -21.366  0.00  0.00    -0.242 NA
ATOM     24  C   UNL     1      35.012 -20.977 -19.793  0.00  0.00    +0.001 C 
ATOM     25  C   UNL     1      35.557 -20.083 -20.701  0.00  0.00    +0.018 C 
ATOM     26  C   UNL     1      33.638 -21.096 -19.662  0.00  0.00    +0.018 C 
ATOM     27  C   UNL     1      34.679 -19.326 -21.459  0.00  0.00    +0.099 C 
ATOM     28  C   UNL     1      32.846 -20.294 -20.467  0.00  0.00    +0.099 C 
ENDBRANCH  22  24
ENDBRANCH  19  22
ENDBRANCH   2  20
TORSDOF 4
ENDMDL
