MODEL 1
REMARK VINA RESULT:      -9.6      0.000      0.000
REMARK  Name = 123964
REMARK  3 active torsions:
REMARK  status: ('A' for Active; 'I' for Inactive)
REMARK    1  A    between atoms: C_8  and  C_18
REMARK    2  A    between atoms: C_18  and  C_20
REMARK    3  A    between atoms: C_20  and  O_21
REMARK                            x       y       z     vdW  Elec       q    Type
REMARK                         _______ _______ _______ _____ _____    ______ ____
ROOT
ATOM      1  O   UNL     1      33.708 -16.481 -22.037  0.00  0.00    -0.454 OA
ATOM      2  O   UNL     1      33.914 -15.641 -26.037  0.00  0.00    -0.286 OA
ATOM      3  C   UNL     1      33.305 -15.261 -22.522  0.00  0.00    +0.144 A 
ATOM      4  C   UNL     1      33.347 -14.909 -23.871  0.00  0.00    +0.073 A 
ATOM      5  C   UNL     1      34.181 -17.411 -22.928  0.00  0.00    +0.145 A 
ATOM      6  C   UNL     1      34.278 -17.192 -24.302  0.00  0.00    +0.073 A 
ATOM      7  C   UNL     1      32.830 -14.343 -21.584  0.00  0.00    +0.009 C 
ATOM      8  C   UNL     1      34.580 -18.638 -22.395  0.00  0.00    +0.024 C 
ATOM      9  C   UNL     1      33.851 -15.892 -24.842  0.00  0.00    +0.201 A 
ATOM     10  C   UNL     1      32.400 -13.081 -21.995  0.00  0.00    -0.023 C 
ATOM     11  C   UNL     1      32.918 -13.646 -24.289  0.00  0.00    +0.006 C 
ATOM     12  C   UNL     1      32.444 -12.734 -23.346  0.00  0.00    -0.004 C 
ATOM     13  C   UNL     1      34.770 -18.190 -25.147  0.00  0.00    +0.006 C 
ATOM     14  C   UNL     1      35.073 -19.638 -23.235  0.00  0.00    -0.001 C 
ATOM     15  C   UNL     1      32.780 -14.709 -20.133  0.00  0.00    +0.034 C 
ATOM     16  C   UNL     1      35.167 -19.414 -24.609  0.00  0.00    -0.000 C 
ATOM     17  C   UNL     1      31.890 -12.081 -21.010  0.00  0.00    +0.031 C 
ENDROOT
BRANCH   8  18
ATOM     18  C   UNL     1      34.492 -18.909 -20.928  0.00  0.00    +0.139 C 
BRANCH  18  20
ATOM     19  O   UNL     1      32.450 -20.197 -20.975  0.00  0.00    -0.250 OA
ATOM     20  C   UNL     1      33.628 -20.113 -20.652  0.00  0.00    +0.318 C 
BRANCH  20  21
ATOM     21  O   UNL     1      34.285 -21.088 -19.977  0.00  0.00    -0.480 OA
ATOM     22  H   UNL     1      34.177 -21.170 -19.049  0.00  0.00    +0.295 HD
ENDBRANCH  20  21
ENDBRANCH  18  20
ENDBRANCH   8  18
TORSDOF 3
ENDMDL
MODEL 2
REMARK VINA RESULT:      -9.4      7.495     10.108
REMARK  Name = 123964
REMARK  3 active torsions:
REMARK  status: ('A' for Active; 'I' for Inactive)
REMARK    1  A    between atoms: C_8  and  C_18
REMARK    2  A    between atoms: C_18  and  C_20
REMARK    3  A    between atoms: C_20  and  O_21
REMARK                            x       y       z     vdW  Elec       q    Type
REMARK                         _______ _______ _______ _____ _____    ______ ____
ROOT
ATOM      1  O   UNL     1      34.565 -23.204 -15.471  0.00  0.00    -0.454 OA
ATOM      2  O   UNL     1      32.572 -22.377 -18.948  0.00  0.00    -0.286 OA
ATOM      3  C   UNL     1      33.216 -23.436 -15.582  0.00  0.00    +0.144 A 
ATOM      4  C   UNL     1      32.476 -23.179 -16.736  0.00  0.00    +0.073 A 
ATOM      5  C   UNL     1      35.228 -22.689 -16.557  0.00  0.00    +0.145 A 
ATOM      6  C   UNL     1      34.612 -22.384 -17.770  0.00  0.00    +0.073 A 
ATOM      7  C   UNL     1      32.579 -23.962 -14.456  0.00  0.00    +0.009 C 
ATOM      8  C   UNL     1      36.598 -22.468 -16.403  0.00  0.00    +0.024 C 
ATOM      9  C   UNL     1      33.168 -22.626 -17.910  0.00  0.00    +0.201 A 
ATOM     10  C   UNL     1      31.209 -24.226 -14.488  0.00  0.00    -0.023 C 
ATOM     11  C   UNL     1      31.104 -23.442 -16.773  0.00  0.00    +0.006 C 
ATOM     12  C   UNL     1      30.474 -23.967 -15.645  0.00  0.00    -0.004 C 
ATOM     13  C   UNL     1      35.355 -21.861 -18.832  0.00  0.00    +0.006 C 
ATOM     14  C   UNL     1      37.344 -21.945 -17.460  0.00  0.00    -0.001 C 
ATOM     15  C   UNL     1      33.362 -24.242 -13.212  0.00  0.00    +0.034 C 
ATOM     16  C   UNL     1      36.724 -21.643 -18.672  0.00  0.00    -0.000 C 
ATOM     17  C   UNL     1      30.505 -24.787 -13.296  0.00  0.00    +0.031 C 
ENDROOT
BRANCH   8  18
ATOM     18  C   UNL     1      37.292 -22.781 -15.117  0.00  0.00    +0.139 C 
BRANCH  18  20
ATOM     19  O   UNL     1      39.156 -24.311 -14.996  0.00  0.00    -0.250 OA
ATOM     20  C   UNL     1      37.958 -24.132 -15.178  0.00  0.00    +0.318 C 
BRANCH  20  21
ATOM     21  O   UNL     1      37.095 -25.130 -15.490  0.00  0.00    -0.480 OA
ATOM     22  H   UNL     1      37.288 -25.712 -16.199  0.00  0.00    +0.295 HD
ENDBRANCH  20  21
ENDBRANCH  18  20
ENDBRANCH   8  18
TORSDOF 3
ENDMDL
MODEL 3
REMARK VINA RESULT:      -9.3      7.264     10.478
REMARK  Name = 123964
REMARK  3 active torsions:
REMARK  status: ('A' for Active; 'I' for Inactive)
REMARK    1  A    between atoms: C_8  and  C_18
REMARK    2  A    between atoms: C_18  and  C_20
REMARK    3  A    between atoms: C_20  and  O_21
REMARK                            x       y       z     vdW  Elec       q    Type
REMARK                         _______ _______ _______ _____ _____    ______ ____
ROOT
ATOM      1  O   UNL     1      32.632 -23.049 -16.970  0.00  0.00    -0.454 OA
ATOM      2  O   UNL     1      35.180 -23.971 -13.903  0.00  0.00    -0.286 OA
ATOM      3  C   UNL     1      33.975 -22.780 -17.065  0.00  0.00    +0.144 A 
ATOM      4  C   UNL     1      34.898 -23.069 -16.060  0.00  0.00    +0.073 A 
ATOM      5  C   UNL     1      32.166 -23.636 -15.820  0.00  0.00    +0.145 A 
ATOM      6  C   UNL     1      32.977 -23.976 -14.738  0.00  0.00    +0.073 A 
ATOM      7  C   UNL     1      34.409 -22.183 -18.251  0.00  0.00    +0.009 C 
ATOM      8  C   UNL     1      30.795 -23.892 -15.763  0.00  0.00    +0.024 C 
ATOM      9  C   UNL     1      34.419 -23.697 -14.820  0.00  0.00    +0.201 A 
ATOM     10  C   UNL     1      35.759 -21.878 -18.427  0.00  0.00    -0.023 C 
ATOM     11  C   UNL     1      36.252 -22.765 -16.231  0.00  0.00    +0.006 C 
ATOM     12  C   UNL     1      36.679 -22.170 -17.418  0.00  0.00    -0.004 C 
ATOM     13  C   UNL     1      32.429 -24.572 -13.599  0.00  0.00    +0.006 C 
ATOM     14  C   UNL     1      30.242 -24.487 -14.628  0.00  0.00    -0.001 C 
ATOM     15  C   UNL     1      33.428 -21.869 -19.337  0.00  0.00    +0.034 C 
ATOM     16  C   UNL     1      31.058 -24.827 -13.549  0.00  0.00    -0.000 C 
ATOM     17  C   UNL     1      36.247 -21.239 -19.685  0.00  0.00    +0.031 C 
ENDROOT
BRANCH   8  18
ATOM     18  C   UNL     1      29.894 -23.540 -16.903  0.00  0.00    +0.139 C 
BRANCH  18  20
ATOM     19  O   UNL     1      28.614 -21.967 -15.593  0.00  0.00    -0.250 OA
ATOM     20  C   UNL     1      28.633 -22.878 -16.410  0.00  0.00    +0.318 C 
BRANCH  20  21
ATOM     21  O   UNL     1      27.511 -23.421 -16.946  0.00  0.00    -0.480 OA
ATOM     22  H   UNL     1      27.056 -22.973 -17.633  0.00  0.00    +0.295 HD
ENDBRANCH  20  21
ENDBRANCH  18  20
ENDBRANCH   8  18
TORSDOF 3
ENDMDL
MODEL 4
REMARK VINA RESULT:      -9.1      5.433      9.027
REMARK  Name = 123964
REMARK  3 active torsions:
REMARK  status: ('A' for Active; 'I' for Inactive)
REMARK    1  A    between atoms: C_8  and  C_18
REMARK    2  A    between atoms: C_18  and  C_20
REMARK    3  A    between atoms: C_20  and  O_21
REMARK                            x       y       z     vdW  Elec       q    Type
REMARK                         _______ _______ _______ _____ _____    ______ ____
ROOT
ATOM      1  O   UNL     1      32.721 -22.117 -18.047  0.00  0.00    -0.454 OA
ATOM      2  O   UNL     1      36.214 -23.287 -16.264  0.00  0.00    -0.286 OA
ATOM      3  C   UNL     1      33.937 -21.782 -18.592  0.00  0.00    +0.144 A 
ATOM      4  C   UNL     1      35.163 -22.149 -18.038  0.00  0.00    +0.073 A 
ATOM      5  C   UNL     1      32.708 -22.855 -16.889  0.00  0.00    +0.145 A 
ATOM      6  C   UNL     1      33.859 -23.287 -16.230  0.00  0.00    +0.073 A 
ATOM      7  C   UNL     1      33.907 -21.032 -19.769  0.00  0.00    +0.009 C 
ATOM      8  C   UNL     1      31.453 -23.174 -16.368  0.00  0.00    +0.024 C 
ATOM      9  C   UNL     1      35.171 -22.939 -16.798  0.00  0.00    +0.201 A 
ATOM     10  C   UNL     1      35.099 -20.652 -20.385  0.00  0.00    -0.023 C 
ATOM     11  C   UNL     1      36.361 -21.770 -18.651  0.00  0.00    +0.006 C 
ATOM     12  C   UNL     1      36.324 -21.021 -19.827  0.00  0.00    -0.004 C 
ATOM     13  C   UNL     1      33.765 -24.036 -15.055  0.00  0.00    +0.006 C 
ATOM     14  C   UNL     1      31.354 -23.922 -15.195  0.00  0.00    -0.001 C 
ATOM     15  C   UNL     1      32.597 -20.633 -20.373  0.00  0.00    +0.034 C 
ATOM     16  C   UNL     1      32.508 -24.352 -14.539  0.00  0.00    -0.000 C 
ATOM     17  C   UNL     1      35.093 -19.848 -21.644  0.00  0.00    +0.031 C 
ENDROOT
BRANCH   8  18
ATOM     18  C   UNL     1      30.198 -22.728 -17.047  0.00  0.00    +0.139 C 
BRANCH  18  20
ATOM     19  O   UNL     1      28.436 -24.178 -16.257  0.00  0.00    -0.250 OA
ATOM     20  C   UNL     1      28.985 -23.084 -16.227  0.00  0.00    +0.318 C 
BRANCH  20  21
ATOM     21  O   UNL     1      28.541 -22.050 -15.469  0.00  0.00    -0.480 OA
ATOM     22  H   UNL     1      27.627 -21.844 -15.447  0.00  0.00    +0.295 HD
ENDBRANCH  20  21
ENDBRANCH  18  20
ENDBRANCH   8  18
TORSDOF 3
ENDMDL
MODEL 5
REMARK VINA RESULT:      -9.1      9.006     11.430
REMARK  Name = 123964
REMARK  3 active torsions:
REMARK  status: ('A' for Active; 'I' for Inactive)
REMARK    1  A    between atoms: C_8  and  C_18
REMARK    2  A    between atoms: C_18  and  C_20
REMARK    3  A    between atoms: C_20  and  O_21
REMARK                            x       y       z     vdW  Elec       q    Type
REMARK                         _______ _______ _______ _____ _____    ______ ____
ROOT
ATOM      1  O   UNL     1      34.038 -24.157 -14.000  0.00  0.00    -0.454 OA
ATOM      2  O   UNL     1      35.262 -22.600 -17.581  0.00  0.00    -0.286 OA
ATOM      3  C   UNL     1      33.124 -23.770 -14.949  0.00  0.00    +0.144 A 
ATOM      4  C   UNL     1      33.472 -23.233 -16.189  0.00  0.00    +0.073 A 
ATOM      5  C   UNL     1      35.373 -24.009 -14.284  0.00  0.00    +0.145 A 
ATOM      6  C   UNL     1      35.859 -23.487 -15.483  0.00  0.00    +0.073 A 
ATOM      7  C   UNL     1      31.777 -23.937 -14.622  0.00  0.00    +0.009 C 
ATOM      8  C   UNL     1      36.269 -24.414 -13.293  0.00  0.00    +0.024 C 
ATOM      9  C   UNL     1      34.896 -23.067 -16.512  0.00  0.00    +0.201 A 
ATOM     10  C   UNL     1      30.786 -23.568 -15.532  0.00  0.00    -0.023 C 
ATOM     11  C   UNL     1      32.483 -22.863 -17.105  0.00  0.00    +0.006 C 
ATOM     12  C   UNL     1      31.139 -23.033 -16.772  0.00  0.00    -0.004 C 
ATOM     13  C   UNL     1      37.234 -23.367 -15.699  0.00  0.00    +0.006 C 
ATOM     14  C   UNL     1      37.643 -24.297 -13.504  0.00  0.00    -0.001 C 
ATOM     15  C   UNL     1      31.391 -24.511 -13.295  0.00  0.00    +0.034 C 
ATOM     16  C   UNL     1      38.125 -23.774 -14.705  0.00  0.00    -0.000 C 
ATOM     17  C   UNL     1      29.338 -23.736 -15.205  0.00  0.00    +0.031 C 
ENDROOT
BRANCH   8  18
ATOM     18  C   UNL     1      35.785 -24.977 -11.996  0.00  0.00    +0.139 C 
BRANCH  18  20
ATOM     19  O   UNL     1      36.951 -23.157 -10.920  0.00  0.00    -0.250 OA
ATOM     20  C   UNL     1      36.133 -24.066 -10.848  0.00  0.00    +0.318 C 
BRANCH  20  21
ATOM     21  O   UNL     1      35.466 -24.377  -9.709  0.00  0.00    -0.480 OA
ATOM     22  H   UNL     1      34.686 -24.895  -9.749  0.00  0.00    +0.295 HD
ENDBRANCH  20  21
ENDBRANCH  18  20
ENDBRANCH   8  18
TORSDOF 3
ENDMDL
MODEL 6
REMARK VINA RESULT:      -9.0      6.818      9.927
REMARK  Name = 123964
REMARK  3 active torsions:
REMARK  status: ('A' for Active; 'I' for Inactive)
REMARK    1  A    between atoms: C_8  and  C_18
REMARK    2  A    between atoms: C_18  and  C_20
REMARK    3  A    between atoms: C_20  and  O_21
REMARK                            x       y       z     vdW  Elec       q    Type
REMARK                         _______ _______ _______ _____ _____    ______ ____
ROOT
ATOM      1  O   UNL     1      34.999 -23.037 -16.200  0.00  0.00    -0.454 OA
ATOM      2  O   UNL     1      31.119 -22.886 -17.492  0.00  0.00    -0.286 OA
ATOM      3  C   UNL     1      34.680 -22.459 -17.404  0.00  0.00    +0.144 A 
ATOM      4  C   UNL     1      33.380 -22.372 -17.903  0.00  0.00    +0.073 A 
ATOM      5  C   UNL     1      33.983 -23.562 -15.440  0.00  0.00    +0.145 A 
ATOM      6  C   UNL     1      32.641 -23.544 -15.819  0.00  0.00    +0.073 A 
ATOM      7  C   UNL     1      35.741 -21.936 -18.145  0.00  0.00    +0.009 C 
ATOM      8  C   UNL     1      34.349 -24.140 -14.223  0.00  0.00    +0.024 C 
ATOM      9  C   UNL     1      32.278 -22.929 -17.105  0.00  0.00    +0.201 A 
ATOM     10  C   UNL     1      35.501 -21.332 -19.379  0.00  0.00    -0.023 C 
ATOM     11  C   UNL     1      33.134 -21.768 -19.139  0.00  0.00    +0.006 C 
ATOM     12  C   UNL     1      34.199 -21.248 -19.875  0.00  0.00    -0.004 C 
ATOM     13  C   UNL     1      31.662 -24.100 -14.991  0.00  0.00    +0.006 C 
ATOM     14  C   UNL     1      33.376 -24.696 -13.393  0.00  0.00    -0.001 C 
ATOM     15  C   UNL     1      37.140 -22.023 -17.619  0.00  0.00    +0.034 C 
ATOM     16  C   UNL     1      32.035 -24.675 -13.776  0.00  0.00    -0.000 C 
ATOM     17  C   UNL     1      36.619 -20.767 -20.192  0.00  0.00    +0.031 C 
ENDROOT
BRANCH   8  18
ATOM     18  C   UNL     1      35.778 -24.178 -13.784  0.00  0.00    +0.139 C 
BRANCH  18  20
ATOM     19  O   UNL     1      36.761 -25.768 -15.313  0.00  0.00    -0.250 OA
ATOM     20  C   UNL     1      36.427 -25.482 -14.170  0.00  0.00    +0.318 C 
BRANCH  20  21
ATOM     21  O   UNL     1      36.575 -26.326 -13.118  0.00  0.00    -0.480 OA
ATOM     22  H   UNL     1      36.146 -27.159 -13.122  0.00  0.00    +0.295 HD
ENDBRANCH  20  21
ENDBRANCH  18  20
ENDBRANCH   8  18
TORSDOF 3
ENDMDL
MODEL 7
REMARK VINA RESULT:      -8.9      4.849      8.327
REMARK  Name = 123964
REMARK  3 active torsions:
REMARK  status: ('A' for Active; 'I' for Inactive)
REMARK    1  A    between atoms: C_8  and  C_18
REMARK    2  A    between atoms: C_18  and  C_20
REMARK    3  A    between atoms: C_20  and  O_21
REMARK                            x       y       z     vdW  Elec       q    Type
REMARK                         _______ _______ _______ _____ _____    ______ ____
ROOT
ATOM      1  O   UNL     1      32.535 -10.178 -22.228  0.00  0.00    -0.454 OA
ATOM      2  O   UNL     1      34.968 -10.752 -25.468  0.00  0.00    -0.286 OA
ATOM      3  C   UNL     1      32.884 -11.443 -22.630  0.00  0.00    +0.144 A 
ATOM      4  C   UNL     1      33.709 -11.711 -23.723  0.00  0.00    +0.073 A 
ATOM      5  C   UNL     1      33.023  -9.110 -22.940  0.00  0.00    +0.145 A 
ATOM      6  C   UNL     1      33.856  -9.234 -24.052  0.00  0.00    +0.073 A 
ATOM      7  C   UNL     1      32.367 -12.501 -21.880  0.00  0.00    +0.009 C 
ATOM      8  C   UNL     1      32.645  -7.841 -22.498  0.00  0.00    +0.024 C 
ATOM      9  C   UNL     1      34.242 -10.581 -24.499  0.00  0.00    +0.201 A 
ATOM     10  C   UNL     1      32.676 -13.818 -22.224  0.00  0.00    -0.023 C 
ATOM     11  C   UNL     1      34.021 -13.028 -24.071  0.00  0.00    +0.006 C 
ATOM     12  C   UNL     1      33.502 -14.080 -23.317  0.00  0.00    -0.004 C 
ATOM     13  C   UNL     1      34.314  -8.099 -24.726  0.00  0.00    +0.006 C 
ATOM     14  C   UNL     1      33.099  -6.704 -23.168  0.00  0.00    -0.001 C 
ATOM     15  C   UNL     1      31.481 -12.227 -20.705  0.00  0.00    +0.034 C 
ATOM     16  C   UNL     1      33.932  -6.833 -24.279  0.00  0.00    -0.000 C 
ATOM     17  C   UNL     1      32.134 -14.966 -21.437  0.00  0.00    +0.031 C 
ENDROOT
BRANCH   8  18
ATOM     18  C   UNL     1      31.753  -7.670 -21.311  0.00  0.00    +0.139 C 
BRANCH  18  20
ATOM     19  O   UNL     1      33.053  -6.732 -19.506  0.00  0.00    -0.250 OA
ATOM     20  C   UNL     1      32.546  -7.715 -20.030  0.00  0.00    +0.318 C 
BRANCH  20  21
ATOM     21  O   UNL     1      32.666  -8.970 -19.530  0.00  0.00    -0.480 OA
ATOM     22  H   UNL     1      32.718  -9.703 -20.112  0.00  0.00    +0.295 HD
ENDBRANCH  20  21
ENDBRANCH  18  20
ENDBRANCH   8  18
TORSDOF 3
ENDMDL
MODEL 8
REMARK VINA RESULT:      -8.8      8.007     11.518
REMARK  Name = 123964
REMARK  3 active torsions:
REMARK  status: ('A' for Active; 'I' for Inactive)
REMARK    1  A    between atoms: C_8  and  C_18
REMARK    2  A    between atoms: C_18  and  C_20
REMARK    3  A    between atoms: C_20  and  O_21
REMARK                            x       y       z     vdW  Elec       q    Type
REMARK                         _______ _______ _______ _____ _____    ______ ____
ROOT
ATOM      1  O   UNL     1      33.104  -5.861 -24.510  0.00  0.00    -0.454 OA
ATOM      2  O   UNL     1      30.149  -4.093 -22.298  0.00  0.00    -0.286 OA
ATOM      3  C   UNL     1      32.380  -4.809 -25.015  0.00  0.00    +0.144 A 
ATOM      4  C   UNL     1      31.362  -4.160 -24.316  0.00  0.00    +0.073 A 
ATOM      5  C   UNL     1      32.811  -6.304 -23.244  0.00  0.00    +0.145 A 
ATOM      6  C   UNL     1      31.820  -5.748 -22.436  0.00  0.00    +0.073 A 
ATOM      7  C   UNL     1      32.708  -4.388 -26.305  0.00  0.00    +0.009 C 
ATOM      8  C   UNL     1      33.570  -7.375 -22.768  0.00  0.00    +0.024 C 
ATOM      9  C   UNL     1      31.033  -4.620 -22.959  0.00  0.00    +0.201 A 
ATOM     10  C   UNL     1      32.020  -3.325 -26.890  0.00  0.00    -0.023 C 
ATOM     11  C   UNL     1      30.669  -3.095 -24.898  0.00  0.00    +0.006 C 
ATOM     12  C   UNL     1      31.002  -2.680 -26.187  0.00  0.00    -0.004 C 
ATOM     13  C   UNL     1      31.580  -6.254 -21.156  0.00  0.00    +0.006 C 
ATOM     14  C   UNL     1      33.335  -7.883 -21.490  0.00  0.00    -0.001 C 
ATOM     15  C   UNL     1      33.799  -5.076 -27.065  0.00  0.00    +0.034 C 
ATOM     16  C   UNL     1      32.342  -7.324 -20.686  0.00  0.00    -0.000 C 
ATOM     17  C   UNL     1      32.352  -2.858 -28.270  0.00  0.00    +0.031 C 
ENDROOT
BRANCH   8  18
ATOM     18  C   UNL     1      34.641  -7.996 -23.605  0.00  0.00    +0.139 C 
BRANCH  18  20
ATOM     19  O   UNL     1      33.149  -9.835 -24.075  0.00  0.00    -0.250 OA
ATOM     20  C   UNL     1      34.294  -9.420 -23.956  0.00  0.00    +0.318 C 
BRANCH  20  21
ATOM     21  O   UNL     1      35.389 -10.209 -24.095  0.00  0.00    -0.480 OA
ATOM     22  H   UNL     1      36.215  -9.827 -24.319  0.00  0.00    +0.295 HD
ENDBRANCH  20  21
ENDBRANCH  18  20
ENDBRANCH   8  18
TORSDOF 3
ENDMDL
MODEL 9
REMARK VINA RESULT:      -8.7      3.245      6.804
REMARK  Name = 123964
REMARK  3 active torsions:
REMARK  status: ('A' for Active; 'I' for Inactive)
REMARK    1  A    between atoms: C_8  and  C_18
REMARK    2  A    between atoms: C_18  and  C_20
REMARK    3  A    between atoms: C_20  and  O_21
REMARK                            x       y       z     vdW  Elec       q    Type
REMARK                         _______ _______ _______ _____ _____    ______ ____
ROOT
ATOM      1  O   UNL     1      32.349 -12.853 -21.557  0.00  0.00    -0.454 OA
ATOM      2  O   UNL     1      34.309 -12.237 -25.097  0.00  0.00    -0.286 OA
ATOM      3  C   UNL     1      33.104 -13.849 -22.127  0.00  0.00    +0.144 A 
ATOM      4  C   UNL     1      33.798 -13.707 -23.329  0.00  0.00    +0.073 A 
ATOM      5  C   UNL     1      32.270 -11.646 -22.205  0.00  0.00    +0.145 A 
ATOM      6  C   UNL     1      32.911 -11.368 -23.412  0.00  0.00    +0.073 A 
ATOM      7  C   UNL     1      33.160 -15.061 -21.437  0.00  0.00    +0.009 C 
ATOM      8  C   UNL     1      31.492 -10.660 -21.593  0.00  0.00    +0.024 C 
ATOM      9  C   UNL     1      33.725 -12.421 -24.039  0.00  0.00    +0.201 A 
ATOM     10  C   UNL     1      33.906 -16.123 -21.949  0.00  0.00    -0.023 C 
ATOM     11  C   UNL     1      34.547 -14.767 -23.846  0.00  0.00    +0.006 C 
ATOM     12  C   UNL     1      34.599 -15.976 -23.151  0.00  0.00    -0.004 C 
ATOM     13  C   UNL     1      32.782 -10.112 -24.012  0.00  0.00    +0.006 C 
ATOM     14  C   UNL     1      31.361  -9.405 -22.188  0.00  0.00    -0.001 C 
ATOM     15  C   UNL     1      32.420 -15.226 -20.146  0.00  0.00    +0.034 C 
ATOM     16  C   UNL     1      32.005  -9.132 -23.395  0.00  0.00    -0.000 C 
ATOM     17  C   UNL     1      33.981 -17.430 -21.229  0.00  0.00    +0.031 C 
ENDROOT
BRANCH   8  18
ATOM     18  C   UNL     1      30.790 -10.922 -20.300  0.00  0.00    +0.139 C 
BRANCH  18  20
ATOM     19  O   UNL     1      32.464  -9.559 -19.219  0.00  0.00    -0.250 OA
ATOM     20  C   UNL     1      31.605 -10.427 -19.133  0.00  0.00    +0.318 C 
BRANCH  20  21
ATOM     21  O   UNL     1      31.310 -11.070 -17.976  0.00  0.00    -0.480 OA
ATOM     22  H   UNL     1      31.436 -11.996 -17.909  0.00  0.00    +0.295 HD
ENDBRANCH  20  21
ENDBRANCH  18  20
ENDBRANCH   8  18
TORSDOF 3
ENDMDL
