MODEL 1
REMARK VINA RESULT:      -7.7      0.000      0.000
REMARK  Name = 24768537
REMARK  6 active torsions:
REMARK  status: ('A' for Active; 'I' for Inactive)
REMARK    1  A    between atoms: C_1  and  C_3
REMARK    2  A    between atoms: C_1  and  C_6
REMARK    3  A    between atoms: C_1  and  C_13
REMARK    4  A    between atoms: C_3  and  O_4
REMARK    5  A    between atoms: C_6  and  C_7
REMARK    6  A    between atoms: C_13  and  N_16
REMARK                            x       y       z     vdW  Elec       q    Type
REMARK                         _______ _______ _______ _____ _____    ______ ____
ROOT
ATOM      1  C   UNL     1      34.859 -17.444 -22.498  0.00  0.00    +0.133 C 
ENDROOT
BRANCH   1   3
ATOM      2  O   UNL     1      34.967 -16.097 -20.470  0.00  0.00    -0.250 OA
ATOM      3  C   UNL     1      34.853 -16.153 -21.688  0.00  0.00    +0.316 C 
BRANCH   3   4
ATOM      4  O   UNL     1      34.685 -15.050 -22.462  0.00  0.00    -0.480 OA
ATOM      5  H   UNL     1      33.842 -14.856 -22.822  0.00  0.00    +0.295 HD
ENDBRANCH   3   4
ENDBRANCH   1   3
BRANCH   1   6
ATOM      6  C   UNL     1      35.775 -18.475 -21.813  0.00  0.00    +0.040 C 
BRANCH   6   7
ATOM      7  C   UNL     1      35.016 -19.520 -21.029  0.00  0.00    -0.022 C 
ATOM      8  C   UNL     1      35.710 -20.492 -20.308  0.00  0.00    -0.004 C 
ATOM      9  C   UNL     1      33.621 -19.515 -21.028  0.00  0.00    -0.004 C 
ATOM     10  C   UNL     1      35.008 -21.457 -19.585  0.00  0.00    -0.000 C 
ATOM     11  C   UNL     1      32.920 -20.479 -20.305  0.00  0.00    -0.000 C 
ATOM     12  C   UNL     1      33.614 -21.451 -19.584  0.00  0.00    -0.000 C 
ENDBRANCH   6   7
ENDBRANCH   1   6
BRANCH   1  13
ATOM     13  C   UNL     1      35.355 -17.174 -23.920  0.00  0.00    +0.205 C 
BRANCH  13  16
ATOM     14  O   UNL     1      34.182 -19.002 -24.759  0.00  0.00    -0.131 OA
ATOM     15  O   UNL     1      33.882 -17.040 -25.715  0.00  0.00    -0.131 OA
ATOM     16  N   UNL     1      34.408 -17.786 -24.872  0.00  0.00    +0.035 N 
ENDBRANCH  13  16
ENDBRANCH   1  13
TORSDOF 6
ENDMDL
MODEL 2
REMARK VINA RESULT:      -7.4      1.671      3.037
REMARK  Name = 24768537
REMARK  6 active torsions:
REMARK  status: ('A' for Active; 'I' for Inactive)
REMARK    1  A    between atoms: C_1  and  C_3
REMARK    2  A    between atoms: C_1  and  C_6
REMARK    3  A    between atoms: C_1  and  C_13
REMARK    4  A    between atoms: C_3  and  O_4
REMARK    5  A    between atoms: C_6  and  C_7
REMARK    6  A    between atoms: C_13  and  N_16
REMARK                            x       y       z     vdW  Elec       q    Type
REMARK                         _______ _______ _______ _____ _____    ______ ____
ROOT
ATOM      1  C   UNL     1      34.666 -17.810 -21.777  0.00  0.00    +0.133 C 
ENDROOT
BRANCH   1   3
ATOM      2  O   UNL     1      35.425 -18.641 -23.940  0.00  0.00    -0.250 OA
ATOM      3  C   UNL     1      35.313 -17.708 -23.154  0.00  0.00    +0.316 C 
BRANCH   3   4
ATOM      4  O   UNL     1      35.783 -16.462 -23.420  0.00  0.00    -0.480 OA
ATOM      5  H   UNL     1      35.204 -15.804 -23.752  0.00  0.00    +0.295 HD
ENDBRANCH   3   4
ENDBRANCH   1   3
BRANCH   1   6
ATOM      6  C   UNL     1      33.862 -19.120 -21.685  0.00  0.00    +0.040 C 
BRANCH   6   7
ATOM      7  C   UNL     1      34.439 -20.107 -20.698  0.00  0.00    -0.022 C 
ATOM      8  C   UNL     1      35.820 -20.182 -20.514  0.00  0.00    -0.004 C 
ATOM      9  C   UNL     1      33.592 -20.944 -19.972  0.00  0.00    -0.004 C 
ATOM     10  C   UNL     1      36.353 -21.093 -19.602  0.00  0.00    -0.000 C 
ATOM     11  C   UNL     1      34.124 -21.855 -19.061  0.00  0.00    -0.000 C 
ATOM     12  C   UNL     1      35.506 -21.931 -18.876  0.00  0.00    -0.000 C 
ENDBRANCH   6   7
ENDBRANCH   1   6
BRANCH   1  13
ATOM     13  C   UNL     1      33.741 -16.615 -21.539  0.00  0.00    +0.205 C 
BRANCH  13  16
ATOM     14  O   UNL     1      35.042 -15.821 -19.779  0.00  0.00    -0.131 OA
ATOM     15  O   UNL     1      34.598 -14.455 -21.449  0.00  0.00    -0.131 OA
ATOM     16  N   UNL     1      34.512 -15.550 -20.868  0.00  0.00    +0.035 N 
ENDBRANCH  13  16
ENDBRANCH   1  13
TORSDOF 6
ENDMDL
MODEL 3
REMARK VINA RESULT:      -7.3      7.894      9.782
REMARK  Name = 24768537
REMARK  6 active torsions:
REMARK  status: ('A' for Active; 'I' for Inactive)
REMARK    1  A    between atoms: C_1  and  C_3
REMARK    2  A    between atoms: C_1  and  C_6
REMARK    3  A    between atoms: C_1  and  C_13
REMARK    4  A    between atoms: C_3  and  O_4
REMARK    5  A    between atoms: C_6  and  C_7
REMARK    6  A    between atoms: C_13  and  N_16
REMARK                            x       y       z     vdW  Elec       q    Type
REMARK                         _______ _______ _______ _____ _____    ______ ____
ROOT
ATOM      1  C   UNL     1      29.594 -23.857 -15.612  0.00  0.00    +0.133 C 
ENDROOT
BRANCH   1   3
ATOM      2  O   UNL     1      30.559 -25.906 -14.710  0.00  0.00    -0.250 OA
ATOM      3  C   UNL     1      29.586 -25.175 -14.846  0.00  0.00    +0.316 C 
BRANCH   3   4
ATOM      4  O   UNL     1      28.363 -25.477 -14.338  0.00  0.00    -0.480 OA
ATOM      5  H   UNL     1      27.814 -26.096 -14.776  0.00  0.00    +0.295 HD
ENDBRANCH   3   4
ENDBRANCH   1   3
BRANCH   1   6
ATOM      6  C   UNL     1      30.641 -22.912 -14.993  0.00  0.00    +0.040 C 
BRANCH   6   7
ATOM      7  C   UNL     1      31.996 -23.010 -15.652  0.00  0.00    -0.022 C 
ATOM      8  C   UNL     1      33.141 -23.181 -14.872  0.00  0.00    -0.004 C 
ATOM      9  C   UNL     1      32.105 -22.927 -17.040  0.00  0.00    -0.004 C 
ATOM     10  C   UNL     1      34.392 -23.272 -15.481  0.00  0.00    -0.000 C 
ATOM     11  C   UNL     1      33.356 -23.017 -17.649  0.00  0.00    -0.000 C 
ATOM     12  C   UNL     1      34.501 -23.189 -16.869  0.00  0.00    -0.000 C 
ENDBRANCH   6   7
ENDBRANCH   1   6
BRANCH   1  13
ATOM     13  C   UNL     1      28.211 -23.206 -15.558  0.00  0.00    +0.205 C 
BRANCH  13  16
ATOM     14  O   UNL     1      27.677 -23.797 -17.745  0.00  0.00    -0.131 OA
ATOM     15  O   UNL     1      27.579 -21.669 -17.185  0.00  0.00    -0.131 OA
ATOM     16  N   UNL     1      27.798 -22.866 -16.934  0.00  0.00    +0.035 N 
ENDBRANCH  13  16
ENDBRANCH   1  13
TORSDOF 6
ENDMDL
MODEL 4
REMARK VINA RESULT:      -7.3      1.557      3.301
REMARK  Name = 24768537
REMARK  6 active torsions:
REMARK  status: ('A' for Active; 'I' for Inactive)
REMARK    1  A    between atoms: C_1  and  C_3
REMARK    2  A    between atoms: C_1  and  C_6
REMARK    3  A    between atoms: C_1  and  C_13
REMARK    4  A    between atoms: C_3  and  O_4
REMARK    5  A    between atoms: C_6  and  C_7
REMARK    6  A    between atoms: C_13  and  N_16
REMARK                            x       y       z     vdW  Elec       q    Type
REMARK                         _______ _______ _______ _____ _____    ______ ____
ROOT
ATOM      1  C   UNL     1      34.822 -17.926 -22.335  0.00  0.00    +0.133 C 
ENDROOT
BRANCH   1   3
ATOM      2  O   UNL     1      35.005 -19.531 -24.161  0.00  0.00    -0.250 OA
ATOM      3  C   UNL     1      35.049 -18.370 -23.776  0.00  0.00    +0.316 C 
BRANCH   3   4
ATOM      4  O   UNL     1      35.332 -17.331 -24.604  0.00  0.00    -0.480 OA
ATOM      5  H   UNL     1      36.223 -17.090 -24.765  0.00  0.00    +0.295 HD
ENDBRANCH   3   4
ENDBRANCH   1   3
BRANCH   1   6
ATOM      6  C   UNL     1      33.708 -18.782 -21.706  0.00  0.00    +0.040 C 
BRANCH   6   7
ATOM      7  C   UNL     1      34.231 -19.872 -20.801  0.00  0.00    -0.022 C 
ATOM      8  C   UNL     1      33.339 -20.707 -20.126  0.00  0.00    -0.004 C 
ATOM      9  C   UNL     1      35.605 -20.045 -20.638  0.00  0.00    -0.004 C 
ATOM     10  C   UNL     1      33.823 -21.714 -19.291  0.00  0.00    -0.000 C 
ATOM     11  C   UNL     1      36.089 -21.051 -19.803  0.00  0.00    -0.000 C 
ATOM     12  C   UNL     1      35.197 -21.886 -19.128  0.00  0.00    -0.000 C 
ENDBRANCH   6   7
ENDBRANCH   1   6
BRANCH   1  13
ATOM     13  C   UNL     1      34.429 -16.449 -22.292  0.00  0.00    +0.205 C 
BRANCH  13  16
ATOM     14  O   UNL     1      33.238 -15.465 -20.550  0.00  0.00    -0.131 OA
ATOM     15  O   UNL     1      35.220 -16.319 -20.108  0.00  0.00    -0.131 OA
ATOM     16  N   UNL     1      34.287 -16.041 -20.880  0.00  0.00    +0.035 N 
ENDBRANCH  13  16
ENDBRANCH   1  13
TORSDOF 6
ENDMDL
MODEL 5
REMARK VINA RESULT:      -7.2      9.212     11.095
REMARK  Name = 24768537
REMARK  6 active torsions:
REMARK  status: ('A' for Active; 'I' for Inactive)
REMARK    1  A    between atoms: C_1  and  C_3
REMARK    2  A    between atoms: C_1  and  C_6
REMARK    3  A    between atoms: C_1  and  C_13
REMARK    4  A    between atoms: C_3  and  O_4
REMARK    5  A    between atoms: C_6  and  C_7
REMARK    6  A    between atoms: C_13  and  N_16
REMARK                            x       y       z     vdW  Elec       q    Type
REMARK                         _______ _______ _______ _____ _____    ______ ____
ROOT
ATOM      1  C   UNL     1      38.361 -24.584 -13.454  0.00  0.00    +0.133 C 
ENDROOT
BRANCH   1   3
ATOM      2  O   UNL     1      38.839 -23.012 -11.654  0.00  0.00    -0.250 OA
ATOM      3  C   UNL     1      38.267 -24.023 -12.040  0.00  0.00    +0.316 C 
BRANCH   3   4
ATOM      4  O   UNL     1      37.489 -24.783 -11.227  0.00  0.00    -0.480 OA
ATOM      5  H   UNL     1      37.771 -24.975 -10.355  0.00  0.00    +0.295 HD
ENDBRANCH   3   4
ENDBRANCH   1   3
BRANCH   1   6
ATOM      6  C   UNL     1      36.943 -24.819 -14.007  0.00  0.00    +0.040 C 
BRANCH   6   7
ATOM      7  C   UNL     1      36.573 -23.874 -15.125  0.00  0.00    -0.022 C 
ATOM      8  C   UNL     1      35.259 -23.826 -15.593  0.00  0.00    -0.004 C 
ATOM      9  C   UNL     1      37.545 -23.049 -15.692  0.00  0.00    -0.004 C 
ATOM     10  C   UNL     1      34.919 -22.952 -16.626  0.00  0.00    -0.000 C 
ATOM     11  C   UNL     1      37.205 -22.177 -16.725  0.00  0.00    -0.000 C 
ATOM     12  C   UNL     1      35.892 -22.129 -17.193  0.00  0.00    -0.000 C 
ENDBRANCH   6   7
ENDBRANCH   1   6
BRANCH   1  13
ATOM     13  C   UNL     1      39.141 -25.899 -13.451  0.00  0.00    +0.205 C 
BRANCH  13  16
ATOM     14  O   UNL     1      40.787 -24.548 -14.391  0.00  0.00    -0.131 OA
ATOM     15  O   UNL     1      40.958 -26.729 -14.642  0.00  0.00    -0.131 OA
ATOM     16  N   UNL     1      40.384 -25.710 -14.224  0.00  0.00    +0.035 N 
ENDBRANCH  13  16
ENDBRANCH   1  13
TORSDOF 6
ENDMDL
MODEL 6
REMARK VINA RESULT:      -7.2      9.553     11.220
REMARK  Name = 24768537
REMARK  6 active torsions:
REMARK  status: ('A' for Active; 'I' for Inactive)
REMARK    1  A    between atoms: C_1  and  C_3
REMARK    2  A    between atoms: C_1  and  C_6
REMARK    3  A    between atoms: C_1  and  C_13
REMARK    4  A    between atoms: C_3  and  O_4
REMARK    5  A    between atoms: C_6  and  C_7
REMARK    6  A    between atoms: C_13  and  N_16
REMARK                            x       y       z     vdW  Elec       q    Type
REMARK                         _______ _______ _______ _____ _____    ______ ____
ROOT
ATOM      1  C   UNL     1      36.598 -25.355 -14.339  0.00  0.00    +0.133 C 
ENDROOT
BRANCH   1   3
ATOM      2  O   UNL     1      36.351 -27.018 -16.104  0.00  0.00    -0.250 OA
ATOM      3  C   UNL     1      36.992 -26.578 -15.158  0.00  0.00    +0.316 C 
BRANCH   3   4
ATOM      4  O   UNL     1      38.136 -27.159 -14.712  0.00  0.00    -0.480 OA
ATOM      5  H   UNL     1      38.748 -26.661 -14.207  0.00  0.00    +0.295 HD
ENDBRANCH   3   4
ENDBRANCH   1   3
BRANCH   1   6
ATOM      6  C   UNL     1      36.147 -24.228 -15.287  0.00  0.00    +0.040 C 
BRANCH   6   7
ATOM      7  C   UNL     1      34.660 -23.964 -15.237  0.00  0.00    -0.022 C 
ATOM      8  C   UNL     1      33.995 -23.499 -16.372  0.00  0.00    -0.004 C 
ATOM      9  C   UNL     1      33.952 -24.185 -14.055  0.00  0.00    -0.004 C 
ATOM     10  C   UNL     1      32.623 -23.257 -16.325  0.00  0.00    -0.000 C 
ATOM     11  C   UNL     1      32.580 -23.942 -14.008  0.00  0.00    -0.000 C 
ATOM     12  C   UNL     1      31.915 -23.477 -15.143  0.00  0.00    -0.000 C 
ENDBRANCH   6   7
ENDBRANCH   1   6
BRANCH   1  13
ATOM     13  C   UNL     1      37.781 -24.880 -13.494  0.00  0.00    +0.205 C 
BRANCH  13  16
ATOM     14  O   UNL     1      37.799 -24.375 -11.222  0.00  0.00    -0.131 OA
ATOM     15  O   UNL     1      37.020 -26.337 -11.850  0.00  0.00    -0.131 OA
ATOM     16  N   UNL     1      37.520 -25.224 -12.083  0.00  0.00    +0.035 N 
ENDBRANCH  13  16
ENDBRANCH   1  13
TORSDOF 6
ENDMDL
MODEL 7
REMARK VINA RESULT:      -7.1      1.325      2.282
REMARK  Name = 24768537
REMARK  6 active torsions:
REMARK  status: ('A' for Active; 'I' for Inactive)
REMARK    1  A    between atoms: C_1  and  C_3
REMARK    2  A    between atoms: C_1  and  C_6
REMARK    3  A    between atoms: C_1  and  C_13
REMARK    4  A    between atoms: C_3  and  O_4
REMARK    5  A    between atoms: C_6  and  C_7
REMARK    6  A    between atoms: C_13  and  N_16
REMARK                            x       y       z     vdW  Elec       q    Type
REMARK                         _______ _______ _______ _____ _____    ______ ____
ROOT
ATOM      1  C   UNL     1      34.185 -16.290 -22.938  0.00  0.00    +0.133 C 
ENDROOT
BRANCH   1   3
ATOM      2  O   UNL     1      34.005 -13.868 -23.143  0.00  0.00    -0.250 OA
ATOM      3  C   UNL     1      33.535 -14.925 -22.742  0.00  0.00    +0.316 C 
BRANCH   3   4
ATOM      4  O   UNL     1      32.372 -14.995 -22.045  0.00  0.00    -0.480 OA
ATOM      5  H   UNL     1      32.338 -14.691 -21.159  0.00  0.00    +0.295 HD
ENDBRANCH   3   4
ENDBRANCH   1   3
BRANCH   1   6
ATOM      6  C   UNL     1      35.050 -16.627 -21.709  0.00  0.00    +0.040 C 
BRANCH   6   7
ATOM      7  C   UNL     1      34.890 -18.053 -21.239  0.00  0.00    -0.022 C 
ATOM      8  C   UNL     1      33.615 -18.595 -21.074  0.00  0.00    -0.004 C 
ATOM      9  C   UNL     1      36.017 -18.829 -20.969  0.00  0.00    -0.004 C 
ATOM     10  C   UNL     1      33.468 -19.913 -20.641  0.00  0.00    -0.000 C 
ATOM     11  C   UNL     1      35.871 -20.146 -20.535  0.00  0.00    -0.000 C 
ATOM     12  C   UNL     1      34.595 -20.688 -20.370  0.00  0.00    -0.000 C 
ENDBRANCH   6   7
ENDBRANCH   1   6
BRANCH   1  13
ATOM     13  C   UNL     1      35.052 -16.287 -24.198  0.00  0.00    +0.205 C 
BRANCH  13  16
ATOM     14  O   UNL     1      33.851 -15.823 -26.137  0.00  0.00    -0.131 OA
ATOM     15  O   UNL     1      33.957 -17.913 -25.449  0.00  0.00    -0.131 OA
ATOM     16  N   UNL     1      34.219 -16.703 -25.343  0.00  0.00    +0.035 N 
ENDBRANCH  13  16
ENDBRANCH   1  13
TORSDOF 6
ENDMDL
MODEL 8
REMARK VINA RESULT:      -7.1      3.041      5.279
REMARK  Name = 24768537
REMARK  6 active torsions:
REMARK  status: ('A' for Active; 'I' for Inactive)
REMARK    1  A    between atoms: C_1  and  C_3
REMARK    2  A    between atoms: C_1  and  C_6
REMARK    3  A    between atoms: C_1  and  C_13
REMARK    4  A    between atoms: C_3  and  O_4
REMARK    5  A    between atoms: C_6  and  C_7
REMARK    6  A    between atoms: C_13  and  N_16
REMARK                            x       y       z     vdW  Elec       q    Type
REMARK                         _______ _______ _______ _____ _____    ______ ____
ROOT
ATOM      1  C   UNL     1      34.754 -17.301 -23.447  0.00  0.00    +0.133 C 
ENDROOT
BRANCH   1   3
ATOM      2  O   UNL     1      34.736 -17.045 -25.872  0.00  0.00    -0.250 OA
ATOM      3  C   UNL     1      34.611 -17.768 -24.891  0.00  0.00    +0.316 C 
BRANCH   3   4
ATOM      4  O   UNL     1      34.304 -19.088 -24.986  0.00  0.00    -0.480 OA
ATOM      5  H   UNL     1      34.913 -19.684 -25.374  0.00  0.00    +0.295 HD
ENDBRANCH   3   4
ENDBRANCH   1   3
BRANCH   1   6
ATOM      6  C   UNL     1      35.058 -15.791 -23.426  0.00  0.00    +0.040 C 
BRANCH   6   7
ATOM      7  C   UNL     1      34.061 -14.993 -22.620  0.00  0.00    -0.022 C 
ATOM      8  C   UNL     1      33.330 -13.972 -23.228  0.00  0.00    -0.004 C 
ATOM      9  C   UNL     1      33.871 -15.275 -21.267  0.00  0.00    -0.004 C 
ATOM     10  C   UNL     1      32.408 -13.236 -22.484  0.00  0.00    -0.000 C 
ATOM     11  C   UNL     1      32.951 -14.539 -20.523  0.00  0.00    -0.000 C 
ATOM     12  C   UNL     1      32.220 -13.518 -21.131  0.00  0.00    -0.000 C 
ENDBRANCH   6   7
ENDBRANCH   1   6
BRANCH   1  13
ATOM     13  C   UNL     1      35.882 -18.067 -22.753  0.00  0.00    +0.205 C 
BRANCH  13  16
ATOM     14  O   UNL     1      34.322 -19.584 -21.925  0.00  0.00    -0.131 OA
ATOM     15  O   UNL     1      35.840 -18.787 -20.542  0.00  0.00    -0.131 OA
ATOM     16  N   UNL     1      35.300 -18.868 -21.658  0.00  0.00    +0.035 N 
ENDBRANCH  13  16
ENDBRANCH   1  13
TORSDOF 6
ENDMDL
MODEL 9
REMARK VINA RESULT:      -7.1      9.536     11.148
REMARK  Name = 24768537
REMARK  6 active torsions:
REMARK  status: ('A' for Active; 'I' for Inactive)
REMARK    1  A    between atoms: C_1  and  C_3
REMARK    2  A    between atoms: C_1  and  C_6
REMARK    3  A    between atoms: C_1  and  C_13
REMARK    4  A    between atoms: C_3  and  O_4
REMARK    5  A    between atoms: C_6  and  C_7
REMARK    6  A    between atoms: C_13  and  N_16
REMARK                            x       y       z     vdW  Elec       q    Type
REMARK                         _______ _______ _______ _____ _____    ______ ____
ROOT
ATOM      1  C   UNL     1      36.665 -25.352 -14.286  0.00  0.00    +0.133 C 
ENDROOT
BRANCH   1   3
ATOM      2  O   UNL     1      38.232 -27.169 -14.717  0.00  0.00    -0.250 OA
ATOM      3  C   UNL     1      37.217 -26.562 -15.032  0.00  0.00    +0.316 C 
BRANCH   3   4
ATOM      4  O   UNL     1      36.468 -26.893 -16.116  0.00  0.00    -0.480 OA
ATOM      5  H   UNL     1      35.638 -26.483 -16.255  0.00  0.00    +0.295 HD
ENDBRANCH   3   4
ENDBRANCH   1   3
BRANCH   1   6
ATOM      6  C   UNL     1      36.186 -24.299 -15.303  0.00  0.00    +0.040 C 
BRANCH   6   7
ATOM      7  C   UNL     1      34.706 -24.010 -15.209  0.00  0.00    -0.022 C 
ATOM      8  C   UNL     1      34.026 -24.232 -14.012  0.00  0.00    -0.004 C 
ATOM      9  C   UNL     1      34.020 -23.521 -16.321  0.00  0.00    -0.004 C 
ATOM     10  C   UNL     1      32.660 -23.963 -13.927  0.00  0.00    -0.000 C 
ATOM     11  C   UNL     1      32.654 -23.253 -16.236  0.00  0.00    -0.000 C 
ATOM     12  C   UNL     1      31.973 -23.476 -15.038  0.00  0.00    -0.000 C 
ENDBRANCH   6   7
ENDBRANCH   1   6
BRANCH   1  13
ATOM     13  C   UNL     1      37.745 -24.750 -13.385  0.00  0.00    +0.205 C 
BRANCH  13  16
ATOM     14  O   UNL     1      36.546 -25.858 -11.725  0.00  0.00    -0.131 OA
ATOM     15  O   UNL     1      37.837 -24.174 -11.134  0.00  0.00    -0.131 OA
ATOM     16  N   UNL     1      37.340 -24.938 -11.978  0.00  0.00    +0.035 N 
ENDBRANCH  13  16
ENDBRANCH   1  13
TORSDOF 6
ENDMDL
