MODEL 1
REMARK VINA RESULT:      -6.0      0.000      0.000
REMARK  Name = 6971091
REMARK  5 active torsions:
REMARK  status: ('A' for Active; 'I' for Inactive)
REMARK    1  A    between atoms: CA_1  and  N_2
REMARK    2  A    between atoms: CA_1  and  C_8
REMARK    3  A    between atoms: CA_1  and  C_9
REMARK    4  A    between atoms: C_9  and  C_10
REMARK    5  A    between atoms: C_10  and  C_14
REMARK                            x       y       z     vdW  Elec       q    Type
REMARK                         _______ _______ _______ _____ _____    ______ ____
ROOT
ATOM      1  CA  UNL     1      36.724 -25.524 -14.238  0.00  0.00    +0.041 C 
ENDROOT
BRANCH   1   2
ATOM      2  N   UNL     1      35.252 -25.428 -14.463  0.00  0.00    +0.389 N 
ATOM      3  H1  UNL     1      34.783 -25.262 -13.573  0.00  0.00    -0.088 HD
ATOM      4  H2  UNL     1      34.912 -26.299 -14.870  0.00  0.00    -0.088 HD
ATOM      5  H3  UNL     1      35.056 -24.656 -15.100  0.00  0.00    -0.088 HD
ENDBRANCH   1   2
BRANCH   1   8
ATOM      6  O   UNL     1      38.588 -26.914 -14.708  0.00  0.00    -0.248 OA
ATOM      7  OXT UNL     1      36.684 -27.146 -15.952  0.00  0.00    -0.248 OA
ATOM      8  C   UNL     1      37.402 -26.637 -15.045  0.00  0.00    +0.345 C 
ENDBRANCH   1   8
BRANCH   1   9
ATOM      9  C   UNL     1      36.988 -25.810 -12.752  0.00  0.00    +0.000 C 
BRANCH   9  10
ATOM     10  C   UNL     1      37.103 -24.557 -11.874  0.00  0.00    +0.102 C 
ATOM     11  C   UNL     1      37.312 -23.317 -12.742  0.00  0.00    +0.012 C 
BRANCH  10  14
ATOM     12  O   UNL     1      36.000 -24.263  -9.782  0.00  0.00    -0.246 OA
ATOM     13  O   UNL     1      34.806 -24.028 -11.715  0.00  0.00    -0.246 OA
ATOM     14  C   UNL     1      35.848 -24.254 -11.035  0.00  0.00    +0.364 C 
ENDBRANCH  10  14
ENDBRANCH   9  10
ENDBRANCH   1   9
TORSDOF 5
ENDMDL
MODEL 2
REMARK VINA RESULT:      -5.9      1.482      4.703
REMARK  Name = 6971091
REMARK  5 active torsions:
REMARK  status: ('A' for Active; 'I' for Inactive)
REMARK    1  A    between atoms: CA_1  and  N_2
REMARK    2  A    between atoms: CA_1  and  C_8
REMARK    3  A    between atoms: CA_1  and  C_9
REMARK    4  A    between atoms: C_9  and  C_10
REMARK    5  A    between atoms: C_10  and  C_14
REMARK                            x       y       z     vdW  Elec       q    Type
REMARK                         _______ _______ _______ _____ _____    ______ ____
ROOT
ATOM      1  CA  UNL     1      36.953 -24.185 -12.109  0.00  0.00    +0.041 C 
ENDROOT
BRANCH   1   2
ATOM      2  N   UNL     1      38.278 -23.738 -11.590  0.00  0.00    +0.389 N 
ATOM      3  H1  UNL     1      38.804 -23.292 -12.342  0.00  0.00    -0.088 HD
ATOM      4  H2  UNL     1      38.797 -24.543 -11.242  0.00  0.00    -0.088 HD
ATOM      5  H3  UNL     1      38.137 -23.070 -10.832  0.00  0.00    -0.088 HD
ENDBRANCH   1   2
BRANCH   1   8
ATOM      6  O   UNL     1      34.791 -24.863 -11.405  0.00  0.00    -0.248 OA
ATOM      7  OXT UNL     1      36.263 -24.046  -9.857  0.00  0.00    -0.248 OA
ATOM      8  C   UNL     1      35.896 -24.385 -11.018  0.00  0.00    +0.345 C 
ENDBRANCH   1   8
BRANCH   1   9
ATOM      9  C   UNL     1      37.125 -25.531 -12.831  0.00  0.00    +0.000 C 
BRANCH   9  10
ATOM     10  C   UNL     1      36.633 -25.540 -14.285  0.00  0.00    +0.102 C 
ATOM     11  C   UNL     1      37.125 -24.295 -15.021  0.00  0.00    +0.012 C 
BRANCH  10  14
ATOM     12  O   UNL     1      36.402 -27.105 -16.068  0.00  0.00    -0.246 OA
ATOM     13  O   UNL     1      38.264 -27.186 -14.747  0.00  0.00    -0.246 OA
ATOM     14  C   UNL     1      37.146 -26.729 -15.119  0.00  0.00    +0.364 C 
ENDBRANCH  10  14
ENDBRANCH   9  10
ENDBRANCH   1   9
TORSDOF 5
ENDMDL
MODEL 3
REMARK VINA RESULT:      -5.9      1.839      2.088
REMARK  Name = 6971091
REMARK  5 active torsions:
REMARK  status: ('A' for Active; 'I' for Inactive)
REMARK    1  A    between atoms: CA_1  and  N_2
REMARK    2  A    between atoms: CA_1  and  C_8
REMARK    3  A    between atoms: CA_1  and  C_9
REMARK    4  A    between atoms: C_9  and  C_10
REMARK    5  A    between atoms: C_10  and  C_14
REMARK                            x       y       z     vdW  Elec       q    Type
REMARK                         _______ _______ _______ _____ _____    ______ ____
ROOT
ATOM      1  CA  UNL     1      38.576 -24.940 -14.084  0.00  0.00    +0.041 C 
ENDROOT
BRANCH   1   2
ATOM      2  N   UNL     1      37.559 -25.215 -15.139  0.00  0.00    +0.389 N 
ATOM      3  H1  UNL     1      37.356 -26.215 -15.164  0.00  0.00    -0.088 HD
ATOM      4  H2  UNL     1      37.919 -24.918 -16.046  0.00  0.00    -0.088 HD
ATOM      5  H3  UNL     1      36.704 -24.700 -14.929  0.00  0.00    -0.088 HD
ENDBRANCH   1   2
BRANCH   1   8
ATOM      6  O   UNL     1      40.915 -24.655 -14.364  0.00  0.00    -0.248 OA
ATOM      7  OXT UNL     1      39.999 -26.727 -14.679  0.00  0.00    -0.248 OA
ATOM      8  C   UNL     1      39.969 -25.492 -14.408  0.00  0.00    +0.345 C 
ENDBRANCH   1   8
BRANCH   1   9
ATOM      9  C   UNL     1      38.122 -25.588 -12.767  0.00  0.00    +0.000 C 
BRANCH   9  10
ATOM     10  C   UNL     1      37.403 -24.635 -11.804  0.00  0.00    +0.102 C 
ATOM     11  C   UNL     1      37.657 -23.182 -12.205  0.00  0.00    +0.012 C 
BRANCH  10  14
ATOM     12  O   UNL     1      35.347 -25.062 -10.675  0.00  0.00    -0.246 OA
ATOM     13  O   UNL     1      35.317 -24.608 -12.914  0.00  0.00    -0.246 OA
ATOM     14  C   UNL     1      35.870 -24.786 -11.791  0.00  0.00    +0.364 C 
ENDBRANCH  10  14
ENDBRANCH   9  10
ENDBRANCH   1   9
TORSDOF 5
ENDMDL
MODEL 4
REMARK VINA RESULT:      -5.9      1.861      4.562
REMARK  Name = 6971091
REMARK  5 active torsions:
REMARK  status: ('A' for Active; 'I' for Inactive)
REMARK    1  A    between atoms: CA_1  and  N_2
REMARK    2  A    between atoms: CA_1  and  C_8
REMARK    3  A    between atoms: CA_1  and  C_9
REMARK    4  A    between atoms: C_9  and  C_10
REMARK    5  A    between atoms: C_10  and  C_14
REMARK                            x       y       z     vdW  Elec       q    Type
REMARK                         _______ _______ _______ _____ _____    ______ ____
ROOT
ATOM      1  CA  UNL     1      37.068 -24.407 -12.121  0.00  0.00    +0.041 C 
ENDROOT
BRANCH   1   2
ATOM      2  N   UNL     1      38.300 -23.722 -11.633  0.00  0.00    +0.389 N 
ATOM      3  H1  UNL     1      38.845 -23.393 -12.430  0.00  0.00    -0.088 HD
ATOM      4  H2  UNL     1      38.859 -24.376 -11.085  0.00  0.00    -0.088 HD
ATOM      5  H3  UNL     1      38.038 -22.928 -11.049  0.00  0.00    -0.088 HD
ENDBRANCH   1   2
BRANCH   1   8
ATOM      6  O   UNL     1      36.246 -24.088  -9.918  0.00  0.00    -0.248 OA
ATOM      7  OXT UNL     1      34.834 -24.883 -11.531  0.00  0.00    -0.248 OA
ATOM      8  C   UNL     1      35.940 -24.465 -11.085  0.00  0.00    +0.345 C 
ENDBRANCH   1   8
BRANCH   1   9
ATOM      9  C   UNL     1      37.415 -25.855 -12.500  0.00  0.00    +0.000 C 
BRANCH   9  10
ATOM     10  C   UNL     1      37.642 -26.083 -14.000  0.00  0.00    +0.102 C 
ATOM     11  C   UNL     1      36.714 -25.187 -14.821  0.00  0.00    +0.012 C 
BRANCH  10  14
ATOM     12  O   UNL     1      39.320 -24.513 -14.631  0.00  0.00    -0.246 OA
ATOM     13  O   UNL     1      39.808 -26.745 -14.675  0.00  0.00    -0.246 OA
ATOM     14  C   UNL     1      39.063 -25.741 -14.485  0.00  0.00    +0.364 C 
ENDBRANCH  10  14
ENDBRANCH   9  10
ENDBRANCH   1   9
TORSDOF 5
ENDMDL
MODEL 5
REMARK VINA RESULT:      -5.8      1.265      4.443
REMARK  Name = 6971091
REMARK  5 active torsions:
REMARK  status: ('A' for Active; 'I' for Inactive)
REMARK    1  A    between atoms: CA_1  and  N_2
REMARK    2  A    between atoms: CA_1  and  C_8
REMARK    3  A    between atoms: CA_1  and  C_9
REMARK    4  A    between atoms: C_9  and  C_10
REMARK    5  A    between atoms: C_10  and  C_14
REMARK                            x       y       z     vdW  Elec       q    Type
REMARK                         _______ _______ _______ _____ _____    ______ ____
ROOT
ATOM      1  CA  UNL     1      35.861 -24.487 -12.101  0.00  0.00    +0.041 C 
ENDROOT
BRANCH   1   2
ATOM      2  N   UNL     1      35.152 -23.575 -13.044  0.00  0.00    +0.389 N 
ATOM      3  H1  UNL     1      34.447 -23.041 -12.535  0.00  0.00    -0.088 HD
ATOM      4  H2  UNL     1      34.701 -24.125 -13.775  0.00  0.00    -0.088 HD
ATOM      5  H3  UNL     1      35.824 -22.934 -13.466  0.00  0.00    -0.088 HD
ENDBRANCH   1   2
BRANCH   1   8
ATOM      6  O   UNL     1      37.271 -22.845 -11.129  0.00  0.00    -0.248 OA
ATOM      7  OXT UNL     1      36.045 -24.211  -9.765  0.00  0.00    -0.248 OA
ATOM      8  C   UNL     1      36.453 -23.776 -10.879  0.00  0.00    +0.345 C 
ENDBRANCH   1   8
BRANCH   1   9
ATOM      9  C   UNL     1      37.022 -25.171 -12.840  0.00  0.00    +0.000 C 
BRANCH   9  10
ATOM     10  C   UNL     1      36.898 -25.158 -14.369  0.00  0.00    +0.102 C 
ATOM     11  C   UNL     1      37.945 -24.226 -14.979  0.00  0.00    +0.012 C 
BRANCH  10  14
ATOM     12  O   UNL     1      38.172 -27.151 -14.661  0.00  0.00    -0.246 OA
ATOM     13  O   UNL     1      36.264 -26.858 -15.883  0.00  0.00    -0.246 OA
ATOM     14  C   UNL     1      37.141 -26.525 -15.035  0.00  0.00    +0.364 C 
ENDBRANCH  10  14
ENDBRANCH   9  10
ENDBRANCH   1   9
TORSDOF 5
ENDMDL
MODEL 6
REMARK VINA RESULT:      -5.7      2.119      4.743
REMARK  Name = 6971091
REMARK  5 active torsions:
REMARK  status: ('A' for Active; 'I' for Inactive)
REMARK    1  A    between atoms: CA_1  and  N_2
REMARK    2  A    between atoms: CA_1  and  C_8
REMARK    3  A    between atoms: CA_1  and  C_9
REMARK    4  A    between atoms: C_9  and  C_10
REMARK    5  A    between atoms: C_10  and  C_14
REMARK                            x       y       z     vdW  Elec       q    Type
REMARK                         _______ _______ _______ _____ _____    ______ ____
ROOT
ATOM      1  CA  UNL     1      36.709 -23.968 -12.894  0.00  0.00    +0.041 C 
ENDROOT
BRANCH   1   2
ATOM      2  N   UNL     1      35.699 -23.128 -13.600  0.00  0.00    +0.389 N 
ATOM      3  H1  UNL     1      34.810 -23.174 -13.102  0.00  0.00    -0.088 HD
ATOM      4  H2  UNL     1      35.574 -23.474 -14.551  0.00  0.00    -0.088 HD
ATOM      5  H3  UNL     1      36.023 -22.161 -13.630  0.00  0.00    -0.088 HD
ENDBRANCH   1   2
BRANCH   1   8
ATOM      6  O   UNL     1      38.129 -22.417 -11.793  0.00  0.00    -0.248 OA
ATOM      7  OXT UNL     1      36.789 -23.785 -10.542  0.00  0.00    -0.248 OA
ATOM      8  C   UNL     1      37.266 -23.325 -11.619  0.00  0.00    +0.345 C 
ENDBRANCH   1   8
BRANCH   1   9
ATOM      9  C   UNL     1      37.897 -24.223 -13.834  0.00  0.00    +0.000 C 
BRANCH   9  10
ATOM     10  C   UNL     1      38.567 -25.592 -13.655  0.00  0.00    +0.102 C 
ATOM     11  C   UNL     1      37.781 -26.671 -14.399  0.00  0.00    +0.012 C 
BRANCH  10  14
ATOM     12  O   UNL     1      40.316 -26.767 -14.770  0.00  0.00    -0.246 OA
ATOM     13  O   UNL     1      40.684 -24.625 -14.066  0.00  0.00    -0.246 OA
ATOM     14  C   UNL     1      39.997 -25.675 -14.220  0.00  0.00    +0.364 C 
ENDBRANCH  10  14
ENDBRANCH   9  10
ENDBRANCH   1   9
TORSDOF 5
ENDMDL
MODEL 7
REMARK VINA RESULT:      -5.7      1.774      2.277
REMARK  Name = 6971091
REMARK  5 active torsions:
REMARK  status: ('A' for Active; 'I' for Inactive)
REMARK    1  A    between atoms: CA_1  and  N_2
REMARK    2  A    between atoms: CA_1  and  C_8
REMARK    3  A    between atoms: CA_1  and  C_9
REMARK    4  A    between atoms: C_9  and  C_10
REMARK    5  A    between atoms: C_10  and  C_14
REMARK                            x       y       z     vdW  Elec       q    Type
REMARK                         _______ _______ _______ _____ _____    ______ ____
ROOT
ATOM      1  CA  UNL     1      37.022 -25.844 -13.514  0.00  0.00    +0.041 C 
ENDROOT
BRANCH   1   2
ATOM      2  N   UNL     1      38.153 -26.080 -12.570  0.00  0.00    +0.389 N 
ATOM      3  H1  UNL     1      38.002 -26.957 -12.072  0.00  0.00    -0.088 HD
ATOM      4  H2  UNL     1      38.203 -25.313 -11.901  0.00  0.00    -0.088 HD
ATOM      5  H3  UNL     1      39.026 -26.133 -13.094  0.00  0.00    -0.088 HD
ENDBRANCH   1   2
BRANCH   1   8
ATOM      6  O   UNL     1      36.136 -26.543 -15.600  0.00  0.00    -0.248 OA
ATOM      7  OXT UNL     1      38.152 -27.373 -14.911  0.00  0.00    -0.248 OA
ATOM      8  C   UNL     1      37.109 -26.668 -14.803  0.00  0.00    +0.345 C 
ENDBRANCH   1   8
BRANCH   1   9
ATOM      9  C   UNL     1      37.006 -24.361 -13.918  0.00  0.00    +0.000 C 
BRANCH   9  10
ATOM     10  C   UNL     1      36.354 -23.428 -12.890  0.00  0.00    +0.102 C 
ATOM     11  C   UNL     1      35.066 -24.049 -12.350  0.00  0.00    +0.012 C 
BRANCH  10  14
ATOM     12  O   UNL     1      38.165 -22.331 -11.796  0.00  0.00    -0.246 OA
ATOM     13  O   UNL     1      36.869 -23.794 -10.613  0.00  0.00    -0.246 OA
ATOM     14  C   UNL     1      37.219 -23.154 -11.646  0.00  0.00    +0.364 C 
ENDBRANCH  10  14
ENDBRANCH   9  10
ENDBRANCH   1   9
TORSDOF 5
ENDMDL
MODEL 8
REMARK VINA RESULT:      -5.6      6.770      7.619
REMARK  Name = 6971091
REMARK  5 active torsions:
REMARK  status: ('A' for Active; 'I' for Inactive)
REMARK    1  A    between atoms: CA_1  and  N_2
REMARK    2  A    between atoms: CA_1  and  C_8
REMARK    3  A    between atoms: CA_1  and  C_9
REMARK    4  A    between atoms: C_9  and  C_10
REMARK    5  A    between atoms: C_10  and  C_14
REMARK                            x       y       z     vdW  Elec       q    Type
REMARK                         _______ _______ _______ _____ _____    ______ ____
ROOT
ATOM      1  CA  UNL     1      28.783 -23.511 -15.335  0.00  0.00    +0.041 C 
ENDROOT
BRANCH   1   2
ATOM      2  N   UNL     1      28.822 -24.973 -15.045  0.00  0.00    +0.389 N 
ATOM      3  H1  UNL     1      29.584 -25.170 -14.395  0.00  0.00    -0.088 HD
ATOM      4  H2  UNL     1      28.973 -25.488 -15.912  0.00  0.00    -0.088 HD
ATOM      5  H3  UNL     1      27.937 -25.260 -14.628  0.00  0.00    -0.088 HD
ENDBRANCH   1   2
BRANCH   1   8
ATOM      6  O   UNL     1      28.469 -21.970 -17.112  0.00  0.00    -0.248 OA
ATOM      7  OXT UNL     1      27.838 -24.149 -17.401  0.00  0.00    -0.248 OA
ATOM      8  C   UNL     1      28.318 -23.174 -16.756  0.00  0.00    +0.345 C 
ENDBRANCH   1   8
BRANCH   1   9
ATOM      9  C   UNL     1      30.194 -22.926 -15.165  0.00  0.00    +0.000 C 
BRANCH   9  10
ATOM     10  C   UNL     1      31.331 -23.921 -15.429  0.00  0.00    +0.102 C 
ATOM     11  C   UNL     1      32.365 -23.309 -16.372  0.00  0.00    +0.012 C 
BRANCH  10  14
ATOM     12  O   UNL     1      33.371 -24.130 -14.213  0.00  0.00    -0.246 OA
ATOM     13  O   UNL     1      31.417 -24.803 -13.238  0.00  0.00    -0.246 OA
ATOM     14  C   UNL     1      32.124 -24.324 -14.171  0.00  0.00    +0.364 C 
ENDBRANCH  10  14
ENDBRANCH   9  10
ENDBRANCH   1   9
TORSDOF 5
ENDMDL
MODEL 9
REMARK VINA RESULT:      -5.5      9.390     10.357
REMARK  Name = 6971091
REMARK  5 active torsions:
REMARK  status: ('A' for Active; 'I' for Inactive)
REMARK    1  A    between atoms: CA_1  and  N_2
REMARK    2  A    between atoms: CA_1  and  C_8
REMARK    3  A    between atoms: CA_1  and  C_9
REMARK    4  A    between atoms: C_9  and  C_10
REMARK    5  A    between atoms: C_10  and  C_14
REMARK                            x       y       z     vdW  Elec       q    Type
REMARK                         _______ _______ _______ _____ _____    ______ ____
ROOT
ATOM      1  CA  UNL     1      35.869 -18.813 -21.553  0.00  0.00    +0.041 C 
ENDROOT
BRANCH   1   2
ATOM      2  N   UNL     1      36.737 -19.119 -20.379  0.00  0.00    +0.389 N 
ATOM      3  H1  UNL     1      36.580 -20.083 -20.083  0.00  0.00    -0.088 HD
ATOM      4  H2  UNL     1      36.508 -18.487 -19.612  0.00  0.00    -0.088 HD
ATOM      5  H3  UNL     1      37.715 -18.998 -20.640  0.00  0.00    -0.088 HD
ENDBRANCH   1   2
BRANCH   1   8
ATOM      6  O   UNL     1      35.329 -16.818 -20.388  0.00  0.00    -0.248 OA
ATOM      7  OXT UNL     1      34.564 -17.103 -22.524  0.00  0.00    -0.248 OA
ATOM      8  C   UNL     1      35.187 -17.442 -21.477  0.00  0.00    +0.345 C 
ENDBRANCH   1   8
BRANCH   1   9
ATOM      9  C   UNL     1      34.759 -19.871 -21.647  0.00  0.00    +0.000 C 
BRANCH   9  10
ATOM     10  C   UNL     1      33.977 -20.092 -20.346  0.00  0.00    +0.102 C 
ATOM     11  C   UNL     1      32.480 -19.904 -20.587  0.00  0.00    +0.012 C 
BRANCH  10  14
ATOM     12  O   UNL     1      33.051 -22.182 -19.671  0.00  0.00    -0.246 OA
ATOM     13  O   UNL     1      35.295 -21.827 -19.430  0.00  0.00    -0.246 OA
ATOM     14  C   UNL     1      34.115 -21.508 -19.757  0.00  0.00    +0.364 C 
ENDBRANCH  10  14
ENDBRANCH   9  10
ENDBRANCH   1   9
TORSDOF 5
ENDMDL
