MODEL 1
REMARK VINA RESULT:      -7.5      0.000      0.000
REMARK  Name = 69550
REMARK  3 active torsions:
REMARK  status: ('A' for Active; 'I' for Inactive)
REMARK    1  A    between atoms: N_3  and  C_14
REMARK    2  A    between atoms: C_14  and  C_16
REMARK    3  A    between atoms: C_16  and  O_17
REMARK                            x       y       z     vdW  Elec       q    Type
REMARK                         _______ _______ _______ _____ _____    ______ ____
ROOT
ATOM      1  O   UNL     1      38.769 -23.119 -16.045  0.00  0.00    -0.272 OA
ATOM      2  O   UNL     1      34.103 -22.894 -15.610  0.00  0.00    -0.252 OA
ATOM      3  N   UNL     1      38.695 -24.833 -13.595  0.00  0.00    -0.230 NA
ATOM      4  N   UNL     1      35.292 -24.133 -14.040  0.00  0.00    -0.228 N 
ATOM      5  N   UNL     1      36.431 -22.992 -15.847  0.00  0.00    -0.211 N 
ATOM      6  N   UNL     1      36.805 -25.362 -12.537  0.00  0.00    -0.240 NA
ATOM      7  C   UNL     1      37.687 -24.230 -14.291  0.00  0.00    +0.192 C 
ATOM      8  C   UNL     1      36.542 -24.569 -13.621  0.00  0.00    +0.136 C 
ATOM      9  C   UNL     1      37.730 -23.413 -15.459  0.00  0.00    +0.254 C 
ATOM     10  C   UNL     1      35.188 -23.312 -15.191  0.00  0.00    +0.318 C 
ATOM     11  C   UNL     1      38.114 -25.502 -12.548  0.00  0.00    +0.203 C 
ATOM     12  C   UNL     1      34.101 -24.521 -13.295  0.00  0.00    +0.123 C 
ATOM     13  C   UNL     1      36.345 -22.147 -17.034  0.00  0.00    +0.124 C 
ENDROOT
BRANCH   3  14
ATOM     14  C   UNL     1      40.109 -24.791 -13.882  0.00  0.00    +0.185 C 
BRANCH  14  16
ATOM     15  O   UNL     1      41.151 -26.968 -14.207  0.00  0.00    -0.249 OA
ATOM     16  C   UNL     1      40.571 -25.992 -14.659  0.00  0.00    +0.330 C 
BRANCH  16  17
ATOM     17  O   UNL     1      40.255 -25.845 -15.971  0.00  0.00    -0.479 OA
ATOM     18  H   UNL     1      40.321 -26.576 -16.553  0.00  0.00    +0.295 HD
ENDBRANCH  16  17
ENDBRANCH  14  16
ENDBRANCH   3  14
TORSDOF 3
ENDMDL
MODEL 2
REMARK VINA RESULT:      -7.5      2.278      3.896
REMARK  Name = 69550
REMARK  3 active torsions:
REMARK  status: ('A' for Active; 'I' for Inactive)
REMARK    1  A    between atoms: N_3  and  C_14
REMARK    2  A    between atoms: C_14  and  C_16
REMARK    3  A    between atoms: C_16  and  O_17
REMARK                            x       y       z     vdW  Elec       q    Type
REMARK                         _______ _______ _______ _____ _____    ______ ____
ROOT
ATOM      1  O   UNL     1      34.260 -24.521 -12.450  0.00  0.00    -0.272 OA
ATOM      2  O   UNL     1      31.714 -23.533 -16.265  0.00  0.00    -0.252 OA
ATOM      3  N   UNL     1      36.634 -23.765 -14.107  0.00  0.00    -0.230 NA
ATOM      4  N   UNL     1      34.023 -23.276 -16.391  0.00  0.00    -0.228 N 
ATOM      5  N   UNL     1      32.964 -24.032 -14.348  0.00  0.00    -0.211 N 
ATOM      6  N   UNL     1      36.473 -23.098 -16.228  0.00  0.00    -0.240 NA
ATOM      7  C   UNL     1      35.304 -23.790 -14.415  0.00  0.00    +0.192 C 
ATOM      8  C   UNL     1      35.234 -23.378 -15.718  0.00  0.00    +0.136 C 
ATOM      9  C   UNL     1      34.177 -24.152 -13.619  0.00  0.00    +0.254 C 
ATOM     10  C   UNL     1      32.820 -23.605 -15.717  0.00  0.00    +0.318 C 
ATOM     11  C   UNL     1      37.296 -23.342 -15.230  0.00  0.00    +0.203 C 
ATOM     12  C   UNL     1      33.999 -22.832 -17.779  0.00  0.00    +0.123 C 
ATOM     13  C   UNL     1      31.737 -24.376 -13.638  0.00  0.00    +0.124 C 
ENDROOT
BRANCH   3  14
ATOM     14  C   UNL     1      37.251 -24.113 -12.849  0.00  0.00    +0.185 C 
BRANCH  14  16
ATOM     15  O   UNL     1      38.551 -26.126 -13.284  0.00  0.00    -0.249 OA
ATOM     16  C   UNL     1      37.593 -25.574 -12.764  0.00  0.00    +0.330 C 
BRANCH  16  17
ATOM     17  O   UNL     1      36.667 -26.224 -12.014  0.00  0.00    -0.479 OA
ATOM     18  H   UNL     1      35.955 -25.748 -11.633  0.00  0.00    +0.295 HD
ENDBRANCH  16  17
ENDBRANCH  14  16
ENDBRANCH   3  14
TORSDOF 3
ENDMDL
MODEL 3
REMARK VINA RESULT:      -7.5     11.254     14.494
REMARK  Name = 69550
REMARK  3 active torsions:
REMARK  status: ('A' for Active; 'I' for Inactive)
REMARK    1  A    between atoms: N_3  and  C_14
REMARK    2  A    between atoms: C_14  and  C_16
REMARK    3  A    between atoms: C_16  and  O_17
REMARK                            x       y       z     vdW  Elec       q    Type
REMARK                         _______ _______ _______ _____ _____    ______ ____
ROOT
ATOM      1  O   UNL     1      34.198 -17.436 -25.718  0.00  0.00    -0.272 OA
ATOM      2  O   UNL     1      35.461 -17.474 -21.200  0.00  0.00    -0.252 OA
ATOM      3  N   UNL     1      33.291 -14.631 -25.215  0.00  0.00    -0.230 NA
ATOM      4  N   UNL     1      34.502 -15.534 -22.054  0.00  0.00    -0.228 N 
ATOM      5  N   UNL     1      34.839 -17.479 -23.458  0.00  0.00    -0.211 N 
ATOM      6  N   UNL     1      33.468 -13.634 -23.228  0.00  0.00    -0.240 NA
ATOM      7  C   UNL     1      33.864 -15.545 -24.378  0.00  0.00    +0.192 C 
ATOM      8  C   UNL     1      33.960 -14.910 -23.170  0.00  0.00    +0.136 C 
ATOM      9  C   UNL     1      34.294 -16.883 -24.626  0.00  0.00    +0.254 C 
ATOM     10  C   UNL     1      34.971 -16.868 -22.159  0.00  0.00    +0.318 C 
ATOM     11  C   UNL     1      33.072 -13.497 -24.476  0.00  0.00    +0.203 C 
ATOM     12  C   UNL     1      34.584 -14.816 -20.789  0.00  0.00    +0.123 C 
ATOM     13  C   UNL     1      35.315 -18.852 -23.586  0.00  0.00    +0.124 C 
ENDROOT
BRANCH   3  14
ATOM     14  C   UNL     1      32.967 -14.799 -26.610  0.00  0.00    +0.185 C 
BRANCH  14  16
ATOM     15  O   UNL     1      34.421 -13.222 -27.763  0.00  0.00    -0.249 OA
ATOM     16  C   UNL     1      33.303 -13.583 -27.428  0.00  0.00    +0.330 C 
BRANCH  16  17
ATOM     17  O   UNL     1      32.167 -12.914 -27.752  0.00  0.00    -0.479 OA
ATOM     18  H   UNL     1      32.106 -11.992 -27.599  0.00  0.00    +0.295 HD
ENDBRANCH  16  17
ENDBRANCH  14  16
ENDBRANCH   3  14
TORSDOF 3
ENDMDL
MODEL 4
REMARK VINA RESULT:      -7.4     10.929     14.194
REMARK  Name = 69550
REMARK  3 active torsions:
REMARK  status: ('A' for Active; 'I' for Inactive)
REMARK    1  A    between atoms: N_3  and  C_14
REMARK    2  A    between atoms: C_14  and  C_16
REMARK    3  A    between atoms: C_16  and  O_17
REMARK                            x       y       z     vdW  Elec       q    Type
REMARK                         _______ _______ _______ _____ _____    ______ ____
ROOT
ATOM      1  O   UNL     1      32.367 -13.676 -23.225  0.00  0.00    -0.272 OA
ATOM      2  O   UNL     1      34.885 -16.090 -20.088  0.00  0.00    -0.252 OA
ATOM      3  N   UNL     1      33.530 -15.533 -25.262  0.00  0.00    -0.230 NA
ATOM      4  N   UNL     1      35.016 -16.726 -22.323  0.00  0.00    -0.228 N 
ATOM      5  N   UNL     1      33.619 -14.870 -21.636  0.00  0.00    -0.211 N 
ATOM      6  N   UNL     1      34.955 -17.167 -24.743  0.00  0.00    -0.240 NA
ATOM      7  C   UNL     1      33.711 -15.468 -23.910  0.00  0.00    +0.192 C 
ATOM      8  C   UNL     1      34.587 -16.478 -23.620  0.00  0.00    +0.136 C 
ATOM      9  C   UNL     1      33.152 -14.578 -22.945  0.00  0.00    +0.254 C 
ATOM     10  C   UNL     1      34.538 -15.916 -21.262  0.00  0.00    +0.318 C 
ATOM     11  C   UNL     1      34.300 -16.572 -25.718  0.00  0.00    +0.203 C 
ATOM     12  C   UNL     1      35.950 -17.814 -22.063  0.00  0.00    +0.123 C 
ATOM     13  C   UNL     1      33.117 -14.025 -20.558  0.00  0.00    +0.124 C 
ENDROOT
BRANCH   3  14
ATOM     14  C   UNL     1      32.696 -14.684 -26.079  0.00  0.00    +0.185 C 
BRANCH  14  16
ATOM     15  O   UNL     1      33.943 -13.537 -27.828  0.00  0.00    -0.249 OA
ATOM     16  C   UNL     1      33.467 -13.554 -26.703  0.00  0.00    +0.330 C 
BRANCH  16  17
ATOM     17  O   UNL     1      33.572 -12.524 -25.825  0.00  0.00    -0.479 OA
ATOM     18  H   UNL     1      34.412 -12.160 -25.628  0.00  0.00    +0.295 HD
ENDBRANCH  16  17
ENDBRANCH  14  16
ENDBRANCH   3  14
TORSDOF 3
ENDMDL
MODEL 5
REMARK VINA RESULT:      -7.4      2.542      3.461
REMARK  Name = 69550
REMARK  3 active torsions:
REMARK  status: ('A' for Active; 'I' for Inactive)
REMARK    1  A    between atoms: N_3  and  C_14
REMARK    2  A    between atoms: C_14  and  C_16
REMARK    3  A    between atoms: C_16  and  O_17
REMARK                            x       y       z     vdW  Elec       q    Type
REMARK                         _______ _______ _______ _____ _____    ______ ____
ROOT
ATOM      1  O   UNL     1      35.663 -23.191 -16.809  0.00  0.00    -0.272 OA
ATOM      2  O   UNL     1      30.986 -22.857 -16.984  0.00  0.00    -0.252 OA
ATOM      3  N   UNL     1      35.282 -23.966 -13.945  0.00  0.00    -0.230 NA
ATOM      4  N   UNL     1      31.967 -23.479 -14.967  0.00  0.00    -0.228 N 
ATOM      5  N   UNL     1      33.323 -23.017 -16.920  0.00  0.00    -0.211 N 
ATOM      6  N   UNL     1      33.276 -24.112 -12.982  0.00  0.00    -0.240 NA
ATOM      7  C   UNL     1      34.370 -23.643 -14.909  0.00  0.00    +0.192 C 
ATOM      8  C   UNL     1      33.152 -23.739 -14.293  0.00  0.00    +0.136 C 
ATOM      9  C   UNL     1      34.560 -23.273 -16.274  0.00  0.00    +0.254 C 
ATOM     10  C   UNL     1      32.009 -23.101 -16.333  0.00  0.00    +0.318 C 
ATOM     11  C   UNL     1      34.574 -24.241 -12.803  0.00  0.00    +0.203 C 
ATOM     12  C   UNL     1      30.693 -23.596 -14.268  0.00  0.00    +0.123 C 
ATOM     13  C   UNL     1      33.387 -22.629 -18.325  0.00  0.00    +0.124 C 
ENDROOT
BRANCH   3  14
ATOM     14  C   UNL     1      36.718 -24.016 -14.075  0.00  0.00    +0.185 C 
BRANCH  14  16
ATOM     15  O   UNL     1      37.710 -26.160 -13.481  0.00  0.00    -0.249 OA
ATOM     16  C   UNL     1      37.223 -25.412 -14.316  0.00  0.00    +0.330 C 
BRANCH  16  17
ATOM     17  O   UNL     1      37.066 -25.742 -15.623  0.00  0.00    -0.479 OA
ATOM     18  H   UNL     1      36.274 -26.152 -15.910  0.00  0.00    +0.295 HD
ENDBRANCH  16  17
ENDBRANCH  14  16
ENDBRANCH   3  14
TORSDOF 3
ENDMDL
MODEL 6
REMARK VINA RESULT:      -7.2      8.824     11.680
REMARK  Name = 69550
REMARK  3 active torsions:
REMARK  status: ('A' for Active; 'I' for Inactive)
REMARK    1  A    between atoms: N_3  and  C_14
REMARK    2  A    between atoms: C_14  and  C_16
REMARK    3  A    between atoms: C_16  and  O_17
REMARK                            x       y       z     vdW  Elec       q    Type
REMARK                         _______ _______ _______ _____ _____    ______ ____
ROOT
ATOM      1  O   UNL     1      34.869 -16.174 -20.248  0.00  0.00    -0.272 OA
ATOM      2  O   UNL     1      32.667 -13.692 -23.565  0.00  0.00    -0.252 OA
ATOM      3  N   UNL     1      35.603 -18.057 -22.453  0.00  0.00    -0.230 NA
ATOM      4  N   UNL     1      33.757 -15.647 -24.200  0.00  0.00    -0.228 N 
ATOM      5  N   UNL     1      33.759 -14.914 -21.891  0.00  0.00    -0.211 N 
ATOM      6  N   UNL     1      34.988 -17.745 -24.574  0.00  0.00    -0.240 NA
ATOM      7  C   UNL     1      34.880 -16.899 -22.475  0.00  0.00    +0.192 C 
ATOM      8  C   UNL     1      34.515 -16.732 -23.783  0.00  0.00    +0.136 C 
ATOM      9  C   UNL     1      34.533 -16.006 -21.417  0.00  0.00    +0.254 C 
ATOM     10  C   UNL     1      33.344 -14.678 -23.251  0.00  0.00    +0.318 C 
ATOM     11  C   UNL     1      35.641 -18.528 -23.740  0.00  0.00    +0.203 C 
ATOM     12  C   UNL     1      33.395 -15.511 -25.605  0.00  0.00    +0.123 C 
ATOM     13  C   UNL     1      33.343 -13.929 -20.900  0.00  0.00    +0.124 C 
ENDROOT
BRANCH   3  14
ATOM     14  C   UNL     1      36.220 -18.687 -21.311  0.00  0.00    +0.185 C 
BRANCH  14  16
ATOM     15  O   UNL     1      34.154 -19.921 -20.935  0.00  0.00    -0.249 OA
ATOM     16  C   UNL     1      35.332 -19.724 -20.680  0.00  0.00    +0.330 C 
BRANCH  16  17
ATOM     17  O   UNL     1      36.032 -20.432 -19.757  0.00  0.00    -0.479 OA
ATOM     18  H   UNL     1      35.982 -20.198 -18.851  0.00  0.00    +0.295 HD
ENDBRANCH  16  17
ENDBRANCH  14  16
ENDBRANCH   3  14
TORSDOF 3
ENDMDL
MODEL 7
REMARK VINA RESULT:      -7.2      3.846      7.434
REMARK  Name = 69550
REMARK  3 active torsions:
REMARK  status: ('A' for Active; 'I' for Inactive)
REMARK    1  A    between atoms: N_3  and  C_14
REMARK    2  A    between atoms: C_14  and  C_16
REMARK    3  A    between atoms: C_16  and  O_17
REMARK                            x       y       z     vdW  Elec       q    Type
REMARK                         _______ _______ _______ _____ _____    ______ ____
ROOT
ATOM      1  O   UNL     1      31.489 -23.015 -17.601  0.00  0.00    -0.272 OA
ATOM      2  O   UNL     1      35.706 -23.307 -15.564  0.00  0.00    -0.252 OA
ATOM      3  N   UNL     1      30.408 -24.039 -15.007  0.00  0.00    -0.230 NA
ATOM      4  N   UNL     1      33.841 -23.934 -14.321  0.00  0.00    -0.228 N 
ATOM      5  N   UNL     1      33.611 -23.153 -16.602  0.00  0.00    -0.211 N 
ATOM      6  N   UNL     1      31.702 -24.526 -13.258  0.00  0.00    -0.240 NA
ATOM      7  C   UNL     1      31.690 -23.772 -15.394  0.00  0.00    +0.192 C 
ATOM      8  C   UNL     1      32.461 -24.079 -14.306  0.00  0.00    +0.136 C 
ATOM      9  C   UNL     1      32.198 -23.284 -16.635  0.00  0.00    +0.254 C 
ATOM     10  C   UNL     1      34.481 -23.456 -15.493  0.00  0.00    +0.318 C 
ATOM     11  C   UNL     1      30.467 -24.490 -13.713  0.00  0.00    +0.203 C 
ATOM     12  C   UNL     1      34.620 -24.273 -13.137  0.00  0.00    +0.123 C 
ATOM     13  C   UNL     1      34.250 -22.660 -17.818  0.00  0.00    +0.124 C 
ENDROOT
BRANCH   3  14
ATOM     14  C   UNL     1      29.204 -23.887 -15.788  0.00  0.00    +0.185 C 
BRANCH  14  16
ATOM     15  O   UNL     1      28.407 -21.791 -14.837  0.00  0.00    -0.249 OA
ATOM     16  C   UNL     1      28.711 -22.466 -15.809  0.00  0.00    +0.330 C 
BRANCH  16  17
ATOM     17  O   UNL     1      28.643 -22.018 -17.088  0.00  0.00    -0.479 OA
ATOM     18  H   UNL     1      27.987 -21.396 -17.332  0.00  0.00    +0.295 HD
ENDBRANCH  16  17
ENDBRANCH  14  16
ENDBRANCH   3  14
TORSDOF 3
ENDMDL
MODEL 8
REMARK VINA RESULT:      -7.2      2.642      3.343
REMARK  Name = 69550
REMARK  3 active torsions:
REMARK  status: ('A' for Active; 'I' for Inactive)
REMARK    1  A    between atoms: N_3  and  C_14
REMARK    2  A    between atoms: C_14  and  C_16
REMARK    3  A    between atoms: C_16  and  O_17
REMARK                            x       y       z     vdW  Elec       q    Type
REMARK                         _______ _______ _______ _____ _____    ______ ____
ROOT
ATOM      1  O   UNL     1      36.286 -23.099 -16.362  0.00  0.00    -0.272 OA
ATOM      2  O   UNL     1      31.619 -23.184 -16.830  0.00  0.00    -0.252 OA
ATOM      3  N   UNL     1      35.798 -23.912 -13.524  0.00  0.00    -0.230 NA
ATOM      4  N   UNL     1      32.523 -23.720 -14.754  0.00  0.00    -0.228 N 
ATOM      5  N   UNL     1      33.951 -23.135 -16.620  0.00  0.00    -0.211 N 
ATOM      6  N   UNL     1      33.757 -24.238 -12.688  0.00  0.00    -0.240 NA
ATOM      7  C   UNL     1      34.923 -23.669 -14.545  0.00  0.00    +0.192 C 
ATOM      8  C   UNL     1      33.682 -23.875 -14.006  0.00  0.00    +0.136 C 
ATOM      9  C   UNL     1      35.164 -23.281 -15.896  0.00  0.00    +0.254 C 
ATOM     10  C   UNL     1      32.616 -23.338 -16.116  0.00  0.00    +0.318 C 
ATOM     11  C   UNL     1      35.048 -24.251 -12.428  0.00  0.00    +0.203 C 
ATOM     12  C   UNL     1      31.224 -23.953 -14.135  0.00  0.00    +0.123 C 
ATOM     13  C   UNL     1      34.068 -22.739 -18.019  0.00  0.00    +0.124 C 
ENDROOT
BRANCH   3  14
ATOM     14  C   UNL     1      37.238 -23.833 -13.565  0.00  0.00    +0.185 C 
BRANCH  14  16
ATOM     15  O   UNL     1      38.098 -24.678 -11.448  0.00  0.00    -0.249 OA
ATOM     16  C   UNL     1      37.845 -23.742 -12.192  0.00  0.00    +0.330 C 
BRANCH  16  17
ATOM     17  O   UNL     1      38.080 -22.443 -11.874  0.00  0.00    -0.479 OA
ATOM     18  H   UNL     1      38.871 -22.028 -12.156  0.00  0.00    +0.295 HD
ENDBRANCH  16  17
ENDBRANCH  14  16
ENDBRANCH   3  14
TORSDOF 3
ENDMDL
MODEL 9
REMARK VINA RESULT:      -7.2      2.947      6.631
REMARK  Name = 69550
REMARK  3 active torsions:
REMARK  status: ('A' for Active; 'I' for Inactive)
REMARK    1  A    between atoms: N_3  and  C_14
REMARK    2  A    between atoms: C_14  and  C_16
REMARK    3  A    between atoms: C_16  and  O_17
REMARK                            x       y       z     vdW  Elec       q    Type
REMARK                         _______ _______ _______ _____ _____    ______ ____
ROOT
ATOM      1  O   UNL     1      32.948 -24.342 -13.459  0.00  0.00    -0.272 OA
ATOM      2  O   UNL     1      37.474 -23.108 -13.523  0.00  0.00    -0.252 OA
ATOM      3  N   UNL     1      32.931 -23.601 -16.357  0.00  0.00    -0.230 NA
ATOM      4  N   UNL     1      36.259 -22.926 -15.499  0.00  0.00    -0.228 N 
ATOM      5  N   UNL     1      35.216 -23.730 -13.467  0.00  0.00    -0.211 N 
ATOM      6  N   UNL     1      34.733 -22.840 -17.428  0.00  0.00    -0.240 NA
ATOM      7  C   UNL     1      33.938 -23.568 -15.435  0.00  0.00    +0.192 C 
ATOM      8  C   UNL     1      35.028 -23.099 -16.116  0.00  0.00    +0.136 C 
ATOM      9  C   UNL     1      33.938 -23.923 -14.053  0.00  0.00    +0.254 C 
ATOM     10  C   UNL     1      36.403 -23.242 -14.125  0.00  0.00    +0.318 C 
ATOM     11  C   UNL     1      33.459 -23.154 -17.541  0.00  0.00    +0.203 C 
ATOM     12  C   UNL     1      37.392 -22.424 -16.267  0.00  0.00    +0.123 C 
ATOM     13  C   UNL     1      35.343 -24.060 -12.051  0.00  0.00    +0.124 C 
ENDROOT
BRANCH   3  14
ATOM     14  C   UNL     1      31.565 -24.020 -16.152  0.00  0.00    +0.185 C 
BRANCH  14  16
ATOM     15  O   UNL     1      29.966 -22.329 -16.870  0.00  0.00    -0.249 OA
ATOM     16  C   UNL     1      30.628 -22.855 -15.988  0.00  0.00    +0.330 C 
BRANCH  16  17
ATOM     17  O   UNL     1      30.615 -22.450 -14.693  0.00  0.00    -0.479 OA
ATOM     18  H   UNL     1      30.953 -21.606 -14.463  0.00  0.00    +0.295 HD
ENDBRANCH  16  17
ENDBRANCH  14  16
ENDBRANCH   3  14
TORSDOF 3
ENDMDL
