MODEL 1
REMARK VINA RESULT:     -10.7      0.000      0.000
REMARK  Name = 60698
REMARK  5 active torsions:
REMARK  status: ('A' for Active; 'I' for Inactive)
REMARK    1  A    between atoms: N_1  and  C_22
REMARK    2  A    between atoms: C_2  and  N_9
REMARK    3  A    between atoms: C_13  and  C_18
REMARK    4  A    between atoms: C_22  and  C_23
REMARK    5  A    between atoms: C_23  and  C_24
REMARK                            x       y       z     vdW  Elec       q    Type
REMARK                         _______ _______ _______ _____ _____    ______ ____
ROOT
ATOM      1  N   UNL     1      34.892 -22.711 -18.356  0.00  0.00    +0.387 N 
ATOM      2  C   UNL     1      34.833 -23.176 -15.469  0.00  0.00    +0.077 C 
ATOM      3  C   UNL     1      36.093 -22.704 -16.194  0.00  0.00    -0.003 C 
ATOM      4  C   UNL     1      33.918 -23.927 -16.435  0.00  0.00    -0.003 C 
ATOM      5  C   UNL     1      35.744 -21.918 -17.460  0.00  0.00    -0.076 C 
ATOM      6  C   UNL     1      33.641 -23.102 -17.692  0.00  0.00    -0.076 C 
ATOM      7  H   UNL     1      35.398 -23.563 -18.600  0.00  0.00    -0.080 HD
ENDROOT
BRANCH   2   9
ATOM      8  O   UNL     1      34.620 -24.380 -12.076  0.00  0.00    -0.266 OA
ATOM      9  N   UNL     1      35.171 -23.994 -14.331  0.00  0.00    -0.238 N 
ATOM     10  N   UNL     1      37.471 -24.052 -14.910  0.00  0.00    -0.226 NA
ATOM     11  N   UNL     1      37.697 -26.491 -13.543  0.00  0.00    -0.238 NA
ATOM     12  C   UNL     1      36.476 -24.653 -14.291  0.00  0.00    +0.157 C 
ATOM     13  C   UNL     1      34.263 -24.180 -13.238  0.00  0.00    +0.288 C 
ATOM     14  C   UNL     1      36.529 -25.822 -13.621  0.00  0.00    +0.133 C 
ATOM     15  C   UNL     1      38.639 -24.721 -14.831  0.00  0.00    +0.121 C 
ATOM     16  C   UNL     1      38.750 -25.918 -14.160  0.00  0.00    +0.120 C 
BRANCH  13  18
ATOM     17  O   UNL     1      32.275 -25.330 -13.875  0.00  0.00    -0.446 OA
ATOM     18  C   UNL     1      32.833 -24.153 -13.566  0.00  0.00    +0.199 C 
ATOM     19  C   UNL     1      31.971 -23.119 -13.608  0.00  0.00    +0.045 C 
ATOM     20  C   UNL     1      30.735 -23.696 -13.983  0.00  0.00    +0.044 C 
ATOM     21  C   UNL     1      30.972 -25.042 -14.133  0.00  0.00    +0.180 C 
ENDBRANCH  13  18
ENDBRANCH   2   9
BRANCH   1  22
ATOM     22  C   UNL     1      34.610 -21.966 -19.583  0.00  0.00    -0.073 C 
BRANCH  22  23
ATOM     23  C   UNL     1      35.814 -21.122 -20.002  0.00  0.00    +0.004 C 
BRANCH  23  24
ATOM     24  C   UNL     1      35.387 -19.854 -20.695  0.00  0.00    -0.024 C 
ATOM     25  C   UNL     1      36.350 -19.011 -21.230  0.00  0.00    -0.004 C 
ATOM     26  C   UNL     1      34.037 -19.550 -20.788  0.00  0.00    -0.004 C 
ATOM     27  C   UNL     1      35.956 -17.838 -21.872  0.00  0.00    -0.000 C 
ATOM     28  C   UNL     1      33.642 -18.376 -21.431  0.00  0.00    -0.000 C 
ATOM     29  C   UNL     1      34.600 -17.520 -21.973  0.00  0.00    -0.000 C 
ENDBRANCH  23  24
ENDBRANCH  22  23
ENDBRANCH   1  22
TORSDOF 5
ENDMDL
MODEL 2
REMARK VINA RESULT:     -10.5      7.182     12.570
REMARK  Name = 60698
REMARK  5 active torsions:
REMARK  status: ('A' for Active; 'I' for Inactive)
REMARK    1  A    between atoms: N_1  and  C_22
REMARK    2  A    between atoms: C_2  and  N_9
REMARK    3  A    between atoms: C_13  and  C_18
REMARK    4  A    between atoms: C_22  and  C_23
REMARK    5  A    between atoms: C_23  and  C_24
REMARK                            x       y       z     vdW  Elec       q    Type
REMARK                         _______ _______ _______ _____ _____    ______ ____
ROOT
ATOM      1  N   UNL     1      34.852 -16.398 -21.432  0.00  0.00    +0.387 N 
ATOM      2  C   UNL     1      33.206 -14.335 -22.693  0.00  0.00    +0.077 C 
ATOM      3  C   UNL     1      34.655 -14.589 -23.107  0.00  0.00    -0.003 C 
ATOM      4  C   UNL     1      32.982 -14.789 -21.250  0.00  0.00    -0.003 C 
ATOM      5  C   UNL     1      35.063 -16.039 -22.841  0.00  0.00    -0.076 C 
ATOM      6  C   UNL     1      33.444 -16.233 -21.045  0.00  0.00    -0.076 C 
ATOM      7  H   UNL     1      35.411 -15.765 -20.859  0.00  0.00    -0.080 HD
ENDROOT
BRANCH   2   9
ATOM      8  O   UNL     1      33.413 -11.014 -24.086  0.00  0.00    -0.266 OA
ATOM      9  N   UNL     1      32.860 -12.945 -22.859  0.00  0.00    -0.238 N 
ATOM     10  N   UNL     1      32.398 -12.664 -20.549  0.00  0.00    -0.226 NA
ATOM     11  N   UNL     1      30.658 -10.566 -21.209  0.00  0.00    -0.238 NA
ATOM     12  C   UNL     1      32.163 -12.251 -21.777  0.00  0.00    +0.157 C 
ATOM     13  C   UNL     1      33.182 -12.224 -24.055  0.00  0.00    +0.288 C 
ATOM     14  C   UNL     1      31.339 -11.251 -22.149  0.00  0.00    +0.133 C 
ATOM     15  C   UNL     1      31.717 -11.979 -19.608  0.00  0.00    +0.121 C 
ATOM     16  C   UNL     1      30.863 -10.948 -19.932  0.00  0.00    +0.120 C 
BRANCH  13  18
ATOM     17  O   UNL     1      32.567 -14.182 -25.269  0.00  0.00    -0.446 OA
ATOM     18  C   UNL     1      33.198 -13.002 -25.300  0.00  0.00    +0.199 C 
ATOM     19  C   UNL     1      33.752 -12.717 -26.494  0.00  0.00    +0.045 C 
ATOM     20  C   UNL     1      33.443 -13.832 -27.309  0.00  0.00    +0.044 C 
ATOM     21  C   UNL     1      32.721 -14.695 -26.518  0.00  0.00    +0.180 C 
ENDBRANCH  13  18
ENDBRANCH   2   9
BRANCH   1  22
ATOM     22  C   UNL     1      35.294 -17.770 -21.182  0.00  0.00    -0.073 C 
BRANCH  22  23
ATOM     23  C   UNL     1      34.166 -18.767 -21.453  0.00  0.00    +0.004 C 
BRANCH  23  24
ATOM     24  C   UNL     1      34.295 -19.996 -20.590  0.00  0.00    -0.024 C 
ATOM     25  C   UNL     1      33.155 -20.577 -20.056  0.00  0.00    -0.004 C 
ATOM     26  C   UNL     1      35.553 -20.527 -20.345  0.00  0.00    -0.004 C 
ATOM     27  C   UNL     1      33.273 -21.714 -19.258  0.00  0.00    -0.000 C 
ATOM     28  C   UNL     1      35.672 -21.665 -19.547  0.00  0.00    -0.000 C 
ATOM     29  C   UNL     1      34.533 -22.259 -19.004  0.00  0.00    -0.000 C 
ENDBRANCH  23  24
ENDBRANCH  22  23
ENDBRANCH   1  22
TORSDOF 5
ENDMDL
MODEL 3
REMARK VINA RESULT:      -9.8      1.783      4.268
REMARK  Name = 60698
REMARK  5 active torsions:
REMARK  status: ('A' for Active; 'I' for Inactive)
REMARK    1  A    between atoms: N_1  and  C_22
REMARK    2  A    between atoms: C_2  and  N_9
REMARK    3  A    between atoms: C_13  and  C_18
REMARK    4  A    between atoms: C_22  and  C_23
REMARK    5  A    between atoms: C_23  and  C_24
REMARK                            x       y       z     vdW  Elec       q    Type
REMARK                         _______ _______ _______ _____ _____    ______ ____
ROOT
ATOM      1  N   UNL     1      35.690 -21.813 -17.744  0.00  0.00    +0.387 N 
ATOM      2  C   UNL     1      34.329 -23.617 -15.887  0.00  0.00    +0.077 C 
ATOM      3  C   UNL     1      33.723 -23.223 -17.234  0.00  0.00    -0.003 C 
ATOM      4  C   UNL     1      35.305 -22.541 -15.411  0.00  0.00    -0.003 C 
ATOM      5  C   UNL     1      34.811 -22.875 -18.252  0.00  0.00    -0.076 C 
ATOM      6  C   UNL     1      36.340 -22.215 -16.489  0.00  0.00    -0.076 C 
ATOM      7  H   UNL     1      35.115 -20.993 -17.550  0.00  0.00    -0.080 HD
ENDROOT
BRANCH   2   9
ATOM      8  O   UNL     1      32.728 -25.227 -13.084  0.00  0.00    -0.266 OA
ATOM      9  N   UNL     1      33.297 -23.852 -14.908  0.00  0.00    -0.238 N 
ATOM     10  N   UNL     1      31.565 -23.301 -16.432  0.00  0.00    -0.226 NA
ATOM     11  N   UNL     1      29.953 -22.580 -14.253  0.00  0.00    -0.238 NA
ATOM     12  C   UNL     1      31.943 -23.369 -15.172  0.00  0.00    +0.157 C 
ATOM     13  C   UNL     1      33.563 -24.546 -13.682  0.00  0.00    +0.288 C 
ATOM     14  C   UNL     1      31.211 -23.036 -14.090  0.00  0.00    +0.133 C 
ATOM     15  C   UNL     1      30.307 -22.845 -16.595  0.00  0.00    +0.121 C 
ATOM     16  C   UNL     1      29.515 -22.491 -15.525  0.00  0.00    +0.120 C 
BRANCH  13  18
ATOM     17  O   UNL     1      35.051 -23.451 -12.176  0.00  0.00    -0.446 OA
ATOM     18  C   UNL     1      34.910 -24.388 -13.122  0.00  0.00    +0.199 C 
ATOM     19  C   UNL     1      36.051 -25.044 -13.407  0.00  0.00    +0.045 C 
ATOM     20  C   UNL     1      37.021 -24.465 -12.555  0.00  0.00    +0.044 C 
ATOM     21  C   UNL     1      36.363 -23.502 -11.826  0.00  0.00    +0.180 C 
ENDBRANCH  13  18
ENDBRANCH   2   9
BRANCH   1  22
ATOM     22  C   UNL     1      36.692 -21.456 -18.748  0.00  0.00    -0.073 C 
BRANCH  22  23
ATOM     23  C   UNL     1      36.113 -21.552 -20.159  0.00  0.00    +0.004 C 
BRANCH  23  24
ATOM     24  C   UNL     1      35.451 -20.263 -20.576  0.00  0.00    -0.024 C 
ATOM     25  C   UNL     1      36.237 -19.176 -20.928  0.00  0.00    -0.004 C 
ATOM     26  C   UNL     1      34.066 -20.185 -20.600  0.00  0.00    -0.004 C 
ATOM     27  C   UNL     1      35.625 -17.983 -21.313  0.00  0.00    -0.000 C 
ATOM     28  C   UNL     1      33.454 -18.993 -20.986  0.00  0.00    -0.000 C 
ATOM     29  C   UNL     1      34.233 -17.892 -21.343  0.00  0.00    -0.000 C 
ENDBRANCH  23  24
ENDBRANCH  22  23
ENDBRANCH   1  22
TORSDOF 5
ENDMDL
MODEL 4
REMARK VINA RESULT:      -9.8      8.271     13.285
REMARK  Name = 60698
REMARK  5 active torsions:
REMARK  status: ('A' for Active; 'I' for Inactive)
REMARK    1  A    between atoms: N_1  and  C_22
REMARK    2  A    between atoms: C_2  and  N_9
REMARK    3  A    between atoms: C_13  and  C_18
REMARK    4  A    between atoms: C_22  and  C_23
REMARK    5  A    between atoms: C_23  and  C_24
REMARK                            x       y       z     vdW  Elec       q    Type
REMARK                         _______ _______ _______ _____ _____    ______ ____
ROOT
ATOM      1  N   UNL     1      33.665 -15.144 -21.807  0.00  0.00    +0.387 N 
ATOM      2  C   UNL     1      32.525 -12.600 -22.691  0.00  0.00    +0.077 C 
ATOM      3  C   UNL     1      33.226 -13.558 -23.653  0.00  0.00    -0.003 C 
ATOM      4  C   UNL     1      33.035 -12.814 -21.266  0.00  0.00    -0.003 C 
ATOM      5  C   UNL     1      33.127 -15.005 -23.167  0.00  0.00    -0.076 C 
ATOM      6  C   UNL     1      32.942 -14.285 -20.859  0.00  0.00    -0.076 C 
ATOM      7  H   UNL     1      34.640 -14.845 -21.822  0.00  0.00    -0.080 HD
ENDROOT
BRANCH   2   9
ATOM      8  O   UNL     1      31.647  -9.128 -23.123  0.00  0.00    -0.266 OA
ATOM      9  N   UNL     1      32.704 -11.231 -23.106  0.00  0.00    -0.238 N 
ATOM     10  N   UNL     1      33.899 -11.858 -25.057  0.00  0.00    -0.226 NA
ATOM     11  N   UNL     1      35.177  -9.361 -25.010  0.00  0.00    -0.238 NA
ATOM     12  C   UNL     1      33.680 -10.927 -24.152  0.00  0.00    +0.157 C 
ATOM     13  C   UNL     1      31.952 -10.160 -22.522  0.00  0.00    +0.288 C 
ATOM     14  C   UNL     1      34.264  -9.714 -24.083  0.00  0.00    +0.133 C 
ATOM     15  C   UNL     1      34.812 -11.506 -25.985  0.00  0.00    +0.121 C 
ATOM     16  C   UNL     1      35.439 -10.280 -25.962  0.00  0.00    +0.120 C 
BRANCH  13  18
ATOM     17  O   UNL     1      32.363  -9.738 -20.212  0.00  0.00    -0.446 OA
ATOM     18  C   UNL     1      31.568 -10.324 -21.115  0.00  0.00    +0.199 C 
ATOM     19  C   UNL     1      30.524 -10.980 -20.572  0.00  0.00    +0.045 C 
ATOM     20  C   UNL     1      30.669 -10.794 -19.177  0.00  0.00    +0.044 C 
ATOM     21  C   UNL     1      31.802 -10.032 -19.009  0.00  0.00    +0.180 C 
ENDBRANCH  13  18
ENDBRANCH   2   9
BRANCH   1  22
ATOM     22  C   UNL     1      33.610 -16.541 -21.376  0.00  0.00    -0.073 C 
BRANCH  22  23
ATOM     23  C   UNL     1      34.752 -17.350 -21.993  0.00  0.00    +0.004 C 
BRANCH  23  24
ATOM     24  C   UNL     1      34.964 -18.653 -21.265  0.00  0.00    -0.024 C 
ATOM     25  C   UNL     1      36.254 -19.059 -20.955  0.00  0.00    -0.004 C 
ATOM     26  C   UNL     1      33.866 -19.424 -20.915  0.00  0.00    -0.004 C 
ATOM     27  C   UNL     1      36.451 -20.264 -20.281  0.00  0.00    -0.000 C 
ATOM     28  C   UNL     1      34.062 -20.629 -20.240  0.00  0.00    -0.000 C 
ATOM     29  C   UNL     1      35.354 -21.049 -19.922  0.00  0.00    -0.000 C 
ENDBRANCH  23  24
ENDBRANCH  22  23
ENDBRANCH   1  22
TORSDOF 5
ENDMDL
MODEL 5
REMARK VINA RESULT:      -9.6      1.542      2.173
REMARK  Name = 60698
REMARK  5 active torsions:
REMARK  status: ('A' for Active; 'I' for Inactive)
REMARK    1  A    between atoms: N_1  and  C_22
REMARK    2  A    between atoms: C_2  and  N_9
REMARK    3  A    between atoms: C_13  and  C_18
REMARK    4  A    between atoms: C_22  and  C_23
REMARK    5  A    between atoms: C_23  and  C_24
REMARK                            x       y       z     vdW  Elec       q    Type
REMARK                         _______ _______ _______ _____ _____    ______ ____
ROOT
ATOM      1  N   UNL     1      34.003 -22.323 -17.996  0.00  0.00    +0.387 N 
ATOM      2  C   UNL     1      33.739 -23.762 -15.463  0.00  0.00    +0.077 C 
ATOM      3  C   UNL     1      32.545 -23.110 -16.160  0.00  0.00    -0.003 C 
ATOM      4  C   UNL     1      35.036 -23.065 -15.874  0.00  0.00    -0.003 C 
ATOM      5  C   UNL     1      32.758 -23.033 -17.672  0.00  0.00    -0.076 C 
ATOM      6  C   UNL     1      35.167 -22.990 -17.396  0.00  0.00    -0.076 C 
ATOM      7  H   UNL     1      33.942 -21.384 -17.602  0.00  0.00    -0.080 HD
ENDROOT
BRANCH   2   9
ATOM      8  O   UNL     1      32.110 -23.032 -12.328  0.00  0.00    -0.266 OA
ATOM      9  N   UNL     1      33.571 -23.744 -14.031  0.00  0.00    -0.238 N 
ATOM     10  N   UNL     1      35.897 -23.474 -13.646  0.00  0.00    -0.226 NA
ATOM     11  N   UNL     1      35.564 -24.682 -11.136  0.00  0.00    -0.238 NA
ATOM     12  C   UNL     1      34.745 -23.908 -13.175  0.00  0.00    +0.157 C 
ATOM     13  C   UNL     1      32.285 -23.570 -13.423  0.00  0.00    +0.288 C 
ATOM     14  C   UNL     1      34.530 -24.494 -11.980  0.00  0.00    +0.133 C 
ATOM     15  C   UNL     1      36.931 -23.663 -12.802  0.00  0.00    +0.121 C 
ATOM     16  C   UNL     1      36.768 -24.256 -11.570  0.00  0.00    +0.120 C 
BRANCH  13  18
ATOM     17  O   UNL     1      31.107 -25.430 -14.338  0.00  0.00    -0.446 OA
ATOM     18  C   UNL     1      31.136 -24.103 -14.165  0.00  0.00    +0.199 C 
ATOM     19  C   UNL     1      30.083 -23.463 -14.711  0.00  0.00    +0.045 C 
ATOM     20  C   UNL     1      29.302 -24.489 -15.293  0.00  0.00    +0.044 C 
ATOM     21  C   UNL     1      29.966 -25.666 -15.038  0.00  0.00    +0.180 C 
ENDBRANCH  13  18
ENDBRANCH   2   9
BRANCH   1  22
ATOM     22  C   UNL     1      34.167 -22.213 -19.445  0.00  0.00    -0.073 C 
BRANCH  22  23
ATOM     23  C   UNL     1      33.423 -20.993 -19.991  0.00  0.00    +0.004 C 
BRANCH  23  24
ATOM     24  C   UNL     1      34.369 -20.007 -20.626  0.00  0.00    -0.024 C 
ATOM     25  C   UNL     1      35.735 -20.156 -20.443  0.00  0.00    -0.004 C 
ATOM     26  C   UNL     1      33.857 -18.965 -21.385  0.00  0.00    -0.004 C 
ATOM     27  C   UNL     1      36.611 -19.244 -21.031  0.00  0.00    -0.000 C 
ATOM     28  C   UNL     1      34.732 -18.052 -21.974  0.00  0.00    -0.000 C 
ATOM     29  C   UNL     1      36.108 -18.191 -21.798  0.00  0.00    -0.000 C 
ENDBRANCH  23  24
ENDBRANCH  22  23
ENDBRANCH   1  22
TORSDOF 5
ENDMDL
MODEL 6
REMARK VINA RESULT:      -9.5      1.866      4.391
REMARK  Name = 60698
REMARK  5 active torsions:
REMARK  status: ('A' for Active; 'I' for Inactive)
REMARK    1  A    between atoms: N_1  and  C_22
REMARK    2  A    between atoms: C_2  and  N_9
REMARK    3  A    between atoms: C_13  and  C_18
REMARK    4  A    between atoms: C_22  and  C_23
REMARK    5  A    between atoms: C_23  and  C_24
REMARK                            x       y       z     vdW  Elec       q    Type
REMARK                         _______ _______ _______ _____ _____    ______ ____
ROOT
ATOM      1  N   UNL     1      35.266 -21.266 -18.975  0.00  0.00    +0.387 N 
ATOM      2  C   UNL     1      34.605 -23.327 -17.007  0.00  0.00    +0.077 C 
ATOM      3  C   UNL     1      33.632 -22.909 -18.109  0.00  0.00    -0.003 C 
ATOM      4  C   UNL     1      35.578 -22.188 -16.700  0.00  0.00    -0.003 C 
ATOM      5  C   UNL     1      34.377 -22.378 -19.336  0.00  0.00    -0.076 C 
ATOM      6  C   UNL     1      36.258 -21.682 -17.973  0.00  0.00    -0.076 C 
ATOM      7  H   UNL     1      34.696 -20.527 -18.564  0.00  0.00    -0.080 HD
ENDROOT
BRANCH   2   9
ATOM      8  O   UNL     1      33.901 -25.336 -14.096  0.00  0.00    -0.266 OA
ATOM      9  N   UNL     1      33.894 -23.736 -15.821  0.00  0.00    -0.238 N 
ATOM     10  N   UNL     1      31.789 -23.140 -16.739  0.00  0.00    -0.226 NA
ATOM     11  N   UNL     1      30.821 -22.770 -14.132  0.00  0.00    -0.238 NA
ATOM     12  C   UNL     1      32.503 -23.319 -15.647  0.00  0.00    +0.157 C 
ATOM     13  C   UNL     1      34.513 -24.539 -14.809  0.00  0.00    +0.288 C 
ATOM     14  C   UNL     1      32.089 -23.156 -14.374  0.00  0.00    +0.133 C 
ATOM     15  C   UNL     1      30.520 -22.754 -16.497  0.00  0.00    +0.121 C 
ATOM     16  C   UNL     1      30.044 -22.573 -15.217  0.00  0.00    +0.120 C 
BRANCH  13  18
ATOM     17  O   UNL     1      36.756 -25.140 -15.351  0.00  0.00    -0.446 OA
ATOM     18  C   UNL     1      35.957 -24.353 -14.620  0.00  0.00    +0.199 C 
ATOM     19  C   UNL     1      36.624 -23.502 -13.817  0.00  0.00    +0.045 C 
ATOM     20  C   UNL     1      37.991 -23.775 -14.061  0.00  0.00    +0.044 C 
ATOM     21  C   UNL     1      38.018 -24.778 -15.002  0.00  0.00    +0.180 C 
ENDBRANCH  13  18
ENDBRANCH   2   9
BRANCH   1  22
ATOM     22  C   UNL     1      35.932 -20.737 -20.165  0.00  0.00    -0.073 C 
BRANCH  22  23
ATOM     23  C   UNL     1      34.944 -20.580 -21.322  0.00  0.00    +0.004 C 
BRANCH  23  24
ATOM     24  C   UNL     1      35.002 -19.195 -21.915  0.00  0.00    -0.024 C 
ATOM     25  C   UNL     1      35.011 -19.044 -23.294  0.00  0.00    -0.004 C 
ATOM     26  C   UNL     1      35.045 -18.094 -21.072  0.00  0.00    -0.004 C 
ATOM     27  C   UNL     1      35.064 -17.763 -23.843  0.00  0.00    -0.000 C 
ATOM     28  C   UNL     1      35.097 -16.813 -21.621  0.00  0.00    -0.000 C 
ATOM     29  C   UNL     1      35.107 -16.647 -23.006  0.00  0.00    -0.000 C 
ENDBRANCH  23  24
ENDBRANCH  22  23
ENDBRANCH   1  22
TORSDOF 5
ENDMDL
MODEL 7
REMARK VINA RESULT:      -9.1     10.101     14.361
REMARK  Name = 60698
REMARK  5 active torsions:
REMARK  status: ('A' for Active; 'I' for Inactive)
REMARK    1  A    between atoms: N_1  and  C_22
REMARK    2  A    between atoms: C_2  and  N_9
REMARK    3  A    between atoms: C_13  and  C_18
REMARK    4  A    between atoms: C_22  and  C_23
REMARK    5  A    between atoms: C_23  and  C_24
REMARK                            x       y       z     vdW  Elec       q    Type
REMARK                         _______ _______ _______ _____ _____    ______ ____
ROOT
ATOM      1  N   UNL     1      31.966  -9.871 -22.887  0.00  0.00    +0.387 N 
ATOM      2  C   UNL     1      33.442 -12.388 -23.079  0.00  0.00    +0.077 C 
ATOM      3  C   UNL     1      33.852 -11.141 -23.860  0.00  0.00    -0.003 C 
ATOM      4  C   UNL     1      31.950 -12.341 -22.752  0.00  0.00    -0.003 C 
ATOM      5  C   UNL     1      33.414  -9.865 -23.139  0.00  0.00    -0.076 C 
ATOM      6  C   UNL     1      31.574 -11.025 -22.067  0.00  0.00    -0.076 C 
ATOM      7  H   UNL     1      31.490  -9.948 -23.786  0.00  0.00    -0.080 HD
ENDROOT
BRANCH   2   9
ATOM      8  O   UNL     1      35.070 -15.547 -23.696  0.00  0.00    -0.266 OA
ATOM      9  N   UNL     1      33.775 -13.586 -23.810  0.00  0.00    -0.238 N 
ATOM     10  N   UNL     1      33.677 -12.473 -25.903  0.00  0.00    -0.226 NA
ATOM     11  N   UNL     1      33.076 -14.928 -27.118  0.00  0.00    -0.238 NA
ATOM     12  C   UNL     1      33.569 -13.616 -25.257  0.00  0.00    +0.157 C 
ATOM     13  C   UNL     1      34.303 -14.747 -23.158  0.00  0.00    +0.288 C 
ATOM     14  C   UNL     1      33.283 -14.821 -25.790  0.00  0.00    +0.133 C 
ATOM     15  C   UNL     1      33.470 -12.580 -27.231  0.00  0.00    +0.121 C 
ATOM     16  C   UNL     1      33.176 -13.786 -27.828  0.00  0.00    +0.120 C 
BRANCH  13  18
ATOM     17  O   UNL     1      32.580 -15.348 -21.624  0.00  0.00    -0.446 OA
ATOM     18  C   UNL     1      33.858 -14.980 -21.778  0.00  0.00    +0.199 C 
ATOM     19  C   UNL     1      34.536 -14.883 -20.619  0.00  0.00    +0.045 C 
ATOM     20  C   UNL     1      33.594 -15.224 -19.621  0.00  0.00    +0.044 C 
ATOM     21  C   UNL     1      32.419 -15.499 -20.283  0.00  0.00    +0.180 C 
ENDBRANCH  13  18
ENDBRANCH   2   9
BRANCH   1  22
ATOM     22  C   UNL     1      31.555  -8.623 -22.243  0.00  0.00    -0.073 C 
BRANCH  22  23
ATOM     23  C   UNL     1      32.694  -7.603 -22.247  0.00  0.00    +0.004 C 
BRANCH  23  24
ATOM     24  C   UNL     1      32.355  -6.397 -23.086  0.00  0.00    -0.024 C 
ATOM     25  C   UNL     1      32.798  -6.333 -24.398  0.00  0.00    -0.004 C 
ATOM     26  C   UNL     1      31.604  -5.371 -22.531  0.00  0.00    -0.004 C 
ATOM     27  C   UNL     1      32.484  -5.218 -25.175  0.00  0.00    -0.000 C 
ATOM     28  C   UNL     1      31.290  -4.255 -23.308  0.00  0.00    -0.000 C 
ATOM     29  C   UNL     1      31.729  -4.179 -24.629  0.00  0.00    -0.000 C 
ENDBRANCH  23  24
ENDBRANCH  22  23
ENDBRANCH   1  22
TORSDOF 5
ENDMDL
MODEL 8
REMARK VINA RESULT:      -8.7      2.854      6.742
REMARK  Name = 60698
REMARK  5 active torsions:
REMARK  status: ('A' for Active; 'I' for Inactive)
REMARK    1  A    between atoms: N_1  and  C_22
REMARK    2  A    between atoms: C_2  and  N_9
REMARK    3  A    between atoms: C_13  and  C_18
REMARK    4  A    between atoms: C_22  and  C_23
REMARK    5  A    between atoms: C_23  and  C_24
REMARK                            x       y       z     vdW  Elec       q    Type
REMARK                         _______ _______ _______ _____ _____    ______ ____
ROOT
ATOM      1  N   UNL     1      31.532 -23.450 -15.286  0.00  0.00    +0.387 N 
ATOM      2  C   UNL     1      34.261 -23.396 -16.336  0.00  0.00    +0.077 C 
ATOM      3  C   UNL     1      33.939 -23.048 -14.883  0.00  0.00    -0.003 C 
ATOM      4  C   UNL     1      33.041 -23.146 -17.222  0.00  0.00    -0.003 C 
ATOM      5  C   UNL     1      32.670 -23.760 -14.410  0.00  0.00    -0.076 C 
ATOM      6  C   UNL     1      31.802 -23.855 -16.672  0.00  0.00    -0.076 C 
ATOM      7  H   UNL     1      31.392 -22.439 -15.275  0.00  0.00    -0.080 HD
ENDROOT
BRANCH   2   9
ATOM      8  O   UNL     1      37.333 -21.525 -16.059  0.00  0.00    -0.266 OA
ATOM      9  N   UNL     1      35.403 -22.649 -16.802  0.00  0.00    -0.238 N 
ATOM     10  N   UNL     1      34.169 -21.636 -18.558  0.00  0.00    -0.226 NA
ATOM     11  N   UNL     1      36.562 -21.330 -19.988  0.00  0.00    -0.238 NA
ATOM     12  C   UNL     1      35.351 -22.020 -18.121  0.00  0.00    +0.157 C 
ATOM     13  C   UNL     1      36.587 -22.505 -16.008  0.00  0.00    +0.288 C 
ATOM     14  C   UNL     1      36.529 -21.897 -18.765  0.00  0.00    +0.133 C 
ATOM     15  C   UNL     1      34.202 -21.070 -19.780  0.00  0.00    +0.121 C 
ATOM     16  C   UNL     1      35.377 -20.919 -20.483  0.00  0.00    +0.120 C 
BRANCH  13  18
ATOM     17  O   UNL     1      36.871 -24.846 -15.661  0.00  0.00    -0.446 OA
ATOM     18  C   UNL     1      36.914 -23.624 -15.116  0.00  0.00    +0.199 C 
ATOM     19  C   UNL     1      37.258 -23.624 -13.814  0.00  0.00    +0.045 C 
ATOM     20  C   UNL     1      37.455 -24.989 -13.494  0.00  0.00    +0.044 C 
ATOM     21  C   UNL     1      37.207 -25.691 -14.651  0.00  0.00    +0.180 C 
ENDBRANCH  13  18
ENDBRANCH   2   9
BRANCH   1  22
ATOM     22  C   UNL     1      30.316 -24.096 -14.791  0.00  0.00    -0.073 C 
BRANCH  22  23
ATOM     23  C   UNL     1      29.438 -24.573 -15.950  0.00  0.00    +0.004 C 
BRANCH  23  24
ATOM     24  C   UNL     1      28.365 -23.567 -16.281  0.00  0.00    -0.024 C 
ATOM     25  C   UNL     1      28.006 -23.364 -17.605  0.00  0.00    -0.004 C 
ATOM     26  C   UNL     1      27.753 -22.862 -15.255  0.00  0.00    -0.004 C 
ATOM     27  C   UNL     1      27.013 -22.435 -17.912  0.00  0.00    -0.000 C 
ATOM     28  C   UNL     1      26.759 -21.933 -15.562  0.00  0.00    -0.000 C 
ATOM     29  C   UNL     1      26.388 -21.719 -16.890  0.00  0.00    -0.000 C 
ENDBRANCH  23  24
ENDBRANCH  22  23
ENDBRANCH   1  22
TORSDOF 5
ENDMDL
MODEL 9
REMARK VINA RESULT:      -8.7      3.000      6.299
REMARK  Name = 60698
REMARK  5 active torsions:
REMARK  status: ('A' for Active; 'I' for Inactive)
REMARK    1  A    between atoms: N_1  and  C_22
REMARK    2  A    between atoms: C_2  and  N_9
REMARK    3  A    between atoms: C_13  and  C_18
REMARK    4  A    between atoms: C_22  and  C_23
REMARK    5  A    between atoms: C_23  and  C_24
REMARK                            x       y       z     vdW  Elec       q    Type
REMARK                         _______ _______ _______ _____ _____    ______ ____
ROOT
ATOM      1  N   UNL     1      31.263 -23.975 -13.973  0.00  0.00    +0.387 N 
ATOM      2  C   UNL     1      34.079 -23.816 -14.748  0.00  0.00    +0.077 C 
ATOM      3  C   UNL     1      33.472 -25.076 -14.130  0.00  0.00    -0.003 C 
ATOM      4  C   UNL     1      33.277 -22.584 -14.331  0.00  0.00    -0.003 C 
ATOM      5  C   UNL     1      31.976 -25.176 -14.430  0.00  0.00    -0.076 C 
ATOM      6  C   UNL     1      31.787 -22.766 -14.624  0.00  0.00    -0.076 C 
ATOM      7  H   UNL     1      31.414 -23.882 -12.969  0.00  0.00    -0.080 HD
ENDROOT
BRANCH   2   9
ATOM      8  O   UNL     1      37.654 -23.938 -15.213  0.00  0.00    -0.266 OA
ATOM      9  N   UNL     1      35.467 -23.681 -14.382  0.00  0.00    -0.238 N 
ATOM     10  N   UNL     1      35.066 -24.384 -12.151  0.00  0.00    -0.226 NA
ATOM     11  N   UNL     1      37.326 -22.930 -11.346  0.00  0.00    -0.238 NA
ATOM     12  C   UNL     1      35.833 -23.688 -12.966  0.00  0.00    +0.157 C 
ATOM     13  C   UNL     1      36.498 -23.539 -15.367  0.00  0.00    +0.288 C 
ATOM     14  C   UNL     1      36.927 -22.974 -12.633  0.00  0.00    +0.133 C 
ATOM     15  C   UNL     1      35.465 -24.339 -10.865  0.00  0.00    +0.121 C 
ATOM     16  C   UNL     1      36.575 -23.626 -10.469  0.00  0.00    +0.120 C 
BRANCH  13  18
ATOM     17  O   UNL     1      34.981 -23.241 -17.181  0.00  0.00    -0.446 OA
ATOM     18  C   UNL     1      36.124 -22.848 -16.607  0.00  0.00    +0.199 C 
ATOM     19  C   UNL     1      36.754 -21.863 -17.275  0.00  0.00    +0.045 C 
ATOM     20  C   UNL     1      35.927 -21.600 -18.392  0.00  0.00    +0.044 C 
ATOM     21  C   UNL     1      34.861 -22.463 -18.290  0.00  0.00    +0.180 C 
ENDBRANCH  13  18
ENDBRANCH   2   9
BRANCH   1  22
ATOM     22  C   UNL     1      29.827 -24.108 -14.220  0.00  0.00    -0.073 C 
BRANCH  22  23
ATOM     23  C   UNL     1      29.540 -24.261 -15.715  0.00  0.00    +0.004 C 
BRANCH  23  24
ATOM     24  C   UNL     1      28.402 -23.374 -16.153  0.00  0.00    -0.024 C 
ATOM     25  C   UNL     1      28.109 -23.259 -17.504  0.00  0.00    -0.004 C 
ATOM     26  C   UNL     1      27.667 -22.688 -15.198  0.00  0.00    -0.004 C 
ATOM     27  C   UNL     1      27.057 -22.439 -17.910  0.00  0.00    -0.000 C 
ATOM     28  C   UNL     1      26.613 -21.869 -15.604  0.00  0.00    -0.000 C 
ATOM     29  C   UNL     1      26.308 -21.744 -16.959  0.00  0.00    -0.000 C 
ENDBRANCH  23  24
ENDBRANCH  22  23
ENDBRANCH   1  22
TORSDOF 5
ENDMDL
