MODEL 1
REMARK VINA RESULT:      -9.5      0.000      0.000
REMARK  Name = 448006
REMARK  4 active torsions:
REMARK  status: ('A' for Active; 'I' for Inactive)
REMARK    1  A    between atoms: C_1  and  C_13
REMARK    2  A    between atoms: C_2  and  C_7
REMARK    3  A    between atoms: C_13  and  C_16
REMARK    4  A    between atoms: C_16  and  O_17
REMARK                            x       y       z     vdW  Elec       q    Type
REMARK                         _______ _______ _______ _____ _____    ______ ____
ROOT
ATOM      1  C   UNL     1      34.578 -16.507 -23.170  0.00  0.00    -0.012 C 
ATOM      2  C   UNL     1      34.574 -18.769 -21.537  0.00  0.00    -0.000 C 
ATOM      3  C   UNL     1      34.971 -17.742 -23.686  0.00  0.00    -0.004 C 
ATOM      4  C   UNL     1      34.184 -16.404 -21.836  0.00  0.00    -0.004 C 
ATOM      5  C   UNL     1      34.969 -18.873 -22.870  0.00  0.00    -0.000 C 
ATOM      6  C   UNL     1      34.181 -17.534 -21.019  0.00  0.00    -0.000 C 
ENDROOT
BRANCH   2   7
ATOM      7  C   UNL     1      34.572 -19.942 -20.689  0.00  0.00    -0.000 C 
ATOM      8  C   UNL     1      33.363 -20.486 -20.254  0.00  0.00    -0.000 C 
ATOM      9  C   UNL     1      35.778 -20.529 -20.307  0.00  0.00    -0.000 C 
ATOM     10  C   UNL     1      33.361 -21.617 -19.438  0.00  0.00    +0.000 C 
ATOM     11  C   UNL     1      35.776 -21.659 -19.490  0.00  0.00    +0.000 C 
ATOM     12  C   UNL     1      34.568 -22.204 -19.056  0.00  0.00    +0.000 C 
ENDBRANCH   2   7
BRANCH   1  13
ATOM     13  C   UNL     1      34.581 -15.298 -24.042  0.00  0.00    +0.121 C 
ATOM     14  C   UNL     1      34.166 -14.005 -23.312  0.00  0.00    +0.016 C 
BRANCH  13  16
ATOM     15  O   UNL     1      33.896 -16.315 -26.155  0.00  0.00    -0.250 OA
ATOM     16  C   UNL     1      33.706 -15.470 -25.289  0.00  0.00    +0.317 C 
BRANCH  16  17
ATOM     17  O   UNL     1      32.684 -14.576 -25.352  0.00  0.00    -0.480 OA
ATOM     18  H   UNL     1      32.791 -13.776 -25.827  0.00  0.00    +0.295 HD
ENDBRANCH  16  17
ENDBRANCH  13  16
ENDBRANCH   1  13
TORSDOF 4
ENDMDL
MODEL 2
REMARK VINA RESULT:      -9.3      4.426      7.538
REMARK  Name = 448006
REMARK  4 active torsions:
REMARK  status: ('A' for Active; 'I' for Inactive)
REMARK    1  A    between atoms: C_1  and  C_13
REMARK    2  A    between atoms: C_2  and  C_7
REMARK    3  A    between atoms: C_13  and  C_16
REMARK    4  A    between atoms: C_16  and  O_17
REMARK                            x       y       z     vdW  Elec       q    Type
REMARK                         _______ _______ _______ _____ _____    ______ ____
ROOT
ATOM      1  C   UNL     1      34.145 -22.087 -18.690  0.00  0.00    -0.012 C 
ATOM      2  C   UNL     1      34.526 -20.103 -20.614  0.00  0.00    -0.000 C 
ATOM      3  C   UNL     1      33.045 -21.432 -19.244  0.00  0.00    -0.004 C 
ATOM      4  C   UNL     1      35.435 -21.749 -19.097  0.00  0.00    -0.004 C 
ATOM      5  C   UNL     1      33.236 -20.441 -20.207  0.00  0.00    -0.000 C 
ATOM      6  C   UNL     1      35.627 -20.758 -20.059  0.00  0.00    -0.000 C 
ENDROOT
BRANCH   2   7
ATOM      7  C   UNL     1      34.725 -19.075 -21.613  0.00  0.00    -0.000 C 
ATOM      8  C   UNL     1      34.808 -19.419 -22.962  0.00  0.00    -0.000 C 
ATOM      9  C   UNL     1      34.833 -17.739 -21.226  0.00  0.00    -0.000 C 
ATOM     10  C   UNL     1      34.999 -18.427 -23.923  0.00  0.00    +0.000 C 
ATOM     11  C   UNL     1      35.024 -16.747 -22.187  0.00  0.00    +0.000 C 
ATOM     12  C   UNL     1      35.107 -17.091 -23.536  0.00  0.00    +0.000 C 
ENDBRANCH   2   7
BRANCH   1  13
ATOM     13  C   UNL     1      33.941 -23.147 -17.661  0.00  0.00    +0.121 C 
ATOM     14  C   UNL     1      32.490 -23.244 -17.148  0.00  0.00    +0.016 C 
BRANCH  13  16
ATOM     15  O   UNL     1      36.097 -23.152 -16.513  0.00  0.00    -0.250 OA
ATOM     16  C   UNL     1      34.884 -22.993 -16.462  0.00  0.00    +0.317 C 
BRANCH  16  17
ATOM     17  O   UNL     1      34.238 -22.666 -15.312  0.00  0.00    -0.480 OA
ATOM     18  H   UNL     1      33.469 -23.136 -15.057  0.00  0.00    +0.295 HD
ENDBRANCH  16  17
ENDBRANCH  13  16
ENDBRANCH   1  13
TORSDOF 4
ENDMDL
MODEL 3
REMARK VINA RESULT:      -9.3      4.315      7.436
REMARK  Name = 448006
REMARK  4 active torsions:
REMARK  status: ('A' for Active; 'I' for Inactive)
REMARK    1  A    between atoms: C_1  and  C_13
REMARK    2  A    between atoms: C_2  and  C_7
REMARK    3  A    between atoms: C_13  and  C_16
REMARK    4  A    between atoms: C_16  and  O_17
REMARK                            x       y       z     vdW  Elec       q    Type
REMARK                         _______ _______ _______ _____ _____    ______ ____
ROOT
ATOM      1  C   UNL     1      34.140 -21.994 -18.833  0.00  0.00    -0.012 C 
ATOM      2  C   UNL     1      34.514 -19.991 -20.739  0.00  0.00    -0.000 C 
ATOM      3  C   UNL     1      35.426 -21.677 -19.269  0.00  0.00    -0.004 C 
ATOM      4  C   UNL     1      33.040 -21.310 -19.351  0.00  0.00    -0.004 C 
ATOM      5  C   UNL     1      35.613 -20.676 -20.222  0.00  0.00    -0.000 C 
ATOM      6  C   UNL     1      33.226 -20.309 -20.304  0.00  0.00    -0.000 C 
ENDROOT
BRANCH   2   7
ATOM      7  C   UNL     1      34.707 -18.953 -21.728  0.00  0.00    -0.000 C 
ATOM      8  C   UNL     1      34.811 -17.620 -21.329  0.00  0.00    -0.000 C 
ATOM      9  C   UNL     1      34.790 -19.284 -23.080  0.00  0.00    -0.000 C 
ATOM     10  C   UNL     1      34.997 -16.620 -22.282  0.00  0.00    +0.000 C 
ATOM     11  C   UNL     1      34.976 -18.283 -24.033  0.00  0.00    +0.000 C 
ATOM     12  C   UNL     1      35.080 -16.950 -23.634  0.00  0.00    +0.000 C 
ENDBRANCH   2   7
BRANCH   1  13
ATOM     13  C   UNL     1      33.940 -23.065 -17.815  0.00  0.00    +0.121 C 
ATOM     14  C   UNL     1      32.493 -23.157 -17.287  0.00  0.00    +0.016 C 
BRANCH  13  16
ATOM     15  O   UNL     1      36.119 -22.943 -16.716  0.00  0.00    -0.250 OA
ATOM     16  C   UNL     1      34.898 -22.932 -16.625  0.00  0.00    +0.317 C 
BRANCH  16  17
ATOM     17  O   UNL     1      34.255 -22.807 -15.434  0.00  0.00    -0.480 OA
ATOM     18  H   UNL     1      33.487 -22.275 -15.369  0.00  0.00    +0.295 HD
ENDBRANCH  16  17
ENDBRANCH  13  16
ENDBRANCH   1  13
TORSDOF 4
ENDMDL
MODEL 4
REMARK VINA RESULT:      -9.2      3.799      6.962
REMARK  Name = 448006
REMARK  4 active torsions:
REMARK  status: ('A' for Active; 'I' for Inactive)
REMARK    1  A    between atoms: C_1  and  C_13
REMARK    2  A    between atoms: C_2  and  C_7
REMARK    3  A    between atoms: C_13  and  C_16
REMARK    4  A    between atoms: C_16  and  O_17
REMARK                            x       y       z     vdW  Elec       q    Type
REMARK                         _______ _______ _______ _____ _____    ______ ____
ROOT
ATOM      1  C   UNL     1      34.618 -21.023 -19.575  0.00  0.00    -0.012 C 
ATOM      2  C   UNL     1      34.669 -19.288 -21.759  0.00  0.00    -0.000 C 
ATOM      3  C   UNL     1      33.423 -20.552 -20.120  0.00  0.00    -0.004 C 
ATOM      4  C   UNL     1      35.838 -20.626 -20.122  0.00  0.00    -0.004 C 
ATOM      5  C   UNL     1      33.450 -19.685 -21.212  0.00  0.00    -0.000 C 
ATOM      6  C   UNL     1      35.865 -19.759 -21.214  0.00  0.00    -0.000 C 
ENDROOT
BRANCH   2   7
ATOM      7  C   UNL     1      34.697 -18.388 -22.891  0.00  0.00    -0.000 C 
ATOM      8  C   UNL     1      34.516 -18.885 -24.182  0.00  0.00    -0.000 C 
ATOM      9  C   UNL     1      34.905 -17.023 -22.693  0.00  0.00    -0.000 C 
ATOM     10  C   UNL     1      34.543 -18.017 -25.273  0.00  0.00    +0.000 C 
ATOM     11  C   UNL     1      34.931 -16.155 -23.784  0.00  0.00    +0.000 C 
ATOM     12  C   UNL     1      34.750 -16.651 -25.074  0.00  0.00    +0.000 C 
ENDBRANCH   2   7
BRANCH   1  13
ATOM     13  C   UNL     1      34.590 -21.951 -18.408  0.00  0.00    +0.121 C 
ATOM     14  C   UNL     1      35.988 -22.283 -17.845  0.00  0.00    +0.016 C 
BRANCH  13  16
ATOM     15  O   UNL     1      34.093 -23.983 -19.669  0.00  0.00    -0.250 OA
ATOM     16  C   UNL     1      33.851 -23.259 -18.712  0.00  0.00    +0.317 C 
BRANCH  16  17
ATOM     17  O   UNL     1      32.876 -23.544 -17.809  0.00  0.00    -0.480 OA
ATOM     18  H   UNL     1      32.442 -24.374 -17.835  0.00  0.00    +0.295 HD
ENDBRANCH  16  17
ENDBRANCH  13  16
ENDBRANCH   1  13
TORSDOF 4
ENDMDL
MODEL 5
REMARK VINA RESULT:      -9.2      3.754      6.960
REMARK  Name = 448006
REMARK  4 active torsions:
REMARK  status: ('A' for Active; 'I' for Inactive)
REMARK    1  A    between atoms: C_1  and  C_13
REMARK    2  A    between atoms: C_2  and  C_7
REMARK    3  A    between atoms: C_13  and  C_16
REMARK    4  A    between atoms: C_16  and  O_17
REMARK                            x       y       z     vdW  Elec       q    Type
REMARK                         _______ _______ _______ _____ _____    ______ ____
ROOT
ATOM      1  C   UNL     1      35.238 -20.675 -20.118  0.00  0.00    -0.012 C 
ATOM      2  C   UNL     1      34.868 -18.223 -21.396  0.00  0.00    -0.000 C 
ATOM      3  C   UNL     1      36.342 -19.920 -20.512  0.00  0.00    -0.004 C 
ATOM      4  C   UNL     1      33.948 -20.204 -20.363  0.00  0.00    -0.004 C 
ATOM      5  C   UNL     1      36.157 -18.694 -21.151  0.00  0.00    -0.000 C 
ATOM      6  C   UNL     1      33.762 -18.978 -21.002  0.00  0.00    -0.000 C 
ENDROOT
BRANCH   2   7
ATOM      7  C   UNL     1      34.676 -16.951 -22.058  0.00  0.00    -0.000 C 
ATOM      8  C   UNL     1      34.470 -15.796 -21.305  0.00  0.00    -0.000 C 
ATOM      9  C   UNL     1      34.697 -16.880 -23.452  0.00  0.00    -0.000 C 
ATOM     10  C   UNL     1      34.285 -14.570 -21.944  0.00  0.00    +0.000 C 
ATOM     11  C   UNL     1      34.512 -15.655 -24.091  0.00  0.00    +0.000 C 
ATOM     12  C   UNL     1      34.306 -14.499 -23.337  0.00  0.00    +0.000 C 
ENDBRANCH   2   7
BRANCH   1  13
ATOM     13  C   UNL     1      35.435 -21.986 -19.435  0.00  0.00    +0.121 C 
ATOM     14  C   UNL     1      34.140 -22.810 -19.287  0.00  0.00    +0.016 C 
BRANCH  13  16
ATOM     15  O   UNL     1      36.943 -21.002 -17.784  0.00  0.00    -0.250 OA
ATOM     16  C   UNL     1      36.093 -21.840 -18.058  0.00  0.00    +0.317 C 
BRANCH  16  17
ATOM     17  O   UNL     1      35.645 -22.748 -17.152  0.00  0.00    -0.480 OA
ATOM     18  H   UNL     1      35.505 -23.638 -17.411  0.00  0.00    +0.295 HD
ENDBRANCH  16  17
ENDBRANCH  13  16
ENDBRANCH   1  13
TORSDOF 4
ENDMDL
MODEL 6
REMARK VINA RESULT:      -9.0      2.106      3.762
REMARK  Name = 448006
REMARK  4 active torsions:
REMARK  status: ('A' for Active; 'I' for Inactive)
REMARK    1  A    between atoms: C_1  and  C_13
REMARK    2  A    between atoms: C_2  and  C_7
REMARK    3  A    between atoms: C_13  and  C_16
REMARK    4  A    between atoms: C_16  and  O_17
REMARK                            x       y       z     vdW  Elec       q    Type
REMARK                         _______ _______ _______ _____ _____    ______ ____
ROOT
ATOM      1  C   UNL     1      34.483 -19.346 -21.663  0.00  0.00    -0.012 C 
ATOM      2  C   UNL     1      34.482 -21.098 -19.492  0.00  0.00    -0.000 C 
ATOM      3  C   UNL     1      35.690 -19.831 -21.157  0.00  0.00    -0.004 C 
ATOM      4  C   UNL     1      33.277 -19.738 -21.083  0.00  0.00    -0.004 C 
ATOM      5  C   UNL     1      35.688 -20.707 -20.072  0.00  0.00    -0.000 C 
ATOM      6  C   UNL     1      33.275 -20.613 -19.998  0.00  0.00    -0.000 C 
ENDROOT
BRANCH   2   7
ATOM      7  C   UNL     1      34.481 -22.007 -18.366  0.00  0.00    -0.000 C 
ATOM      8  C   UNL     1      35.620 -22.137 -17.572  0.00  0.00    -0.000 C 
ATOM      9  C   UNL     1      33.339 -22.753 -18.073  0.00  0.00    -0.000 C 
ATOM     10  C   UNL     1      35.618 -23.013 -16.487  0.00  0.00    +0.000 C 
ATOM     11  C   UNL     1      33.336 -23.628 -16.988  0.00  0.00    +0.000 C 
ATOM     12  C   UNL     1      34.476 -23.758 -16.194  0.00  0.00    +0.000 C 
ENDBRANCH   2   7
BRANCH   1  13
ATOM     13  C   UNL     1      34.484 -18.410 -22.823  0.00  0.00    +0.121 C 
ATOM     14  C   UNL     1      35.160 -18.984 -24.085  0.00  0.00    +0.016 C 
BRANCH  13  16
ATOM     15  O   UNL     1      35.015 -16.492 -21.406  0.00  0.00    -0.250 OA
ATOM     16  C   UNL     1      35.121 -17.057 -22.488  0.00  0.00    +0.317 C 
BRANCH  16  17
ATOM     17  O   UNL     1      35.821 -16.524 -23.524  0.00  0.00    -0.480 OA
ATOM     18  H   UNL     1      35.479 -15.788 -23.991  0.00  0.00    +0.295 HD
ENDBRANCH  16  17
ENDBRANCH  13  16
ENDBRANCH   1  13
TORSDOF 4
ENDMDL
MODEL 7
REMARK VINA RESULT:      -8.8      1.216      2.406
REMARK  Name = 448006
REMARK  4 active torsions:
REMARK  status: ('A' for Active; 'I' for Inactive)
REMARK    1  A    between atoms: C_1  and  C_13
REMARK    2  A    between atoms: C_2  and  C_7
REMARK    3  A    between atoms: C_13  and  C_16
REMARK    4  A    between atoms: C_16  and  O_17
REMARK                            x       y       z     vdW  Elec       q    Type
REMARK                         _______ _______ _______ _____ _____    ______ ____
ROOT
ATOM      1  C   UNL     1      33.954 -14.827 -22.939  0.00  0.00    -0.012 C 
ATOM      2  C   UNL     1      34.521 -17.296 -21.772  0.00  0.00    -0.000 C 
ATOM      3  C   UNL     1      33.319 -15.201 -21.754  0.00  0.00    -0.004 C 
ATOM      4  C   UNL     1      34.872 -15.688 -23.540  0.00  0.00    -0.004 C 
ATOM      5  C   UNL     1      33.604 -16.436 -21.171  0.00  0.00    -0.000 C 
ATOM      6  C   UNL     1      35.156 -16.922 -22.957  0.00  0.00    -0.000 C 
ENDROOT
BRANCH   2   7
ATOM      7  C   UNL     1      34.816 -18.577 -21.168  0.00  0.00    -0.000 C 
ATOM      8  C   UNL     1      36.140 -18.951 -20.934  0.00  0.00    -0.000 C 
ATOM      9  C   UNL     1      33.777 -19.439 -20.818  0.00  0.00    -0.000 C 
ATOM     10  C   UNL     1      36.423 -20.185 -20.351  0.00  0.00    +0.000 C 
ATOM     11  C   UNL     1      34.060 -20.674 -20.235  0.00  0.00    +0.000 C 
ATOM     12  C   UNL     1      35.383 -21.047 -20.001  0.00  0.00    +0.000 C 
ENDBRANCH   2   7
BRANCH   1  13
ATOM     13  C   UNL     1      33.651 -13.507 -23.563  0.00  0.00    +0.121 C 
ATOM     14  C   UNL     1      32.559 -12.706 -22.823  0.00  0.00    +0.016 C 
BRANCH  13  16
ATOM     15  O   UNL     1      32.669 -14.583 -25.524  0.00  0.00    -0.250 OA
ATOM     16  C   UNL     1      33.265 -13.629 -25.041  0.00  0.00    +0.317 C 
BRANCH  16  17
ATOM     17  O   UNL     1      33.661 -12.563 -25.786  0.00  0.00    -0.480 OA
ATOM     18  H   UNL     1      34.572 -12.422 -25.955  0.00  0.00    +0.295 HD
ENDBRANCH  16  17
ENDBRANCH  13  16
ENDBRANCH   1  13
TORSDOF 4
ENDMDL
MODEL 8
REMARK VINA RESULT:      -8.8      5.933      9.327
REMARK  Name = 448006
REMARK  4 active torsions:
REMARK  status: ('A' for Active; 'I' for Inactive)
REMARK    1  A    between atoms: C_1  and  C_13
REMARK    2  A    between atoms: C_2  and  C_7
REMARK    3  A    between atoms: C_13  and  C_16
REMARK    4  A    between atoms: C_16  and  O_17
REMARK                            x       y       z     vdW  Elec       q    Type
REMARK                         _______ _______ _______ _____ _____    ______ ____
ROOT
ATOM      1  C   UNL     1      35.390 -23.550 -15.920  0.00  0.00    -0.012 C 
ATOM      2  C   UNL     1      34.889 -22.002 -18.186  0.00  0.00    -0.000 C 
ATOM      3  C   UNL     1      34.133 -23.585 -16.525  0.00  0.00    -0.004 C 
ATOM      4  C   UNL     1      36.396 -22.741 -16.449  0.00  0.00    -0.004 C 
ATOM      5  C   UNL     1      33.883 -22.811 -17.658  0.00  0.00    -0.000 C 
ATOM      6  C   UNL     1      36.146 -21.968 -17.581  0.00  0.00    -0.000 C 
ENDROOT
BRANCH   2   7
ATOM      7  C   UNL     1      34.630 -21.199 -19.362  0.00  0.00    -0.000 C 
ATOM      8  C   UNL     1      35.693 -20.691 -20.108  0.00  0.00    -0.000 C 
ATOM      9  C   UNL     1      33.316 -20.933 -19.749  0.00  0.00    -0.000 C 
ATOM     10  C   UNL     1      35.443 -19.917 -21.241  0.00  0.00    +0.000 C 
ATOM     11  C   UNL     1      33.066 -20.159 -20.882  0.00  0.00    +0.000 C 
ATOM     12  C   UNL     1      34.129 -19.651 -21.628  0.00  0.00    +0.000 C 
ENDBRANCH   2   7
BRANCH   1  13
ATOM     13  C   UNL     1      35.657 -24.378 -14.709  0.00  0.00    +0.121 C 
ATOM     14  C   UNL     1      36.322 -23.596 -13.558  0.00  0.00    +0.016 C 
BRANCH  13  16
ATOM     15  O   UNL     1      36.155 -26.516 -15.782  0.00  0.00    -0.250 OA
ATOM     16  C   UNL     1      36.499 -25.621 -15.019  0.00  0.00    +0.317 C 
BRANCH  16  17
ATOM     17  O   UNL     1      37.682 -25.646 -14.351  0.00  0.00    -0.480 OA
ATOM     18  H   UNL     1      38.454 -25.298 -14.753  0.00  0.00    +0.295 HD
ENDBRANCH  16  17
ENDBRANCH  13  16
ENDBRANCH   1  13
TORSDOF 4
ENDMDL
MODEL 9
REMARK VINA RESULT:      -8.7      2.828      6.722
REMARK  Name = 448006
REMARK  4 active torsions:
REMARK  status: ('A' for Active; 'I' for Inactive)
REMARK    1  A    between atoms: C_1  and  C_13
REMARK    2  A    between atoms: C_2  and  C_7
REMARK    3  A    between atoms: C_13  and  C_16
REMARK    4  A    between atoms: C_16  and  O_17
REMARK                            x       y       z     vdW  Elec       q    Type
REMARK                         _______ _______ _______ _____ _____    ______ ____
ROOT
ATOM      1  C   UNL     1      35.024 -18.825 -21.975  0.00  0.00    -0.012 C 
ATOM      2  C   UNL     1      34.327 -16.579 -23.476  0.00  0.00    -0.000 C 
ATOM      3  C   UNL     1      35.046 -18.882 -23.369  0.00  0.00    -0.004 C 
ATOM      4  C   UNL     1      34.654 -17.644 -21.332  0.00  0.00    -0.004 C 
ATOM      5  C   UNL     1      34.698 -17.759 -24.119  0.00  0.00    -0.000 C 
ATOM      6  C   UNL     1      34.305 -16.521 -22.082  0.00  0.00    -0.000 C 
ENDROOT
BRANCH   2   7
ATOM      7  C   UNL     1      33.966 -15.413 -24.254  0.00  0.00    -0.000 C 
ATOM      8  C   UNL     1      33.576 -15.556 -25.585  0.00  0.00    -0.000 C 
ATOM      9  C   UNL     1      34.006 -14.146 -23.671  0.00  0.00    -0.000 C 
ATOM     10  C   UNL     1      33.227 -14.432 -26.334  0.00  0.00    +0.000 C 
ATOM     11  C   UNL     1      33.657 -13.023 -24.420  0.00  0.00    +0.000 C 
ATOM     12  C   UNL     1      33.268 -13.165 -25.751  0.00  0.00    +0.000 C 
ENDBRANCH   2   7
BRANCH   1  13
ATOM     13  C   UNL     1      35.397 -20.025 -21.173  0.00  0.00    +0.121 C 
ATOM     14  C   UNL     1      34.276 -20.517 -20.235  0.00  0.00    +0.016 C 
BRANCH  13  16
ATOM     15  O   UNL     1      36.807 -20.137 -19.181  0.00  0.00    -0.250 OA
ATOM     16  C   UNL     1      36.676 -19.813 -20.355  0.00  0.00    +0.317 C 
BRANCH  16  17
ATOM     17  O   UNL     1      37.669 -19.212 -21.062  0.00  0.00    -0.480 OA
ATOM     18  H   UNL     1      37.544 -19.014 -21.969  0.00  0.00    +0.295 HD
ENDBRANCH  16  17
ENDBRANCH  13  16
ENDBRANCH   1  13
TORSDOF 4
ENDMDL
