MODEL 1
REMARK VINA RESULT:      -7.3      0.000      0.000
REMARK  Name = 6057
REMARK  6 active torsions:
REMARK  status: ('A' for Active; 'I' for Inactive)
REMARK    1  A    between atoms: CB_1  and  CG_2
REMARK    2  A    between atoms: CB_1  and  CA_10
REMARK    3  A    between atoms: CZ_7  and  OH_8
REMARK    4  A    between atoms: CA_10  and  N_11
REMARK    5  A    between atoms: CA_10  and  C_16
REMARK    6  A    between atoms: C_16  and  O_17
REMARK                            x       y       z     vdW  Elec       q    Type
REMARK                         _______ _______ _______ _____ _____    ______ ____
ROOT
ATOM      1  CB  TYR A   1      35.803 -18.576 -21.811  0.00  0.00    +0.015 C 
ENDROOT
BRANCH   1   2
ATOM      2  CG  TYR A   1      35.004 -19.579 -21.011  0.00  0.00    -0.024 C 
ATOM      3  CD1 TYR A   1      33.622 -19.493 -21.002  0.00  0.00    -0.001 C 
ATOM      4  CD2 TYR A   1      35.671 -20.566 -20.303  0.00  0.00    -0.001 C 
ATOM      5  CE1 TYR A   1      32.886 -20.419 -20.263  0.00  0.00    +0.036 C 
ATOM      6  CE2 TYR A   1      34.935 -21.491 -19.565  0.00  0.00    +0.036 C 
ATOM      7  CZ  TYR A   1      33.542 -21.419 -19.545  0.00  0.00    +0.134 C 
BRANCH   7   8
ATOM      8  OH  TYR A   1      32.823 -22.322 -18.825  0.00  0.00    -0.506 OA
ATOM      9  HH  TYR A   1      32.071 -22.043 -18.340  0.00  0.00    +0.292 HD
ENDBRANCH   7   8
ENDBRANCH   1   2
BRANCH   1  10
ATOM     10  CA  TYR A   1      34.918 -17.551 -22.538  0.00  0.00    +0.040 C 
BRANCH  10  11
ATOM     11  N   TYR A   1      35.414 -17.347 -23.898  0.00  0.00    +0.389 N 
ATOM     12  H1  TYR A   1      35.501 -16.348 -24.082  0.00  0.00    -0.088 HD
ATOM     13  H2  TYR A   1      34.760 -17.760 -24.564  0.00  0.00    -0.088 HD
ATOM     14  H3  TYR A   1      36.326 -17.793 -23.997  0.00  0.00    -0.088 HD
ENDBRANCH  10  11
BRANCH  10  16
ATOM     15  OXT TYR A   1      34.964 -16.017 -20.648  0.00  0.00    -0.253 OA
ATOM     16  C   TYR A   1      34.940 -16.192 -21.859  0.00  0.00    +0.293 C 
BRANCH  16  17
ATOM     17  O   TYR A   1      34.965 -15.170 -22.752  0.00  0.00    -0.482 OA
ATOM     18  H   TYR A   1      34.514 -15.249 -23.570  0.00  0.00    +0.295 HD
ENDBRANCH  16  17
ENDBRANCH  10  16
ENDBRANCH   1  10
TORSDOF 6
ENDMDL
MODEL 2
REMARK VINA RESULT:      -7.2      0.013      1.340
REMARK  Name = 6057
REMARK  6 active torsions:
REMARK  status: ('A' for Active; 'I' for Inactive)
REMARK    1  A    between atoms: CB_1  and  CG_2
REMARK    2  A    between atoms: CB_1  and  CA_10
REMARK    3  A    between atoms: CZ_7  and  OH_8
REMARK    4  A    between atoms: CA_10  and  N_11
REMARK    5  A    between atoms: CA_10  and  C_16
REMARK    6  A    between atoms: C_16  and  O_17
REMARK                            x       y       z     vdW  Elec       q    Type
REMARK                         _______ _______ _______ _____ _____    ______ ____
ROOT
ATOM      1  CB  TYR A   1      35.801 -18.576 -21.813  0.00  0.00    +0.015 C 
ENDROOT
BRANCH   1   2
ATOM      2  CG  TYR A   1      34.998 -19.576 -21.013  0.00  0.00    -0.024 C 
ATOM      3  CD1 TYR A   1      35.660 -20.562 -20.302  0.00  0.00    -0.001 C 
ATOM      4  CD2 TYR A   1      33.615 -19.485 -21.008  0.00  0.00    -0.001 C 
ATOM      5  CE1 TYR A   1      34.918 -21.486 -19.565  0.00  0.00    +0.036 C 
ATOM      6  CE2 TYR A   1      32.874 -20.408 -20.271  0.00  0.00    +0.036 C 
ATOM      7  CZ  TYR A   1      33.524 -21.408 -19.549  0.00  0.00    +0.134 C 
BRANCH   7   8
ATOM      8  OH  TYR A   1      32.802 -22.309 -18.830  0.00  0.00    -0.506 OA
ATOM      9  HH  TYR A   1      32.002 -22.046 -18.418  0.00  0.00    +0.292 HD
ENDBRANCH   7   8
ENDBRANCH   1   2
BRANCH   1  10
ATOM     10  CA  TYR A   1      34.920 -17.549 -22.543  0.00  0.00    +0.040 C 
BRANCH  10  11
ATOM     11  N   TYR A   1      35.421 -17.346 -23.901  0.00  0.00    +0.389 N 
ATOM     12  H1  TYR A   1      35.567 -16.351 -24.064  0.00  0.00    -0.088 HD
ATOM     13  H2  TYR A   1      34.740 -17.704 -24.571  0.00  0.00    -0.088 HD
ATOM     14  H3  TYR A   1      36.304 -17.844 -24.015  0.00  0.00    -0.088 HD
ENDBRANCH  10  11
BRANCH  10  16
ATOM     15  OXT TYR A   1      34.969 -16.015 -20.653  0.00  0.00    -0.253 OA
ATOM     16  C   TYR A   1      34.943 -16.191 -21.863  0.00  0.00    +0.293 C 
BRANCH  16  17
ATOM     17  O   TYR A   1      34.966 -15.168 -22.756  0.00  0.00    -0.482 OA
ATOM     18  H   TYR A   1      35.589 -15.170 -23.456  0.00  0.00    +0.295 HD
ENDBRANCH  16  17
ENDBRANCH  10  16
ENDBRANCH   1  10
TORSDOF 6
ENDMDL
MODEL 3
REMARK VINA RESULT:      -7.1      1.386      2.247
REMARK  Name = 6057
REMARK  6 active torsions:
REMARK  status: ('A' for Active; 'I' for Inactive)
REMARK    1  A    between atoms: CB_1  and  CG_2
REMARK    2  A    between atoms: CB_1  and  CA_10
REMARK    3  A    between atoms: CZ_7  and  OH_8
REMARK    4  A    between atoms: CA_10  and  N_11
REMARK    5  A    between atoms: CA_10  and  C_16
REMARK    6  A    between atoms: C_16  and  O_17
REMARK                            x       y       z     vdW  Elec       q    Type
REMARK                         _______ _______ _______ _____ _____    ______ ____
ROOT
ATOM      1  CB  TYR A   1      35.328 -18.454 -22.212  0.00  0.00    +0.015 C 
ENDROOT
BRANCH   1   2
ATOM      2  CG  TYR A   1      34.706 -19.473 -21.284  0.00  0.00    -0.024 C 
ATOM      3  CD1 TYR A   1      35.521 -20.391 -20.644  0.00  0.00    -0.001 C 
ATOM      4  CD2 TYR A   1      33.334 -19.465 -21.092  0.00  0.00    -0.001 C 
ATOM      5  CE1 TYR A   1      34.946 -21.331 -19.788  0.00  0.00    +0.036 C 
ATOM      6  CE2 TYR A   1      32.761 -20.404 -20.236  0.00  0.00    +0.036 C 
ATOM      7  CZ  TYR A   1      33.566 -21.337 -19.583  0.00  0.00    +0.134 C 
BRANCH   7   8
ATOM      8  OH  TYR A   1      33.007 -22.254 -18.748  0.00  0.00    -0.506 OA
ATOM      9  HH  TYR A   1      33.197 -22.230 -17.830  0.00  0.00    +0.292 HD
ENDBRANCH   7   8
ENDBRANCH   1   2
BRANCH   1  10
ATOM     10  CA  TYR A   1      34.606 -18.361 -23.566  0.00  0.00    +0.040 C 
BRANCH  10  11
ATOM     11  N   TYR A   1      34.934 -19.528 -24.382  0.00  0.00    +0.389 N 
ATOM     12  H1  TYR A   1      35.608 -20.111 -23.886  0.00  0.00    -0.088 HD
ATOM     13  H2  TYR A   1      35.336 -19.222 -25.268  0.00  0.00    -0.088 HD
ATOM     14  H3  TYR A   1      34.086 -20.066 -24.561  0.00  0.00    -0.088 HD
ENDBRANCH  10  11
BRANCH  10  16
ATOM     15  OXT TYR A   1      34.762 -16.938 -25.536  0.00  0.00    -0.253 OA
ATOM     16  C   TYR A   1      35.038 -17.140 -24.360  0.00  0.00    +0.293 C 
BRANCH  16  17
ATOM     17  O   TYR A   1      35.747 -16.259 -23.609  0.00  0.00    -0.482 OA
ATOM     18  H   TYR A   1      36.682 -16.231 -23.678  0.00  0.00    +0.295 HD
ENDBRANCH  16  17
ENDBRANCH  10  16
ENDBRANCH   1  10
TORSDOF 6
ENDMDL
MODEL 4
REMARK VINA RESULT:      -7.0      1.499      1.761
REMARK  Name = 6057
REMARK  6 active torsions:
REMARK  status: ('A' for Active; 'I' for Inactive)
REMARK    1  A    between atoms: CB_1  and  CG_2
REMARK    2  A    between atoms: CB_1  and  CA_10
REMARK    3  A    between atoms: CZ_7  and  OH_8
REMARK    4  A    between atoms: CA_10  and  N_11
REMARK    5  A    between atoms: CA_10  and  C_16
REMARK    6  A    between atoms: C_16  and  O_17
REMARK                            x       y       z     vdW  Elec       q    Type
REMARK                         _______ _______ _______ _____ _____    ______ ____
ROOT
ATOM      1  CB  TYR A   1      34.280 -18.768 -21.962  0.00  0.00    +0.015 C 
ENDROOT
BRANCH   1   2
ATOM      2  CG  TYR A   1      34.447 -19.861 -20.932  0.00  0.00    -0.024 C 
ATOM      3  CD1 TYR A   1      33.323 -20.419 -20.348  0.00  0.00    -0.001 C 
ATOM      4  CD2 TYR A   1      35.723 -20.283 -20.594  0.00  0.00    -0.001 C 
ATOM      5  CE1 TYR A   1      33.479 -21.428 -19.396  0.00  0.00    +0.036 C 
ATOM      6  CE2 TYR A   1      35.879 -21.291 -19.644  0.00  0.00    +0.036 C 
ATOM      7  CZ  TYR A   1      34.757 -21.864 -19.045  0.00  0.00    +0.134 C 
BRANCH   7   8
ATOM      8  OH  TYR A   1      34.908 -22.848 -18.118  0.00  0.00    -0.506 OA
ATOM      9  HH  TYR A   1      35.136 -23.717 -18.388  0.00  0.00    +0.292 HD
ENDBRANCH   7   8
ENDBRANCH   1   2
BRANCH   1  10
ATOM     10  CA  TYR A   1      35.311 -17.639 -21.809  0.00  0.00    +0.040 C 
BRANCH  10  11
ATOM     11  N   TYR A   1      35.000 -16.842 -20.624  0.00  0.00    +0.389 N 
ATOM     12  H1  TYR A   1      34.005 -16.623 -20.614  0.00  0.00    -0.088 HD
ATOM     13  H2  TYR A   1      35.539 -15.976 -20.646  0.00  0.00    -0.088 HD
ATOM     14  H3  TYR A   1      35.242 -17.372 -19.786  0.00  0.00    -0.088 HD
ENDBRANCH  10  11
BRANCH  10  16
ATOM     15  OXT TYR A   1      35.145 -15.473 -22.909  0.00  0.00    -0.253 OA
ATOM     16  C   TYR A   1      35.294 -16.685 -22.992  0.00  0.00    +0.293 C 
BRANCH  16  17
ATOM     17  O   TYR A   1      35.500 -17.323 -24.173  0.00  0.00    -0.482 OA
ATOM     18  H   TYR A   1      36.059 -16.940 -24.821  0.00  0.00    +0.295 HD
ENDBRANCH  16  17
ENDBRANCH  10  16
ENDBRANCH   1  10
TORSDOF 6
ENDMDL
MODEL 5
REMARK VINA RESULT:      -6.9      2.054      2.460
REMARK  Name = 6057
REMARK  6 active torsions:
REMARK  status: ('A' for Active; 'I' for Inactive)
REMARK    1  A    between atoms: CB_1  and  CG_2
REMARK    2  A    between atoms: CB_1  and  CA_10
REMARK    3  A    between atoms: CZ_7  and  OH_8
REMARK    4  A    between atoms: CA_10  and  N_11
REMARK    5  A    between atoms: CA_10  and  C_16
REMARK    6  A    between atoms: C_16  and  O_17
REMARK                            x       y       z     vdW  Elec       q    Type
REMARK                         _______ _______ _______ _____ _____    ______ ____
ROOT
ATOM      1  CB  TYR A   1      34.267 -18.053 -22.034  0.00  0.00    +0.015 C 
ENDROOT
BRANCH   1   2
ATOM      2  CG  TYR A   1      34.440 -19.274 -21.160  0.00  0.00    -0.024 C 
ATOM      3  CD1 TYR A   1      33.319 -19.916 -20.663  0.00  0.00    -0.001 C 
ATOM      4  CD2 TYR A   1      35.718 -19.725 -20.873  0.00  0.00    -0.001 C 
ATOM      5  CE1 TYR A   1      33.480 -21.042 -19.855  0.00  0.00    +0.036 C 
ATOM      6  CE2 TYR A   1      35.879 -20.851 -20.066  0.00  0.00    +0.036 C 
ATOM      7  CZ  TYR A   1      34.760 -21.510 -19.557  0.00  0.00    +0.134 C 
BRANCH   7   8
ATOM      8  OH  TYR A   1      34.916 -22.609 -18.770  0.00  0.00    -0.506 OA
ATOM      9  HH  TYR A   1      35.721 -23.089 -18.789  0.00  0.00    +0.292 HD
ENDBRANCH   7   8
ENDBRANCH   1   2
BRANCH   1  10
ATOM     10  CA  TYR A   1      35.286 -17.991 -23.183  0.00  0.00    +0.040 C 
BRANCH  10  11
ATOM     11  N   TYR A   1      35.658 -16.601 -23.438  0.00  0.00    +0.389 N 
ATOM     12  H1  TYR A   1      34.821 -16.058 -23.646  0.00  0.00    -0.088 HD
ATOM     13  H2  TYR A   1      36.296 -16.561 -24.234  0.00  0.00    -0.088 HD
ATOM     14  H3  TYR A   1      36.119 -16.216 -22.614  0.00  0.00    -0.088 HD
ENDBRANCH  10  11
BRANCH  10  16
ATOM     15  OXT TYR A   1      34.216 -17.852 -25.366  0.00  0.00    -0.253 OA
ATOM     16  C   TYR A   1      34.717 -18.535 -24.482  0.00  0.00    +0.293 C 
BRANCH  16  17
ATOM     17  O   TYR A   1      34.853 -19.882 -24.582  0.00  0.00    -0.482 OA
ATOM     18  H   TYR A   1      35.611 -20.248 -24.993  0.00  0.00    +0.295 HD
ENDBRANCH  16  17
ENDBRANCH  10  16
ENDBRANCH   1  10
TORSDOF 6
ENDMDL
MODEL 6
REMARK VINA RESULT:      -6.7      2.579      5.399
REMARK  Name = 6057
REMARK  6 active torsions:
REMARK  status: ('A' for Active; 'I' for Inactive)
REMARK    1  A    between atoms: CB_1  and  CG_2
REMARK    2  A    between atoms: CB_1  and  CA_10
REMARK    3  A    between atoms: CZ_7  and  OH_8
REMARK    4  A    between atoms: CA_10  and  N_11
REMARK    5  A    between atoms: CA_10  and  C_16
REMARK    6  A    between atoms: C_16  and  O_17
REMARK                            x       y       z     vdW  Elec       q    Type
REMARK                         _______ _______ _______ _____ _____    ______ ____
ROOT
ATOM      1  CB  TYR A   1      35.711 -19.050 -21.070  0.00  0.00    +0.015 C 
ENDROOT
BRANCH   1   2
ATOM      2  CG  TYR A   1      35.310 -18.414 -22.380  0.00  0.00    -0.024 C 
ATOM      3  CD1 TYR A   1      35.310 -17.034 -22.491  0.00  0.00    -0.001 C 
ATOM      4  CD2 TYR A   1      34.950 -19.224 -23.444  0.00  0.00    -0.001 C 
ATOM      5  CE1 TYR A   1      34.939 -16.447 -23.701  0.00  0.00    +0.036 C 
ATOM      6  CE2 TYR A   1      34.580 -18.638 -24.654  0.00  0.00    +0.036 C 
ATOM      7  CZ  TYR A   1      34.574 -17.249 -24.783  0.00  0.00    +0.134 C 
BRANCH   7   8
ATOM      8  OH  TYR A   1      34.212 -16.676 -25.962  0.00  0.00    -0.506 OA
ATOM      9  HH  TYR A   1      33.356 -16.826 -26.314  0.00  0.00    +0.292 HD
ENDBRANCH   7   8
ENDBRANCH   1   2
BRANCH   1  10
ATOM     10  CA  TYR A   1      34.974 -20.370 -20.796  0.00  0.00    +0.040 C 
BRANCH  10  11
ATOM     11  N   TYR A   1      33.614 -20.091 -20.341  0.00  0.00    +0.389 N 
ATOM     12  H1  TYR A   1      33.209 -19.351 -20.913  0.00  0.00    -0.088 HD
ATOM     13  H2  TYR A   1      33.635 -19.793 -19.365  0.00  0.00    -0.088 HD
ATOM     14  H3  TYR A   1      33.047 -20.935 -20.426  0.00  0.00    -0.088 HD
ENDBRANCH  10  11
BRANCH  10  16
ATOM     15  OXT TYR A   1      36.499 -20.753 -18.936  0.00  0.00    -0.253 OA
ATOM     16  C   TYR A   1      35.642 -21.181 -19.698  0.00  0.00    +0.293 C 
BRANCH  16  17
ATOM     17  O   TYR A   1      35.157 -22.447 -19.623  0.00  0.00    -0.482 OA
ATOM     18  H   TYR A   1      34.999 -22.841 -18.787  0.00  0.00    +0.295 HD
ENDBRANCH  16  17
ENDBRANCH  10  16
ENDBRANCH   1  10
TORSDOF 6
ENDMDL
MODEL 7
REMARK VINA RESULT:      -6.6      9.121     10.275
REMARK  Name = 6057
REMARK  6 active torsions:
REMARK  status: ('A' for Active; 'I' for Inactive)
REMARK    1  A    between atoms: CB_1  and  CG_2
REMARK    2  A    between atoms: CB_1  and  CA_10
REMARK    3  A    between atoms: CZ_7  and  OH_8
REMARK    4  A    between atoms: CA_10  and  N_11
REMARK    5  A    between atoms: CA_10  and  C_16
REMARK    6  A    between atoms: C_16  and  O_17
REMARK                            x       y       z     vdW  Elec       q    Type
REMARK                         _______ _______ _______ _____ _____    ______ ____
ROOT
ATOM      1  CB  TYR A   1      37.853 -26.121 -14.450  0.00  0.00    +0.015 C 
ENDROOT
BRANCH   1   2
ATOM      2  CG  TYR A   1      36.588 -25.411 -14.024  0.00  0.00    -0.024 C 
ATOM      3  CD1 TYR A   1      35.610 -25.145 -14.967  0.00  0.00    -0.001 C 
ATOM      4  CD2 TYR A   1      36.433 -25.042 -12.698  0.00  0.00    -0.001 C 
ATOM      5  CE1 TYR A   1      34.443 -24.489 -14.574  0.00  0.00    +0.036 C 
ATOM      6  CE2 TYR A   1      35.267 -24.387 -12.305  0.00  0.00    +0.036 C 
ATOM      7  CZ  TYR A   1      34.271 -24.111 -13.242  0.00  0.00    +0.134 C 
BRANCH   7   8
ATOM      8  OH  TYR A   1      33.133 -23.472 -12.859  0.00  0.00    -0.506 OA
ATOM      9  HH  TYR A   1      32.421 -23.379 -13.462  0.00  0.00    +0.292 HD
ENDBRANCH   7   8
ENDBRANCH   1   2
BRANCH   1  10
ATOM     10  CA  TYR A   1      39.075 -25.190 -14.494  0.00  0.00    +0.040 C 
BRANCH  10  11
ATOM     11  N   TYR A   1      38.883 -24.171 -15.525  0.00  0.00    +0.389 N 
ATOM     12  H1  TYR A   1      38.116 -23.556 -15.256  0.00  0.00    -0.088 HD
ATOM     13  H2  TYR A   1      38.661 -24.623 -16.412  0.00  0.00    -0.088 HD
ATOM     14  H3  TYR A   1      39.738 -23.625 -15.627  0.00  0.00    -0.088 HD
ENDBRANCH  10  11
BRANCH  10  16
ATOM     15  OXT TYR A   1      41.092 -26.477 -14.043  0.00  0.00    -0.253 OA
ATOM     16  C   TYR A   1      40.349 -25.935 -14.851  0.00  0.00    +0.293 C 
BRANCH  16  17
ATOM     17  O   TYR A   1      40.568 -25.971 -16.191  0.00  0.00    -0.482 OA
ATOM     18  H   TYR A   1      40.418 -25.206 -16.711  0.00  0.00    +0.295 HD
ENDBRANCH  16  17
ENDBRANCH  10  16
ENDBRANCH   1  10
TORSDOF 6
ENDMDL
MODEL 8
REMARK VINA RESULT:      -6.5      1.969      5.431
REMARK  Name = 6057
REMARK  6 active torsions:
REMARK  status: ('A' for Active; 'I' for Inactive)
REMARK    1  A    between atoms: CB_1  and  CG_2
REMARK    2  A    between atoms: CB_1  and  CA_10
REMARK    3  A    between atoms: CZ_7  and  OH_8
REMARK    4  A    between atoms: CA_10  and  N_11
REMARK    5  A    between atoms: CA_10  and  C_16
REMARK    6  A    between atoms: C_16  and  O_17
REMARK                            x       y       z     vdW  Elec       q    Type
REMARK                         _______ _______ _______ _____ _____    ______ ____
ROOT
ATOM      1  CB  TYR A   1      33.769 -20.387 -20.830  0.00  0.00    +0.015 C 
ENDROOT
BRANCH   1   2
ATOM      2  CG  TYR A   1      34.280 -19.202 -21.617  0.00  0.00    -0.024 C 
ATOM      3  CD1 TYR A   1      34.353 -17.963 -21.003  0.00  0.00    -0.001 C 
ATOM      4  CD2 TYR A   1      34.664 -19.379 -22.936  0.00  0.00    -0.001 C 
ATOM      5  CE1 TYR A   1      34.824 -16.869 -21.729  0.00  0.00    +0.036 C 
ATOM      6  CE2 TYR A   1      35.134 -18.285 -23.662  0.00  0.00    +0.036 C 
ATOM      7  CZ  TYR A   1      35.215 -17.030 -23.059  0.00  0.00    +0.134 C 
BRANCH   7   8
ATOM      8  OH  TYR A   1      35.674 -15.963 -23.766  0.00  0.00    -0.506 OA
ATOM      9  HH  TYR A   1      36.567 -15.937 -24.049  0.00  0.00    +0.292 HD
ENDBRANCH   7   8
ENDBRANCH   1   2
BRANCH   1  10
ATOM     10  CA  TYR A   1      34.757 -20.859 -19.752  0.00  0.00    +0.040 C 
BRANCH  10  11
ATOM     11  N   TYR A   1      36.025 -21.237 -20.374  0.00  0.00    +0.389 N 
ATOM     12  H1  TYR A   1      35.886 -22.067 -20.950  0.00  0.00    -0.088 HD
ATOM     13  H2  TYR A   1      36.713 -21.437 -19.648  0.00  0.00    -0.088 HD
ATOM     14  H3  TYR A   1      36.359 -20.469 -20.957  0.00  0.00    -0.088 HD
ENDBRANCH  10  11
BRANCH  10  16
ATOM     15  OXT TYR A   1      34.891 -22.707 -18.172  0.00  0.00    -0.253 OA
ATOM     16  C   TYR A   1      34.253 -22.087 -19.012  0.00  0.00    +0.293 C 
BRANCH  16  17
ATOM     17  O   TYR A   1      32.982 -22.414 -19.361  0.00  0.00    -0.482 OA
ATOM     18  H   TYR A   1      32.447 -21.794 -19.817  0.00  0.00    +0.295 HD
ENDBRANCH  16  17
ENDBRANCH  10  16
ENDBRANCH   1  10
TORSDOF 6
ENDMDL
MODEL 9
REMARK VINA RESULT:      -6.5      2.518      5.469
REMARK  Name = 6057
REMARK  6 active torsions:
REMARK  status: ('A' for Active; 'I' for Inactive)
REMARK    1  A    between atoms: CB_1  and  CG_2
REMARK    2  A    between atoms: CB_1  and  CA_10
REMARK    3  A    between atoms: CZ_7  and  OH_8
REMARK    4  A    between atoms: CA_10  and  N_11
REMARK    5  A    between atoms: CA_10  and  C_16
REMARK    6  A    between atoms: C_16  and  O_17
REMARK                            x       y       z     vdW  Elec       q    Type
REMARK                         _______ _______ _______ _____ _____    ______ ____
ROOT
ATOM      1  CB  TYR A   1      35.373 -18.316 -21.376  0.00  0.00    +0.015 C 
ENDROOT
BRANCH   1   2
ATOM      2  CG  TYR A   1      34.991 -17.659 -22.683  0.00  0.00    -0.024 C 
ATOM      3  CD1 TYR A   1      34.725 -16.301 -22.706  0.00  0.00    -0.001 C 
ATOM      4  CD2 TYR A   1      34.916 -18.431 -23.831  0.00  0.00    -0.001 C 
ATOM      5  CE1 TYR A   1      34.372 -15.696 -23.912  0.00  0.00    +0.036 C 
ATOM      6  CE2 TYR A   1      34.564 -17.826 -25.037  0.00  0.00    +0.036 C 
ATOM      7  CZ  TYR A   1      34.292 -16.458 -25.078  0.00  0.00    +0.134 C 
BRANCH   7   8
ATOM      8  OH  TYR A   1      33.948 -15.867 -26.254  0.00  0.00    -0.506 OA
ATOM      9  HH  TYR A   1      33.278 -16.244 -26.791  0.00  0.00    +0.292 HD
ENDBRANCH   7   8
ENDBRANCH   1   2
BRANCH   1  10
ATOM     10  CA  TYR A   1      34.829 -19.747 -21.245  0.00  0.00    +0.040 C 
BRANCH  10  11
ATOM     11  N   TYR A   1      33.434 -19.707 -20.810  0.00  0.00    +0.389 N 
ATOM     12  H1  TYR A   1      33.366 -20.057 -19.855  0.00  0.00    -0.088 HD
ATOM     13  H2  TYR A   1      32.869 -20.291 -21.427  0.00  0.00    -0.088 HD
ATOM     14  H3  TYR A   1      33.094 -18.746 -20.846  0.00  0.00    -0.088 HD
ENDBRANCH  10  11
BRANCH  10  16
ATOM     15  OXT TYR A   1      35.222 -21.632 -19.754  0.00  0.00    -0.253 OA
ATOM     16  C   TYR A   1      35.586 -20.553 -20.203  0.00  0.00    +0.293 C 
BRANCH  16  17
ATOM     17  O   TYR A   1      36.752 -19.960 -19.838  0.00  0.00    -0.482 OA
ATOM     18  H   TYR A   1      37.322 -20.382 -19.226  0.00  0.00    +0.295 HD
ENDBRANCH  16  17
ENDBRANCH  10  16
ENDBRANCH   1  10
TORSDOF 6
ENDMDL
