MODEL 1
REMARK VINA RESULT:      -8.0      0.000      0.000
REMARK  Name = 46202416
REMARK  4 active torsions:
REMARK  status: ('A' for Active; 'I' for Inactive)
REMARK    1  A    between atoms: C_4  and  C_15
REMARK    2  A    between atoms: C_4  and  C_23
REMARK    3  A    between atoms: C_18  and  C_22
REMARK    4  A    between atoms: C_26  and  C_31
REMARK                            x       y       z     vdW  Elec       q    Type
REMARK                         _______ _______ _______ _____ _____    ______ ____
ROOT
ATOM      1  F   UNL     1      33.466  -4.839 -25.720  0.00  0.00    -0.204 F 
ATOM      2  N   UNL     1      34.621  -8.242 -23.336  0.00  0.00    -0.248 NA
ATOM      3  N   UNL     1      35.578  -6.354 -24.411  0.00  0.00    -0.343 N 
ATOM      4  C   UNL     1      33.230  -8.842 -23.204  0.00  0.00    +0.142 C 
ATOM      5  C   UNL     1      32.366  -7.856 -23.968  0.00  0.00    +0.010 C 
ATOM      6  C   UNL     1      33.169  -6.853 -24.488  0.00  0.00    +0.057 C 
ATOM      7  C   UNL     1      34.531  -7.160 -24.063  0.00  0.00    +0.123 C 
ATOM      8  C   UNL     1      30.994  -7.817 -24.175  0.00  0.00    -0.002 C 
ATOM      9  C   UNL     1      32.672  -5.799 -25.231  0.00  0.00    +0.143 C 
ATOM     10  C   UNL     1      30.461  -6.764 -24.924  0.00  0.00    +0.002 C 
ATOM     11  C   UNL     1      31.294  -5.762 -25.449  0.00  0.00    +0.030 C 
ATOM     12  H   UNL     1      36.491  -6.576 -24.116  0.00  0.00    +0.144 HD
ATOM     13  H   UNL     1      35.421  -5.550 -24.957  0.00  0.00    +0.144 HD
ENDROOT
BRANCH   4  15
ATOM     14  N   UNL     1      31.955  -8.945 -19.055  0.00  0.00    -0.243 NA
ATOM     15  C   UNL     1      32.776  -8.879 -21.726  0.00  0.00    +0.008 C 
ATOM     16  C   UNL     1      32.224 -10.038 -21.194  0.00  0.00    +0.018 C 
ATOM     17  C   UNL     1      32.919  -7.753 -20.924  0.00  0.00    +0.019 C 
ATOM     18  C   UNL     1      31.832 -10.020 -19.865  0.00  0.00    +0.125 C 
ATOM     19  C   UNL     1      32.497  -7.836 -19.607  0.00  0.00    +0.098 C 
BRANCH  18  22
ATOM     20  F   UNL     1      31.189 -11.215 -17.896  0.00  0.00    -0.192 F 
ATOM     21  F   UNL     1      31.914 -12.391 -19.567  0.00  0.00    -0.192 F 
ATOM     22  C   UNL     1      31.235 -11.247 -19.260  0.00  0.00    +0.358 C 
ENDBRANCH  18  22
ENDBRANCH   4  15
BRANCH   4  23
ATOM     23  C   UNL     1      33.330 -10.259 -23.815  0.00  0.00    +0.005 C 
ATOM     24  C   UNL     1      33.319 -11.380 -22.986  0.00  0.00    -0.002 C 
ATOM     25  C   UNL     1      33.429 -10.414 -25.198  0.00  0.00    -0.002 C 
ATOM     26  C   UNL     1      33.408 -12.656 -23.539  0.00  0.00    +0.003 C 
ATOM     27  C   UNL     1      33.517 -11.692 -25.752  0.00  0.00    -0.000 C 
ATOM     28  C   UNL     1      33.506 -12.813 -24.921  0.00  0.00    +0.000 C 
BRANCH  26  31
ATOM     29  N   UNL     1      32.217 -15.297 -21.187  0.00  0.00    -0.222 NA
ATOM     30  N   UNL     1      34.542 -15.690 -21.686  0.00  0.00    -0.222 NA
ATOM     31  C   UNL     1      33.396 -13.820 -22.679  0.00  0.00    +0.038 C 
ATOM     32  C   UNL     1      32.264 -14.219 -21.998  0.00  0.00    +0.102 C 
ATOM     33  C   UNL     1      34.517 -14.601 -22.483  0.00  0.00    +0.102 C 
ATOM     34  C   UNL     1      33.375 -15.976 -21.078  0.00  0.00    +0.199 C 
ENDBRANCH  26  31
ENDBRANCH   4  23
TORSDOF 4
ENDMDL
MODEL 2
REMARK VINA RESULT:      -7.5      4.136     10.128
REMARK  Name = 46202416
REMARK  4 active torsions:
REMARK  status: ('A' for Active; 'I' for Inactive)
REMARK    1  A    between atoms: C_4  and  C_15
REMARK    2  A    between atoms: C_4  and  C_23
REMARK    3  A    between atoms: C_18  and  C_22
REMARK    4  A    between atoms: C_26  and  C_31
REMARK                            x       y       z     vdW  Elec       q    Type
REMARK                         _______ _______ _______ _____ _____    ______ ____
ROOT
ATOM      1  F   UNL     1      36.047 -21.310 -19.158  0.00  0.00    -0.204 F 
ATOM      2  N   UNL     1      36.027 -17.727 -21.558  0.00  0.00    -0.248 NA
ATOM      3  N   UNL     1      37.507 -19.040 -20.244  0.00  0.00    -0.343 N 
ATOM      4  C   UNL     1      34.552 -17.770 -21.922  0.00  0.00    +0.142 C 
ATOM      5  C   UNL     1      34.072 -19.032 -21.229  0.00  0.00    +0.010 C 
ATOM      6  C   UNL     1      35.130 -19.605 -20.540  0.00  0.00    +0.057 C 
ATOM      7  C   UNL     1      36.287 -18.749 -20.786  0.00  0.00    +0.123 C 
ATOM      8  C   UNL     1      32.828 -19.648 -21.216  0.00  0.00    -0.002 C 
ATOM      9  C   UNL     1      35.011 -20.774 -19.813  0.00  0.00    +0.143 C 
ATOM     10  C   UNL     1      32.675 -20.831 -20.488  0.00  0.00    +0.002 C 
ATOM     11  C   UNL     1      33.759 -21.389 -19.790  0.00  0.00    +0.030 C 
ATOM     12  H   UNL     1      38.277 -18.452 -20.421  0.00  0.00    +0.144 HD
ATOM     13  H   UNL     1      37.618 -19.838 -19.678  0.00  0.00    +0.144 HD
ENDROOT
BRANCH   4  15
ATOM     14  N   UNL     1      34.006 -18.196 -26.208  0.00  0.00    -0.243 NA
ATOM     15  C   UNL     1      34.358 -17.921 -23.449  0.00  0.00    +0.008 C 
ATOM     16  C   UNL     1      33.881 -16.855 -24.201  0.00  0.00    +0.018 C 
ATOM     17  C   UNL     1      34.659 -19.126 -24.074  0.00  0.00    +0.019 C 
ATOM     18  C   UNL     1      33.724 -17.041 -25.565  0.00  0.00    +0.125 C 
ATOM     19  C   UNL     1      34.468 -19.212 -25.443  0.00  0.00    +0.098 C 
BRANCH  18  22
ATOM     20  F   UNL     1      32.984 -14.770 -25.699  0.00  0.00    -0.192 F 
ATOM     21  F   UNL     1      32.030 -16.196 -27.026  0.00  0.00    -0.192 F 
ATOM     22  C   UNL     1      33.214 -15.917 -26.404  0.00  0.00    +0.358 C 
ENDBRANCH  18  22
ENDBRANCH   4  15
BRANCH   4  23
ATOM     23  C   UNL     1      33.955 -16.446 -21.390  0.00  0.00    +0.005 C 
ATOM     24  C   UNL     1      33.896 -15.325 -22.217  0.00  0.00    -0.002 C 
ATOM     25  C   UNL     1      33.473 -16.376 -20.082  0.00  0.00    -0.002 C 
ATOM     26  C   UNL     1      33.356 -14.133 -21.736  0.00  0.00    +0.003 C 
ATOM     27  C   UNL     1      32.933 -15.183 -19.602  0.00  0.00    -0.000 C 
ATOM     28  C   UNL     1      32.874 -14.062 -20.429  0.00  0.00    +0.000 C 
BRANCH  26  31
ATOM     29  N   UNL     1      34.004 -11.801 -24.576  0.00  0.00    -0.222 NA
ATOM     30  N   UNL     1      32.414 -10.781 -23.079  0.00  0.00    -0.222 NA
ATOM     31  C   UNL     1      33.294 -12.969 -22.594  0.00  0.00    +0.038 C 
ATOM     32  C   UNL     1      34.035 -12.871 -23.754  0.00  0.00    +0.102 C 
ATOM     33  C   UNL     1      32.493 -11.883 -22.304  0.00  0.00    +0.102 C 
ATOM     34  C   UNL     1      33.185 -10.808 -24.184  0.00  0.00    +0.199 C 
ENDBRANCH  26  31
ENDBRANCH   4  23
TORSDOF 4
ENDMDL
MODEL 3
REMARK VINA RESULT:      -7.4     13.283     16.143
REMARK  Name = 46202416
REMARK  4 active torsions:
REMARK  status: ('A' for Active; 'I' for Inactive)
REMARK    1  A    between atoms: C_4  and  C_15
REMARK    2  A    between atoms: C_4  and  C_23
REMARK    3  A    between atoms: C_18  and  C_22
REMARK    4  A    between atoms: C_26  and  C_31
REMARK                            x       y       z     vdW  Elec       q    Type
REMARK                         _______ _______ _______ _____ _____    ______ ____
ROOT
ATOM      1  F   UNL     1      35.764 -21.861 -20.186  0.00  0.00    -0.204 F 
ATOM      2  N   UNL     1      33.908 -24.542 -17.364  0.00  0.00    -0.248 NA
ATOM      3  N   UNL     1      33.986 -24.112 -19.699  0.00  0.00    -0.343 N 
ATOM      4  C   UNL     1      34.513 -23.925 -16.114  0.00  0.00    +0.142 C 
ATOM      5  C   UNL     1      35.370 -22.805 -16.674  0.00  0.00    +0.010 C 
ATOM      6  C   UNL     1      35.238 -22.776 -18.054  0.00  0.00    +0.057 C 
ATOM      7  C   UNL     1      34.327 -23.863 -18.399  0.00  0.00    +0.123 C 
ATOM      8  C   UNL     1      36.213 -21.901 -16.044  0.00  0.00    -0.002 C 
ATOM      9  C   UNL     1      35.904 -21.868 -18.855  0.00  0.00    +0.143 C 
ATOM     10  C   UNL     1      36.900 -20.969 -16.827  0.00  0.00    +0.002 C 
ATOM     11  C   UNL     1      36.745 -20.951 -18.223  0.00  0.00    +0.030 C 
ATOM     12  H   UNL     1      33.370 -24.850 -19.913  0.00  0.00    +0.144 HD
ATOM     13  H   UNL     1      34.356 -23.554 -20.421  0.00  0.00    +0.144 HD
ENDROOT
BRANCH   4  15
ATOM     14  N   UNL     1      37.052 -26.768 -14.035  0.00  0.00    -0.243 NA
ATOM     15  C   UNL     1      35.417 -24.938 -15.373  0.00  0.00    +0.008 C 
ATOM     16  C   UNL     1      35.860 -24.665 -14.084  0.00  0.00    +0.018 C 
ATOM     17  C   UNL     1      35.790 -26.124 -15.995  0.00  0.00    +0.019 C 
ATOM     18  C   UNL     1      36.668 -25.604 -13.464  0.00  0.00    +0.125 C 
ATOM     19  C   UNL     1      36.602 -26.998 -15.290  0.00  0.00    +0.098 C 
BRANCH  18  22
ATOM     20  F   UNL     1      36.326 -24.560 -11.340  0.00  0.00    -0.192 F 
ATOM     21  F   UNL     1      38.371 -24.710 -12.043  0.00  0.00    -0.192 F 
ATOM     22  C   UNL     1      37.163 -25.345 -12.080  0.00  0.00    +0.358 C 
ENDBRANCH  18  22
ENDBRANCH   4  15
BRANCH   4  23
ATOM     23  C   UNL     1      33.311 -23.480 -15.249  0.00  0.00    +0.005 C 
ATOM     24  C   UNL     1      32.051 -23.328 -15.828  0.00  0.00    -0.002 C 
ATOM     25  C   UNL     1      33.488 -23.233 -13.887  0.00  0.00    -0.002 C 
ATOM     26  C   UNL     1      30.969 -22.929 -15.045  0.00  0.00    +0.003 C 
ATOM     27  C   UNL     1      32.405 -22.834 -13.104  0.00  0.00    -0.000 C 
ATOM     28  C   UNL     1      31.145 -22.682 -13.684  0.00  0.00    +0.000 C 
BRANCH  26  31
ATOM     29  N   UNL     1      28.161 -23.130 -17.494  0.00  0.00    -0.222 NA
ATOM     30  N   UNL     1      27.400 -21.952 -15.533  0.00  0.00    -0.222 NA
ATOM     31  C   UNL     1      29.661 -22.771 -15.646  0.00  0.00    +0.038 C 
ATOM     32  C   UNL     1      29.367 -23.260 -16.903  0.00  0.00    +0.102 C 
ATOM     33  C   UNL     1      28.630 -22.119 -15.001  0.00  0.00    +0.102 C 
ATOM     34  C   UNL     1      27.238 -22.475 -16.764  0.00  0.00    +0.199 C 
ENDBRANCH  26  31
ENDBRANCH   4  23
TORSDOF 4
ENDMDL
MODEL 4
REMARK VINA RESULT:      -7.3      2.922      7.458
REMARK  Name = 46202416
REMARK  4 active torsions:
REMARK  status: ('A' for Active; 'I' for Inactive)
REMARK    1  A    between atoms: C_4  and  C_15
REMARK    2  A    between atoms: C_4  and  C_23
REMARK    3  A    between atoms: C_18  and  C_22
REMARK    4  A    between atoms: C_26  and  C_31
REMARK                            x       y       z     vdW  Elec       q    Type
REMARK                         _______ _______ _______ _____ _____    ______ ____
ROOT
ATOM      1  F   UNL     1      31.797  -9.659 -18.505  0.00  0.00    -0.204 F 
ATOM      2  N   UNL     1      33.653  -7.712 -21.876  0.00  0.00    -0.248 NA
ATOM      3  N   UNL     1      33.736  -7.731 -19.503  0.00  0.00    -0.343 N 
ATOM      4  C   UNL     1      32.838  -8.412 -22.951  0.00  0.00    +0.142 C 
ATOM      5  C   UNL     1      31.938  -9.331 -22.146  0.00  0.00    +0.010 C 
ATOM      6  C   UNL     1      32.191  -9.147 -20.795  0.00  0.00    +0.057 C 
ATOM      7  C   UNL     1      33.246  -8.142 -20.711  0.00  0.00    +0.123 C 
ATOM      8  C   UNL     1      30.996 -10.266 -22.549  0.00  0.00    -0.002 C 
ATOM      9  C   UNL     1      31.534  -9.850 -19.803  0.00  0.00    +0.143 C 
ATOM     10  C   UNL     1      30.312 -10.992 -21.569  0.00  0.00    +0.002 C 
ATOM     11  C   UNL     1      30.578 -10.784 -20.205  0.00  0.00    +0.030 C 
ATOM     12  H   UNL     1      34.447  -7.052 -19.465  0.00  0.00    +0.144 HD
ATOM     13  H   UNL     1      33.377  -8.115 -18.670  0.00  0.00    +0.144 HD
ENDROOT
BRANCH   4  15
ATOM     14  N   UNL     1      35.379 -10.801 -25.537  0.00  0.00    -0.243 NA
ATOM     15  C   UNL     1      33.743  -9.263 -23.873  0.00  0.00    +0.008 C 
ATOM     16  C   UNL     1      33.345 -10.538 -24.257  0.00  0.00    +0.018 C 
ATOM     17  C   UNL     1      34.957  -8.755 -24.319  0.00  0.00    +0.019 C 
ATOM     18  C   UNL     1      34.192 -11.261 -25.082  0.00  0.00    +0.125 C 
ATOM     19  C   UNL     1      35.732  -9.557 -25.142  0.00  0.00    +0.098 C 
BRANCH  18  22
ATOM     20  F   UNL     1      33.190 -12.667 -26.737  0.00  0.00    -0.192 F 
ATOM     21  F   UNL     1      32.920 -13.242 -24.664  0.00  0.00    -0.192 F 
ATOM     22  C   UNL     1      33.798 -12.634 -25.515  0.00  0.00    +0.358 C 
ENDBRANCH  18  22
ENDBRANCH   4  15
BRANCH   4  23
ATOM     23  C   UNL     1      32.120  -7.284 -23.727  0.00  0.00    +0.005 C 
ATOM     24  C   UNL     1      32.850  -6.429 -24.553  0.00  0.00    -0.002 C 
ATOM     25  C   UNL     1      30.739  -7.123 -23.602  0.00  0.00    -0.002 C 
ATOM     26  C   UNL     1      32.200  -5.414 -25.253  0.00  0.00    +0.003 C 
ATOM     27  C   UNL     1      30.089  -6.107 -24.303  0.00  0.00    -0.000 C 
ATOM     28  C   UNL     1      30.821  -5.252 -25.128  0.00  0.00    +0.000 C 
BRANCH  26  31
ATOM     29  N   UNL     1      33.278  -2.354 -27.097  0.00  0.00    -0.222 NA
ATOM     30  N   UNL     1      34.812  -4.146 -27.597  0.00  0.00    -0.222 NA
ATOM     31  C   UNL     1      32.958  -4.526 -26.110  0.00  0.00    +0.038 C 
ATOM     32  C   UNL     1      32.598  -3.208 -26.304  0.00  0.00    +0.102 C 
ATOM     33  C   UNL     1      34.084  -4.944 -26.788  0.00  0.00    +0.102 C 
ATOM     34  C   UNL     1      34.358  -2.881 -27.704  0.00  0.00    +0.199 C 
ENDBRANCH  26  31
ENDBRANCH   4  23
TORSDOF 4
ENDMDL
MODEL 5
REMARK VINA RESULT:      -6.9      1.830      2.414
REMARK  Name = 46202416
REMARK  4 active torsions:
REMARK  status: ('A' for Active; 'I' for Inactive)
REMARK    1  A    between atoms: C_4  and  C_15
REMARK    2  A    between atoms: C_4  and  C_23
REMARK    3  A    between atoms: C_18  and  C_22
REMARK    4  A    between atoms: C_26  and  C_31
REMARK                            x       y       z     vdW  Elec       q    Type
REMARK                         _______ _______ _______ _____ _____    ______ ____
ROOT
ATOM      1  F   UNL     1      33.258  -5.590 -24.101  0.00  0.00    -0.204 F 
ATOM      2  N   UNL     1      34.458  -9.623 -23.159  0.00  0.00    -0.248 NA
ATOM      3  N   UNL     1      35.378  -7.444 -23.369  0.00  0.00    -0.343 N 
ATOM      4  C   UNL     1      33.090 -10.259 -23.342  0.00  0.00    +0.142 C 
ATOM      5  C   UNL     1      32.216  -9.074 -23.711  0.00  0.00    +0.010 C 
ATOM      6  C   UNL     1      32.997  -7.929 -23.760  0.00  0.00    +0.057 C 
ATOM      7  C   UNL     1      34.353  -8.346 -23.415  0.00  0.00    +0.123 C 
ATOM      8  C   UNL     1      30.853  -8.989 -23.959  0.00  0.00    -0.002 C 
ATOM      9  C   UNL     1      32.486  -6.681 -24.063  0.00  0.00    +0.143 C 
ATOM     10  C   UNL     1      30.307  -7.741 -24.270  0.00  0.00    +0.002 C 
ATOM     11  C   UNL     1      31.118  -6.595 -24.323  0.00  0.00    +0.030 C 
ATOM     12  H   UNL     1      36.286  -7.742 -23.135  0.00  0.00    +0.144 HD
ATOM     13  H   UNL     1      35.209  -6.494 -23.570  0.00  0.00    +0.144 HD
ENDROOT
BRANCH   4  15
ATOM     14  N   UNL     1      31.655 -11.992 -19.629  0.00  0.00    -0.243 NA
ATOM     15  C   UNL     1      32.579 -10.877 -22.019  0.00  0.00    +0.008 C 
ATOM     16  C   UNL     1      32.671 -12.247 -21.808  0.00  0.00    +0.018 C 
ATOM     17  C   UNL     1      32.026 -10.063 -21.037  0.00  0.00    +0.019 C 
ATOM     18  C   UNL     1      32.198 -12.751 -20.607  0.00  0.00    +0.125 C 
ATOM     19  C   UNL     1      31.583 -10.663 -19.871  0.00  0.00    +0.098 C 
BRANCH  18  22
ATOM     20  F   UNL     1      33.539 -14.647 -20.033  0.00  0.00    -0.192 F 
ATOM     21  F   UNL     1      31.897 -14.983 -21.410  0.00  0.00    -0.192 F 
ATOM     22  C   UNL     1      32.280 -14.219 -20.345  0.00  0.00    +0.358 C 
ENDBRANCH  18  22
ENDBRANCH   4  15
BRANCH   4  23
ATOM     23  C   UNL     1      33.273 -11.325 -24.447  0.00  0.00    +0.005 C 
ATOM     24  C   UNL     1      33.546 -12.649 -24.102  0.00  0.00    -0.002 C 
ATOM     25  C   UNL     1      33.163 -10.961 -25.790  0.00  0.00    -0.002 C 
ATOM     26  C   UNL     1      33.709 -13.609 -25.100  0.00  0.00    +0.003 C 
ATOM     27  C   UNL     1      33.326 -11.922 -26.787  0.00  0.00    -0.000 C 
ATOM     28  C   UNL     1      33.599 -13.246 -26.442  0.00  0.00    +0.000 C 
BRANCH  26  31
ATOM     29  N   UNL     1      34.096 -17.312 -25.342  0.00  0.00    -0.222 NA
ATOM     30  N   UNL     1      34.692 -16.611 -23.114  0.00  0.00    -0.222 NA
ATOM     31  C   UNL     1      33.991 -14.983 -24.742  0.00  0.00    +0.038 C 
ATOM     32  C   UNL     1      33.844 -16.020 -25.640  0.00  0.00    +0.102 C 
ATOM     33  C   UNL     1      34.422 -15.340 -23.481  0.00  0.00    +0.102 C 
ATOM     34  C   UNL     1      34.510 -17.532 -24.079  0.00  0.00    +0.199 C 
ENDBRANCH  26  31
ENDBRANCH   4  23
TORSDOF 4
ENDMDL
MODEL 6
REMARK VINA RESULT:      -6.1      2.853      4.828
REMARK  Name = 46202416
REMARK  4 active torsions:
REMARK  status: ('A' for Active; 'I' for Inactive)
REMARK    1  A    between atoms: C_4  and  C_15
REMARK    2  A    between atoms: C_4  and  C_23
REMARK    3  A    between atoms: C_18  and  C_22
REMARK    4  A    between atoms: C_26  and  C_31
REMARK                            x       y       z     vdW  Elec       q    Type
REMARK                         _______ _______ _______ _____ _____    ______ ____
ROOT
ATOM      1  F   UNL     1      30.146  -5.912 -22.121  0.00  0.00    -0.204 F 
ATOM      2  N   UNL     1      31.048  -9.871 -23.570  0.00  0.00    -0.248 NA
ATOM      3  N   UNL     1      29.319  -8.246 -23.648  0.00  0.00    -0.343 N 
ATOM      4  C   UNL     1      32.413  -9.991 -22.911  0.00  0.00    +0.142 C 
ATOM      5  C   UNL     1      32.563  -8.656 -22.206  0.00  0.00    +0.010 C 
ATOM      6  C   UNL     1      31.420  -7.899 -22.414  0.00  0.00    +0.057 C 
ATOM      7  C   UNL     1      30.542  -8.709 -23.252  0.00  0.00    +0.123 C 
ATOM      8  C   UNL     1      33.612  -8.129 -21.465  0.00  0.00    -0.002 C 
ATOM      9  C   UNL     1      31.256  -6.625 -21.903  0.00  0.00    +0.143 C 
ATOM     10  C   UNL     1      33.476  -6.844 -20.933  0.00  0.00    +0.002 C 
ATOM     11  C   UNL     1      32.305  -6.097 -21.149  0.00  0.00    +0.030 C 
ATOM     12  H   UNL     1      28.739  -8.806 -24.214  0.00  0.00    +0.144 HD
ATOM     13  H   UNL     1      29.016  -7.352 -23.369  0.00  0.00    +0.144 HD
ENDROOT
BRANCH   4  15
ATOM     14  N   UNL     1      35.558 -10.404 -25.875  0.00  0.00    -0.243 NA
ATOM     15  C   UNL     1      33.533 -10.139 -23.967  0.00  0.00    +0.008 C 
ATOM     16  C   UNL     1      33.492 -11.179 -24.887  0.00  0.00    +0.018 C 
ATOM     17  C   UNL     1      34.584  -9.230 -24.000  0.00  0.00    +0.019 C 
ATOM     18  C   UNL     1      34.520 -11.268 -25.812  0.00  0.00    +0.125 C 
ATOM     19  C   UNL     1      35.563  -9.404 -24.964  0.00  0.00    +0.098 C 
BRANCH  18  22
ATOM     20  F   UNL     1      35.312 -12.137 -27.895  0.00  0.00    -0.192 F 
ATOM     21  F   UNL     1      33.273 -12.623 -27.338  0.00  0.00    -0.192 F 
ATOM     22  C   UNL     1      34.510 -12.373 -26.815  0.00  0.00    +0.358 C 
ENDBRANCH  18  22
ENDBRANCH   4  15
BRANCH   4  23
ATOM     23  C   UNL     1      32.320 -11.229 -21.989  0.00  0.00    +0.005 C 
ATOM     24  C   UNL     1      32.906 -12.434 -22.375  0.00  0.00    -0.002 C 
ATOM     25  C   UNL     1      31.651 -11.137 -20.767  0.00  0.00    -0.002 C 
ATOM     26  C   UNL     1      32.822 -13.548 -21.541  0.00  0.00    +0.003 C 
ATOM     27  C   UNL     1      31.568 -12.252 -19.933  0.00  0.00    -0.000 C 
ATOM     28  C   UNL     1      32.154 -13.458 -20.321  0.00  0.00    +0.000 C 
BRANCH  26  31
ATOM     29  N   UNL     1      34.342 -16.951 -21.366  0.00  0.00    -0.222 NA
ATOM     30  N   UNL     1      34.279 -16.244 -23.669  0.00  0.00    -0.222 NA
ATOM     31  C   UNL     1      33.431 -14.799 -21.942  0.00  0.00    +0.038 C 
ATOM     32  C   UNL     1      33.772 -15.775 -21.028  0.00  0.00    +0.102 C 
ATOM     33  C   UNL     1      33.711 -15.091 -23.261  0.00  0.00    +0.102 C 
ATOM     34  C   UNL     1      34.565 -17.117 -22.683  0.00  0.00    +0.199 C 
ENDBRANCH  26  31
ENDBRANCH   4  23
TORSDOF 4
ENDMDL
MODEL 7
REMARK VINA RESULT:      -6.1      3.363      5.937
REMARK  Name = 46202416
REMARK  4 active torsions:
REMARK  status: ('A' for Active; 'I' for Inactive)
REMARK    1  A    between atoms: C_4  and  C_15
REMARK    2  A    between atoms: C_4  and  C_23
REMARK    3  A    between atoms: C_18  and  C_22
REMARK    4  A    between atoms: C_26  and  C_31
REMARK                            x       y       z     vdW  Elec       q    Type
REMARK                         _______ _______ _______ _____ _____    ______ ____
ROOT
ATOM      1  F   UNL     1      32.013  -8.131 -22.784  0.00  0.00    -0.204 F 
ATOM      2  N   UNL     1      31.672 -12.416 -23.124  0.00  0.00    -0.248 NA
ATOM      3  N   UNL     1      30.385 -10.525 -22.488  0.00  0.00    -0.343 N 
ATOM      4  C   UNL     1      33.095 -12.667 -23.596  0.00  0.00    +0.142 C 
ATOM      5  C   UNL     1      33.681 -11.269 -23.654  0.00  0.00    +0.010 C 
ATOM      6  C   UNL     1      32.723 -10.356 -23.237  0.00  0.00    +0.057 C 
ATOM      7  C   UNL     1      31.527 -11.132 -22.928  0.00  0.00    +0.123 C 
ATOM      8  C   UNL     1      34.931 -10.820 -24.056  0.00  0.00    -0.002 C 
ATOM      9  C   UNL     1      32.953  -8.994 -23.186  0.00  0.00    +0.143 C 
ATOM     10  C   UNL     1      35.194  -9.448 -24.014  0.00  0.00    +0.002 C 
ATOM     11  C   UNL     1      34.213  -8.541 -23.580  0.00  0.00    +0.030 C 
ATOM     12  H   UNL     1      29.587 -11.064 -22.284  0.00  0.00    +0.144 HD
ATOM     13  H   UNL     1      30.359  -9.547 -22.374  0.00  0.00    +0.144 HD
ENDROOT
BRANCH   4  15
ATOM     14  N   UNL     1      33.145 -14.402 -27.576  0.00  0.00    -0.243 NA
ATOM     15  C   UNL     1      33.112 -13.286 -25.014  0.00  0.00    +0.008 C 
ATOM     16  C   UNL     1      32.964 -14.657 -25.179  0.00  0.00    +0.018 C 
ATOM     17  C   UNL     1      33.276 -12.470 -26.128  0.00  0.00    +0.019 C 
ATOM     18  C   UNL     1      32.988 -15.162 -26.469  0.00  0.00    +0.125 C 
ATOM     19  C   UNL     1      33.286 -13.071 -27.376  0.00  0.00    +0.098 C 
BRANCH  18  22
ATOM     20  F   UNL     1      31.553 -17.006 -26.982  0.00  0.00    -0.192 F 
ATOM     21  F   UNL     1      33.180 -17.380 -25.597  0.00  0.00    -0.192 F 
ATOM     22  C   UNL     1      32.833 -16.631 -26.685  0.00  0.00    +0.358 C 
ENDBRANCH  18  22
ENDBRANCH   4  15
BRANCH   4  23
ATOM     23  C   UNL     1      33.719 -13.612 -22.544  0.00  0.00    +0.005 C 
ATOM     24  C   UNL     1      33.911 -14.961 -22.843  0.00  0.00    -0.002 C 
ATOM     25  C   UNL     1      34.095 -13.113 -21.296  0.00  0.00    -0.002 C 
ATOM     26  C   UNL     1      34.476 -15.811 -21.893  0.00  0.00    +0.003 C 
ATOM     27  C   UNL     1      34.660 -13.964 -20.347  0.00  0.00    -0.000 C 
ATOM     28  C   UNL     1      34.851 -15.313 -20.646  0.00  0.00    +0.000 C 
BRANCH  26  31
ATOM     29  N   UNL     1      34.409 -19.532 -21.620  0.00  0.00    -0.222 NA
ATOM     30  N   UNL     1      35.520 -18.922 -23.670  0.00  0.00    -0.222 NA
ATOM     31  C   UNL     1      34.675 -17.211 -22.203  0.00  0.00    +0.038 C 
ATOM     32  C   UNL     1      34.239 -18.217 -21.365  0.00  0.00    +0.102 C 
ATOM     33  C   UNL     1      35.316 -17.626 -23.352  0.00  0.00    +0.102 C 
ATOM     34  C   UNL     1      35.048 -19.808 -22.772  0.00  0.00    +0.199 C 
ENDBRANCH  26  31
ENDBRANCH   4  23
TORSDOF 4
ENDMDL
MODEL 8
REMARK VINA RESULT:      -5.8      2.684      7.170
REMARK  Name = 46202416
REMARK  4 active torsions:
REMARK  status: ('A' for Active; 'I' for Inactive)
REMARK    1  A    between atoms: C_4  and  C_15
REMARK    2  A    between atoms: C_4  and  C_23
REMARK    3  A    between atoms: C_18  and  C_22
REMARK    4  A    between atoms: C_26  and  C_31
REMARK                            x       y       z     vdW  Elec       q    Type
REMARK                         _______ _______ _______ _____ _____    ______ ____
ROOT
ATOM      1  F   UNL     1      33.979 -17.132 -25.286  0.00  0.00    -0.204 F 
ATOM      2  N   UNL     1      34.717 -13.431 -23.201  0.00  0.00    -0.248 NA
ATOM      3  N   UNL     1      35.401 -15.705 -23.187  0.00  0.00    -0.343 N 
ATOM      4  C   UNL     1      33.729 -12.587 -23.989  0.00  0.00    +0.142 C 
ATOM      5  C   UNL     1      33.158 -13.580 -24.984  0.00  0.00    +0.010 C 
ATOM      6  C   UNL     1      33.726 -14.825 -24.763  0.00  0.00    +0.057 C 
ATOM      7  C   UNL     1      34.664 -14.654 -23.657  0.00  0.00    +0.123 C 
ATOM      8  C   UNL     1      32.241 -13.415 -26.013  0.00  0.00    -0.002 C 
ATOM      9  C   UNL     1      33.415 -15.941 -25.516  0.00  0.00    +0.143 C 
ATOM     10  C   UNL     1      31.903 -14.526 -26.792  0.00  0.00    +0.002 C 
ATOM     11  C   UNL     1      32.485 -15.780 -26.545  0.00  0.00    +0.030 C 
ATOM     12  H   UNL     1      36.028 -15.571 -22.440  0.00  0.00    +0.144 HD
ATOM     13  H   UNL     1      35.304 -16.596 -23.595  0.00  0.00    +0.144 HD
ENDROOT
BRANCH   4  15
ATOM     14  N   UNL     1      35.751  -9.406 -26.145  0.00  0.00    -0.243 NA
ATOM     15  C   UNL     1      34.449 -11.453 -24.756  0.00  0.00    +0.008 C 
ATOM     16  C   UNL     1      34.510 -10.174 -24.217  0.00  0.00    +0.018 C 
ATOM     17  C   UNL     1      35.039 -11.712 -25.989  0.00  0.00    +0.019 C 
ATOM     18  C   UNL     1      35.166  -9.194 -24.945  0.00  0.00    +0.125 C 
ATOM     19  C   UNL     1      35.672 -10.664 -26.637  0.00  0.00    +0.098 C 
BRANCH  18  22
ATOM     20  F   UNL     1      34.875  -7.716 -23.087  0.00  0.00    -0.192 F 
ATOM     21  F   UNL     1      34.460  -6.912 -25.058  0.00  0.00    -0.192 F 
ATOM     22  C   UNL     1      35.251  -7.808 -24.397  0.00  0.00    +0.358 C 
ENDBRANCH  18  22
ENDBRANCH   4  15
BRANCH   4  23
ATOM     23  C   UNL     1      32.729 -12.036 -22.946  0.00  0.00    +0.005 C 
ATOM     24  C   UNL     1      32.652 -10.663 -22.710  0.00  0.00    -0.002 C 
ATOM     25  C   UNL     1      31.903 -12.913 -22.243  0.00  0.00    -0.002 C 
ATOM     26  C   UNL     1      31.749 -10.168 -21.770  0.00  0.00    +0.003 C 
ATOM     27  C   UNL     1      31.000 -12.417 -21.302  0.00  0.00    -0.000 C 
ATOM     28  C   UNL     1      30.923 -11.044 -21.067  0.00  0.00    +0.000 C 
BRANCH  26  31
ATOM     29  N   UNL     1      31.091  -6.530 -22.275  0.00  0.00    -0.222 NA
ATOM     30  N   UNL     1      32.018  -6.855 -20.074  0.00  0.00    -0.222 NA
ATOM     31  C   UNL     1      31.668  -8.744 -21.525  0.00  0.00    +0.038 C 
ATOM     32  C   UNL     1      31.179  -7.863 -22.468  0.00  0.00    +0.102 C 
ATOM     33  C   UNL     1      32.077  -8.178 -20.335  0.00  0.00    +0.102 C 
ATOM     34  C   UNL     1      31.522  -6.101 -21.074  0.00  0.00    +0.199 C 
ENDBRANCH  26  31
ENDBRANCH   4  23
TORSDOF 4
ENDMDL
MODEL 9
REMARK VINA RESULT:      -5.6      4.074      8.571
REMARK  Name = 46202416
REMARK  4 active torsions:
REMARK  status: ('A' for Active; 'I' for Inactive)
REMARK    1  A    between atoms: C_4  and  C_15
REMARK    2  A    between atoms: C_4  and  C_23
REMARK    3  A    between atoms: C_18  and  C_22
REMARK    4  A    between atoms: C_26  and  C_31
REMARK                            x       y       z     vdW  Elec       q    Type
REMARK                         _______ _______ _______ _____ _____    ______ ____
ROOT
ATOM      1  F   UNL     1      31.008  -9.892 -21.017  0.00  0.00    -0.204 F 
ATOM      2  N   UNL     1      30.923  -7.146 -24.341  0.00  0.00    -0.248 NA
ATOM      3  N   UNL     1      30.030  -9.245 -23.680  0.00  0.00    -0.343 N 
ATOM      4  C   UNL     1      31.872  -6.120 -23.743  0.00  0.00    +0.142 C 
ATOM      5  C   UNL     1      32.203  -6.718 -22.389  0.00  0.00    +0.010 C 
ATOM      6  C   UNL     1      31.552  -7.936 -22.256  0.00  0.00    +0.057 C 
ATOM      7  C   UNL     1      30.794  -8.129 -23.489  0.00  0.00    +0.123 C 
ATOM      8  C   UNL     1      32.984  -6.238 -21.346  0.00  0.00    -0.002 C 
ATOM      9  C   UNL     1      31.648  -8.723 -21.124  0.00  0.00    +0.143 C 
ATOM     10  C   UNL     1      33.103  -7.013 -20.189  0.00  0.00    +0.002 C 
ATOM     11  C   UNL     1      32.441  -8.247 -20.079  0.00  0.00    +0.030 C 
ATOM     12  H   UNL     1      29.525  -9.359 -24.518  0.00  0.00    +0.144 HD
ATOM     13  H   UNL     1      29.982  -9.936 -22.980  0.00  0.00    +0.144 HD
ENDROOT
BRANCH   4  15
ATOM     14  N   UNL     1      29.895  -2.297 -23.173  0.00  0.00    -0.243 NA
ATOM     15  C   UNL     1      31.167  -4.759 -23.541  0.00  0.00    +0.008 C 
ATOM     16  C   UNL     1      30.942  -3.921 -24.626  0.00  0.00    +0.018 C 
ATOM     17  C   UNL     1      30.757  -4.368 -22.271  0.00  0.00    +0.019 C 
ATOM     18  C   UNL     1      30.308  -2.711 -24.392  0.00  0.00    +0.125 C 
ATOM     19  C   UNL     1      30.131  -3.139 -22.141  0.00  0.00    +0.098 C 
BRANCH  18  22
ATOM     20  F   UNL     1      28.753  -1.797 -25.963  0.00  0.00    -0.192 F 
ATOM     21  F   UNL     1      30.794  -2.069 -26.644  0.00  0.00    -0.192 F 
ATOM     22  C   UNL     1      30.050  -1.786 -25.534  0.00  0.00    +0.358 C 
ENDBRANCH  18  22
ENDBRANCH   4  15
BRANCH   4  23
ATOM     23  C   UNL     1      33.052  -6.020 -24.737  0.00  0.00    +0.005 C 
ATOM     24  C   UNL     1      32.967  -5.171 -25.840  0.00  0.00    -0.002 C 
ATOM     25  C   UNL     1      34.205  -6.778 -24.527  0.00  0.00    -0.002 C 
ATOM     26  C   UNL     1      34.033  -5.080 -26.734  0.00  0.00    +0.003 C 
ATOM     27  C   UNL     1      35.272  -6.687 -25.422  0.00  0.00    -0.000 C 
ATOM     28  C   UNL     1      35.185  -5.838 -26.525  0.00  0.00    +0.000 C 
BRANCH  26  31
ATOM     29  N   UNL     1      34.920  -2.506 -29.285  0.00  0.00    -0.222 NA
ATOM     30  N   UNL     1      32.712  -3.348 -29.763  0.00  0.00    -0.222 NA
ATOM     31  C   UNL     1      33.944  -4.199 -27.879  0.00  0.00    +0.038 C 
ATOM     32  C   UNL     1      34.969  -3.342 -28.227  0.00  0.00    +0.102 C 
ATOM     33  C   UNL     1      32.829  -4.158 -28.691  0.00  0.00    +0.102 C 
ATOM     34  C   UNL     1      33.780  -2.559 -29.999  0.00  0.00    +0.199 C 
ENDBRANCH  26  31
ENDBRANCH   4  23
TORSDOF 4
ENDMDL
