MODEL 1
REMARK VINA RESULT:     -12.5      0.000      0.000
REMARK  Name = 23629645
REMARK  6 active torsions:
REMARK  status: ('A' for Active; 'I' for Inactive)
REMARK    1  A    between atoms: N_1  and  C_6
REMARK    2  A    between atoms: N_1  and  C_21
REMARK    3  A    between atoms: C_3  and  C_16
REMARK    4  A    between atoms: C_11  and  C_18
REMARK    5  A    between atoms: C_18  and  O_19
REMARK    6  A    between atoms: C_21  and  C_28
REMARK                            x       y       z     vdW  Elec       q    Type
REMARK                         _______ _______ _______ _____ _____    ______ ____
ROOT
ATOM      1  N   UNL     1      35.078 -18.753 -22.562  0.00  0.00    -0.300 N 
ATOM      2  C   UNL     1      34.685 -19.054 -23.923  0.00  0.00    +0.113 C 
ENDROOT
BRANCH   1   6
ATOM      3  C   UNL     1      34.087 -21.371 -19.436  0.00  0.00    +0.054 C 
ATOM      4  C   UNL     1      35.411 -21.260 -19.854  0.00  0.00    +0.006 C 
ATOM      5  C   UNL     1      33.090 -20.618 -20.051  0.00  0.00    +0.006 C 
ATOM      6  C   UNL     1      34.745 -19.633 -21.510  0.00  0.00    +0.048 C 
ATOM      7  C   UNL     1      35.741 -20.389 -20.892  0.00  0.00    +0.015 C 
ATOM      8  C   UNL     1      33.419 -19.748 -21.090  0.00  0.00    +0.015 C 
BRANCH   3  16
ATOM      9  O   UNL     1      32.553 -22.595 -18.249  0.00  0.00    -0.270 OA
ATOM     10  N   UNL     1      34.763 -22.727 -17.501  0.00  0.00    -0.276 N 
ATOM     11  C   UNL     1      36.354 -22.604 -15.078  0.00  0.00    +0.102 C 
ATOM     12  C   UNL     1      34.897 -23.079 -15.073  0.00  0.00    +0.033 C 
ATOM     13  C   UNL     1      36.681 -21.746 -16.306  0.00  0.00    +0.033 C 
ATOM     14  C   UNL     1      34.462 -23.660 -16.419  0.00  0.00    +0.094 C 
ATOM     15  C   UNL     1      36.180 -22.362 -17.612  0.00  0.00    +0.094 C 
ATOM     16  C   UNL     1      33.740 -22.288 -18.343  0.00  0.00    +0.249 C 
BRANCH  11  18
ATOM     17  O   UNL     1      38.454 -23.760 -15.329  0.00  0.00    -0.250 OA
ATOM     18  C   UNL     1      37.282 -23.780 -14.978  0.00  0.00    +0.317 C 
BRANCH  18  19
ATOM     19  O   UNL     1      36.616 -24.843 -14.444  0.00  0.00    -0.444 OA
ATOM     20  C   UNL     1      37.006 -26.126 -14.943  0.00  0.00    +0.256 C 
ENDBRANCH  18  19
ENDBRANCH  11  18
ENDBRANCH   3  16
ENDBRANCH   1   6
BRANCH   1  21
ATOM     21  C   UNL     1      35.806 -17.529 -22.290  0.00  0.00    +0.148 C 
BRANCH  21  28
ATOM     22  N   UNL     1      34.385 -15.683 -22.962  0.00  0.00    -0.392 NA
ATOM     23  N   UNL     1      33.761 -15.100 -20.329  0.00  0.00    -0.200 NA
ATOM     24  N   UNL     1      32.415 -13.347 -21.022  0.00  0.00    -0.271 NA
ATOM     25  N   UNL     1      32.155 -12.838 -23.350  0.00  0.00    -0.310 NA
ATOM     26  N   UNL     1      33.285 -14.141 -24.965  0.00  0.00    -0.329 N 
ATOM     27  N   UNL     1      31.050 -11.570 -21.721  0.00  0.00    -0.283 N 
ATOM     28  C   UNL     1      34.882 -16.391 -21.947  0.00  0.00    +0.133 C 
ATOM     29  C   UNL     1      34.586 -16.115 -20.650  0.00  0.00    +0.193 C 
ATOM     30  C   UNL     1      33.560 -14.668 -22.640  0.00  0.00    +0.248 C 
ATOM     31  C   UNL     1      33.237 -14.362 -21.316  0.00  0.00    +0.131 C 
ATOM     32  C   UNL     1      32.984 -13.866 -23.605  0.00  0.00    +0.231 C 
ATOM     33  C   UNL     1      31.915 -12.636 -22.050  0.00  0.00    +0.207 C 
ATOM     34  H   UNL     1      32.891 -13.588 -25.678  0.00  0.00    +0.145 HD
ATOM     35  H   UNL     1      33.888 -14.884 -25.195  0.00  0.00    +0.145 HD
ATOM     36  H   UNL     1      30.841 -11.380 -20.777  0.00  0.00    +0.156 HD
ATOM     37  H   UNL     1      30.657 -11.017 -22.434  0.00  0.00    +0.156 HD
ENDBRANCH  21  28
ENDBRANCH   1  21
TORSDOF 6
ENDMDL
MODEL 2
REMARK VINA RESULT:     -12.0      3.611     10.863
REMARK  Name = 23629645
REMARK  6 active torsions:
REMARK  status: ('A' for Active; 'I' for Inactive)
REMARK    1  A    between atoms: N_1  and  C_6
REMARK    2  A    between atoms: N_1  and  C_21
REMARK    3  A    between atoms: C_3  and  C_16
REMARK    4  A    between atoms: C_11  and  C_18
REMARK    5  A    between atoms: C_18  and  O_19
REMARK    6  A    between atoms: C_21  and  C_28
REMARK                            x       y       z     vdW  Elec       q    Type
REMARK                         _______ _______ _______ _____ _____    ______ ____
ROOT
ATOM      1  N   UNL     1      34.306 -22.614 -17.869  0.00  0.00    -0.300 N 
ATOM      2  C   UNL     1      33.796 -23.960 -18.027  0.00  0.00    +0.113 C 
ENDROOT
BRANCH   1   6
ATOM      3  C   UNL     1      34.574 -20.042 -21.174  0.00  0.00    +0.054 C 
ATOM      4  C   UNL     1      33.325 -20.395 -20.670  0.00  0.00    +0.006 C 
ATOM      5  C   UNL     1      35.735 -20.539 -20.587  0.00  0.00    +0.006 C 
ATOM      6  C   UNL     1      34.396 -21.749 -18.981  0.00  0.00    +0.048 C 
ATOM      7  C   UNL     1      33.236 -21.250 -19.571  0.00  0.00    +0.015 C 
ATOM      8  C   UNL     1      35.646 -21.394 -19.488  0.00  0.00    +0.015 C 
BRANCH   3  16
ATOM      9  O   UNL     1      35.149 -19.625 -23.355  0.00  0.00    -0.270 OA
ATOM     10  N   UNL     1      34.222 -17.828 -22.183  0.00  0.00    -0.276 N 
ATOM     11  C   UNL     1      34.620 -15.001 -21.668  0.00  0.00    +0.102 C 
ATOM     12  C   UNL     1      35.090 -15.668 -22.966  0.00  0.00    +0.033 C 
ATOM     13  C   UNL     1      34.432 -16.013 -20.531  0.00  0.00    +0.033 C 
ATOM     14  C   UNL     1      34.275 -16.912 -23.319  0.00  0.00    +0.094 C 
ATOM     15  C   UNL     1      33.647 -17.251 -20.962  0.00  0.00    +0.094 C 
ATOM     16  C   UNL     1      34.668 -19.143 -22.332  0.00  0.00    +0.249 C 
BRANCH  11  18
ATOM     17  O   UNL     1      32.541 -13.956 -21.046  0.00  0.00    -0.250 OA
ATOM     18  C   UNL     1      33.361 -14.222 -21.913  0.00  0.00    +0.317 C 
BRANCH  18  19
ATOM     19  O   UNL     1      33.289 -13.873 -23.229  0.00  0.00    -0.444 OA
ATOM     20  C   UNL     1      33.463 -12.479 -23.506  0.00  0.00    +0.256 C 
ENDBRANCH  18  19
ENDBRANCH  11  18
ENDBRANCH   3  16
ENDBRANCH   1   6
BRANCH   1  21
ATOM     21  C   UNL     1      34.736 -22.169 -16.558  0.00  0.00    +0.148 C 
BRANCH  21  28
ATOM     22  N   UNL     1      35.949 -24.103 -15.741  0.00  0.00    -0.392 NA
ATOM     23  N   UNL     1      38.345 -22.718 -15.781  0.00  0.00    -0.200 NA
ATOM     24  N   UNL     1      39.458 -24.592 -14.999  0.00  0.00    -0.271 NA
ATOM     25  N   UNL     1      38.276 -26.630 -14.550  0.00  0.00    -0.310 NA
ATOM     26  N   UNL     1      35.943 -26.731 -14.908  0.00  0.00    -0.329 N 
ATOM     27  N   UNL     1      40.589 -26.491 -14.208  0.00  0.00    -0.283 N 
ATOM     28  C   UNL     1      36.020 -22.831 -16.134  0.00  0.00    +0.133 C 
ATOM     29  C   UNL     1      37.189 -22.139 -16.158  0.00  0.00    +0.193 C 
ATOM     30  C   UNL     1      37.106 -24.682 -15.364  0.00  0.00    +0.248 C 
ATOM     31  C   UNL     1      38.322 -23.995 -15.379  0.00  0.00    +0.131 C 
ATOM     32  C   UNL     1      37.157 -25.995 -14.939  0.00  0.00    +0.231 C 
ATOM     33  C   UNL     1      39.381 -25.877 -14.604  0.00  0.00    +0.207 C 
ATOM     34  H   UNL     1      35.944 -27.669 -14.610  0.00  0.00    +0.145 HD
ATOM     35  H   UNL     1      35.101 -26.304 -15.185  0.00  0.00    +0.145 HD
ATOM     36  H   UNL     1      41.430 -25.980 -14.230  0.00  0.00    +0.156 HD
ATOM     37  H   UNL     1      40.589 -27.428 -13.909  0.00  0.00    +0.156 HD
ENDBRANCH  21  28
ENDBRANCH   1  21
TORSDOF 6
ENDMDL
MODEL 3
REMARK VINA RESULT:     -11.9      3.658     10.614
REMARK  Name = 23629645
REMARK  6 active torsions:
REMARK  status: ('A' for Active; 'I' for Inactive)
REMARK    1  A    between atoms: N_1  and  C_6
REMARK    2  A    between atoms: N_1  and  C_21
REMARK    3  A    between atoms: C_3  and  C_16
REMARK    4  A    between atoms: C_11  and  C_18
REMARK    5  A    between atoms: C_18  and  O_19
REMARK    6  A    between atoms: C_21  and  C_28
REMARK                            x       y       z     vdW  Elec       q    Type
REMARK                         _______ _______ _______ _____ _____    ______ ____
ROOT
ATOM      1  N   UNL     1      35.306 -21.837 -18.704  0.00  0.00    -0.300 N 
ATOM      2  C   UNL     1      36.549 -21.912 -17.963  0.00  0.00    +0.113 C 
ENDROOT
BRANCH   1   6
ATOM      3  C   UNL     1      34.834 -19.027 -21.784  0.00  0.00    +0.054 C 
ATOM      4  C   UNL     1      33.725 -19.713 -21.295  0.00  0.00    +0.006 C 
ATOM      5  C   UNL     1      36.099 -19.270 -21.256  0.00  0.00    +0.006 C 
ATOM      6  C   UNL     1      35.147 -20.892 -19.740  0.00  0.00    +0.048 C 
ATOM      7  C   UNL     1      33.881 -20.647 -20.271  0.00  0.00    +0.015 C 
ATOM      8  C   UNL     1      36.256 -20.204 -20.232  0.00  0.00    +0.015 C 
BRANCH   3  16
ATOM      9  O   UNL     1      35.100 -18.373 -23.966  0.00  0.00    -0.270 OA
ATOM     10  N   UNL     1      34.055 -16.828 -22.558  0.00  0.00    -0.276 N 
ATOM     11  C   UNL     1      34.093 -14.017 -21.842  0.00  0.00    +0.102 C 
ATOM     12  C   UNL     1      34.509 -14.510 -23.232  0.00  0.00    +0.033 C 
ATOM     13  C   UNL     1      34.179 -15.124 -20.783  0.00  0.00    +0.033 C 
ATOM     14  C   UNL     1      33.850 -15.836 -23.610  0.00  0.00    +0.094 C 
ATOM     15  C   UNL     1      33.540 -16.434 -21.241  0.00  0.00    +0.094 C 
ATOM     16  C   UNL     1      34.669 -18.045 -22.863  0.00  0.00    +0.249 C 
BRANCH  11  18
ATOM     17  O   UNL     1      32.082 -13.252 -22.926  0.00  0.00    -0.250 OA
ATOM     18  C   UNL     1      32.714 -13.425 -21.894  0.00  0.00    +0.317 C 
BRANCH  18  19
ATOM     19  O   UNL     1      32.301 -13.121 -20.631  0.00  0.00    -0.444 OA
ATOM     20  C   UNL     1      31.599 -11.881 -20.495  0.00  0.00    +0.256 C 
ENDBRANCH  18  19
ENDBRANCH  11  18
ENDBRANCH   3  16
ENDBRANCH   1   6
BRANCH   1  21
ATOM     21  C   UNL     1      34.223 -22.737 -18.360  0.00  0.00    +0.148 C 
BRANCH  21  28
ATOM     22  N   UNL     1      35.423 -23.475 -16.386  0.00  0.00    -0.392 NA
ATOM     23  N   UNL     1      33.114 -23.414 -14.861  0.00  0.00    -0.200 NA
ATOM     24  N   UNL     1      34.305 -24.121 -13.005  0.00  0.00    -0.271 NA
ATOM     25  N   UNL     1      36.661 -24.546 -13.140  0.00  0.00    -0.310 NA
ATOM     26  N   UNL     1      37.787 -24.240 -15.194  0.00  0.00    -0.329 N 
ATOM     27  N   UNL     1      35.509 -24.836 -11.121  0.00  0.00    -0.283 N 
ATOM     28  C   UNL     1      34.247 -23.114 -16.902  0.00  0.00    +0.133 C 
ATOM     29  C   UNL     1      33.106 -23.080 -16.166  0.00  0.00    +0.193 C 
ATOM     30  C   UNL     1      35.429 -23.809 -15.081  0.00  0.00    +0.248 C 
ATOM     31  C   UNL     1      34.272 -23.784 -14.300  0.00  0.00    +0.131 C 
ATOM     32  C   UNL     1      36.587 -24.199 -14.437  0.00  0.00    +0.231 C 
ATOM     33  C   UNL     1      35.494 -24.484 -12.489  0.00  0.00    +0.207 C 
ATOM     34  H   UNL     1      38.630 -24.513 -14.765  0.00  0.00    +0.145 HD
ATOM     35  H   UNL     1      37.777 -23.994 -16.147  0.00  0.00    +0.145 HD
ATOM     36  H   UNL     1      34.676 -24.808 -10.597  0.00  0.00    +0.156 HD
ATOM     37  H   UNL     1      36.352 -25.111 -10.693  0.00  0.00    +0.156 HD
ENDBRANCH  21  28
ENDBRANCH   1  21
TORSDOF 6
ENDMDL
MODEL 4
REMARK VINA RESULT:     -11.8      0.643      1.778
REMARK  Name = 23629645
REMARK  6 active torsions:
REMARK  status: ('A' for Active; 'I' for Inactive)
REMARK    1  A    between atoms: N_1  and  C_6
REMARK    2  A    between atoms: N_1  and  C_21
REMARK    3  A    between atoms: C_3  and  C_16
REMARK    4  A    between atoms: C_11  and  C_18
REMARK    5  A    between atoms: C_18  and  O_19
REMARK    6  A    between atoms: C_21  and  C_28
REMARK                            x       y       z     vdW  Elec       q    Type
REMARK                         _______ _______ _______ _____ _____    ______ ____
ROOT
ATOM      1  N   UNL     1      35.010 -18.759 -22.734  0.00  0.00    -0.300 N 
ATOM      2  C   UNL     1      34.574 -19.070 -24.080  0.00  0.00    +0.113 C 
ENDROOT
BRANCH   1   6
ATOM      3  C   UNL     1      34.045 -21.310 -19.546  0.00  0.00    +0.054 C 
ATOM      4  C   UNL     1      33.036 -20.613 -20.205  0.00  0.00    +0.006 C 
ATOM      5  C   UNL     1      35.372 -21.164 -19.938  0.00  0.00    +0.006 C 
ATOM      6  C   UNL     1      34.685 -19.617 -21.662  0.00  0.00    +0.048 C 
ATOM      7  C   UNL     1      33.356 -19.765 -21.265  0.00  0.00    +0.015 C 
ATOM      8  C   UNL     1      35.694 -20.317 -20.999  0.00  0.00    +0.015 C 
BRANCH   3  16
ATOM      9  O   UNL     1      32.519 -22.494 -18.308  0.00  0.00    -0.270 OA
ATOM     10  N   UNL     1      34.740 -22.635 -17.596  0.00  0.00    -0.276 N 
ATOM     11  C   UNL     1      36.375 -22.483 -15.204  0.00  0.00    +0.102 C 
ATOM     12  C   UNL     1      34.913 -22.942 -15.164  0.00  0.00    +0.033 C 
ATOM     13  C   UNL     1      36.689 -21.652 -16.454  0.00  0.00    +0.033 C 
ATOM     14  C   UNL     1      34.448 -23.543 -16.490  0.00  0.00    +0.094 C 
ATOM     15  C   UNL     1      36.159 -22.287 -17.738  0.00  0.00    +0.094 C 
ATOM     16  C   UNL     1      33.707 -22.202 -18.429  0.00  0.00    +0.249 C 
BRANCH  11  18
ATOM     17  O   UNL     1      38.457 -23.666 -15.469  0.00  0.00    -0.250 OA
ATOM     18  C   UNL     1      37.292 -23.666 -15.096  0.00  0.00    +0.317 C 
BRANCH  18  19
ATOM     19  O   UNL     1      36.624 -24.710 -14.529  0.00  0.00    -0.444 OA
ATOM     20  C   UNL     1      37.030 -26.011 -14.967  0.00  0.00    +0.256 C 
ENDBRANCH  18  19
ENDBRANCH  11  18
ENDBRANCH   3  16
ENDBRANCH   1   6
BRANCH   1  21
ATOM     21  C   UNL     1      35.773 -17.549 -22.500  0.00  0.00    +0.148 C 
BRANCH  21  28
ATOM     22  N   UNL     1      34.193 -15.910 -21.665  0.00  0.00    -0.392 NA
ATOM     23  N   UNL     1      34.216 -14.543 -24.072  0.00  0.00    -0.200 NA
ATOM     24  N   UNL     1      32.706 -13.004 -23.228  0.00  0.00    -0.271 NA
ATOM     25  N   UNL     1      31.876 -13.191 -20.986  0.00  0.00    -0.310 NA
ATOM     26  N   UNL     1      32.608 -14.970 -19.614  0.00  0.00    -0.329 N 
ATOM     27  N   UNL     1      31.175 -11.441 -22.375  0.00  0.00    -0.283 N 
ATOM     28  C   UNL     1      34.938 -16.312 -22.696  0.00  0.00    +0.133 C 
ATOM     29  C   UNL     1      34.958 -15.651 -23.883  0.00  0.00    +0.193 C 
ATOM     30  C   UNL     1      33.451 -14.802 -21.855  0.00  0.00    +0.248 C 
ATOM     31  C   UNL     1      33.452 -14.102 -23.064  0.00  0.00    +0.131 C 
ATOM     32  C   UNL     1      32.641 -14.290 -20.860  0.00  0.00    +0.231 C 
ATOM     33  C   UNL     1      31.956 -12.602 -22.184  0.00  0.00    +0.207 C 
ATOM     34  H   UNL     1      32.042 -14.632 -18.884  0.00  0.00    +0.145 HD
ATOM     35  H   UNL     1      33.153 -15.779 -19.481  0.00  0.00    +0.145 HD
ATOM     36  H   UNL     1      31.198 -10.970 -23.240  0.00  0.00    +0.156 HD
ATOM     37  H   UNL     1      30.608 -11.104 -21.645  0.00  0.00    +0.156 HD
ENDBRANCH  21  28
ENDBRANCH   1  21
TORSDOF 6
ENDMDL
MODEL 5
REMARK VINA RESULT:     -11.5      3.819     10.266
REMARK  Name = 23629645
REMARK  6 active torsions:
REMARK  status: ('A' for Active; 'I' for Inactive)
REMARK    1  A    between atoms: N_1  and  C_6
REMARK    2  A    between atoms: N_1  and  C_21
REMARK    3  A    between atoms: C_3  and  C_16
REMARK    4  A    between atoms: C_11  and  C_18
REMARK    5  A    between atoms: C_18  and  O_19
REMARK    6  A    between atoms: C_21  and  C_28
REMARK                            x       y       z     vdW  Elec       q    Type
REMARK                         _______ _______ _______ _____ _____    ______ ____
ROOT
ATOM      1  N   UNL     1      35.375 -21.852 -18.844  0.00  0.00    -0.300 N 
ATOM      2  C   UNL     1      36.319 -21.658 -17.763  0.00  0.00    +0.113 C 
ENDROOT
BRANCH   1   6
ATOM      3  C   UNL     1      34.924 -18.931 -21.823  0.00  0.00    +0.054 C 
ATOM      4  C   UNL     1      36.180 -19.172 -21.273  0.00  0.00    +0.006 C 
ATOM      5  C   UNL     1      33.816 -19.654 -21.388  0.00  0.00    +0.006 C 
ATOM      6  C   UNL     1      35.223 -20.870 -19.846  0.00  0.00    +0.048 C 
ATOM      7  C   UNL     1      36.331 -20.144 -20.283  0.00  0.00    +0.015 C 
ATOM      8  C   UNL     1      33.966 -20.626 -20.398  0.00  0.00    +0.015 C 
BRANCH   3  16
ATOM      9  O   UNL     1      35.241 -18.177 -23.966  0.00  0.00    -0.270 OA
ATOM     10  N   UNL     1      34.109 -16.722 -22.529  0.00  0.00    -0.276 N 
ATOM     11  C   UNL     1      34.044 -13.945 -21.694  0.00  0.00    +0.102 C 
ATOM     12  C   UNL     1      34.519 -14.366 -23.090  0.00  0.00    +0.033 C 
ATOM     13  C   UNL     1      34.128 -15.093 -20.681  0.00  0.00    +0.033 C 
ATOM     14  C   UNL     1      33.909 -15.692 -23.544  0.00  0.00    +0.094 C 
ATOM     15  C   UNL     1      33.541 -16.399 -21.215  0.00  0.00    +0.094 C 
ATOM     16  C   UNL     1      34.766 -17.908 -22.864  0.00  0.00    +0.249 C 
BRANCH  11  18
ATOM     17  O   UNL     1      31.825 -13.493 -20.873  0.00  0.00    -0.250 OA
ATOM     18  C   UNL     1      32.652 -13.388 -21.767  0.00  0.00    +0.317 C 
BRANCH  18  19
ATOM     19  O   UNL     1      32.473 -12.764 -22.966  0.00  0.00    -0.444 OA
ATOM     20  C   UNL     1      32.560 -11.336 -22.935  0.00  0.00    +0.256 C 
ENDBRANCH  18  19
ENDBRANCH  11  18
ENDBRANCH   3  16
ENDBRANCH   1   6
BRANCH   1  21
ATOM     21  C   UNL     1      34.578 -23.063 -18.878  0.00  0.00    +0.148 C 
BRANCH  21  28
ATOM     22  N   UNL     1      33.972 -23.706 -16.620  0.00  0.00    -0.392 NA
ATOM     23  N   UNL     1      31.448 -22.605 -16.897  0.00  0.00    -0.200 NA
ATOM     24  N   UNL     1      30.918 -23.241 -14.734  0.00  0.00    -0.271 NA
ATOM     25  N   UNL     1      32.509 -24.401 -13.365  0.00  0.00    -0.310 NA
ATOM     26  N   UNL     1      34.649 -24.904 -14.231  0.00  0.00    -0.329 N 
ATOM     27  N   UNL     1      30.378 -23.884 -12.542  0.00  0.00    -0.283 N 
ATOM     28  C   UNL     1      33.583 -23.112 -17.749  0.00  0.00    +0.133 C 
ATOM     29  C   UNL     1      32.347 -22.568 -17.899  0.00  0.00    +0.193 C 
ATOM     30  C   UNL     1      33.072 -23.742 -15.618  0.00  0.00    +0.248 C 
ATOM     31  C   UNL     1      31.795 -23.192 -15.744  0.00  0.00    +0.131 C 
ATOM     32  C   UNL     1      33.362 -24.331 -14.402  0.00  0.00    +0.231 C 
ATOM     33  C   UNL     1      31.316 -23.841 -13.597  0.00  0.00    +0.207 C 
ATOM     34  H   UNL     1      34.887 -25.331 -13.376  0.00  0.00    +0.145 HD
ATOM     35  H   UNL     1      35.303 -24.874 -14.966  0.00  0.00    +0.145 HD
ATOM     36  H   UNL     1      29.486 -23.486 -12.661  0.00  0.00    +0.156 HD
ATOM     37  H   UNL     1      30.617 -24.312 -11.688  0.00  0.00    +0.156 HD
ENDBRANCH  21  28
ENDBRANCH   1  21
TORSDOF 6
ENDMDL
MODEL 6
REMARK VINA RESULT:     -11.4      1.645      2.321
REMARK  Name = 23629645
REMARK  6 active torsions:
REMARK  status: ('A' for Active; 'I' for Inactive)
REMARK    1  A    between atoms: N_1  and  C_6
REMARK    2  A    between atoms: N_1  and  C_21
REMARK    3  A    between atoms: C_3  and  C_16
REMARK    4  A    between atoms: C_11  and  C_18
REMARK    5  A    between atoms: C_18  and  O_19
REMARK    6  A    between atoms: C_21  and  C_28
REMARK                            x       y       z     vdW  Elec       q    Type
REMARK                         _______ _______ _______ _____ _____    ______ ____
ROOT
ATOM      1  N   UNL     1      35.826 -19.964 -20.912  0.00  0.00    -0.300 N 
ATOM      2  C   UNL     1      37.188 -19.468 -20.935  0.00  0.00    +0.113 C 
ENDROOT
BRANCH   1   6
ATOM      3  C   UNL     1      34.529 -22.470 -17.807  0.00  0.00    +0.054 C 
ATOM      4  C   UNL     1      35.860 -22.063 -17.859  0.00  0.00    +0.006 C 
ATOM      5  C   UNL     1      33.627 -22.050 -18.781  0.00  0.00    +0.006 C 
ATOM      6  C   UNL     1      35.390 -20.807 -19.868  0.00  0.00    +0.048 C 
ATOM      7  C   UNL     1      36.291 -21.229 -18.891  0.00  0.00    +0.015 C 
ATOM      8  C   UNL     1      34.058 -21.217 -19.814  0.00  0.00    +0.015 C 
BRANCH   3  16
ATOM      9  O   UNL     1      32.880 -23.638 -16.721  0.00  0.00    -0.270 OA
ATOM     10  N   UNL     1      35.016 -23.773 -15.780  0.00  0.00    -0.276 N 
ATOM     11  C   UNL     1      36.394 -23.594 -13.234  0.00  0.00    +0.102 C 
ATOM     12  C   UNL     1      34.934 -24.051 -13.341  0.00  0.00    +0.033 C 
ATOM     13  C   UNL     1      36.838 -22.778 -14.454  0.00  0.00    +0.033 C 
ATOM     14  C   UNL     1      34.608 -24.668 -14.701  0.00  0.00    +0.094 C 
ATOM     15  C   UNL     1      36.442 -23.428 -15.779  0.00  0.00    +0.094 C 
ATOM     16  C   UNL     1      34.075 -23.348 -16.721  0.00  0.00    +0.249 C 
BRANCH  11  18
ATOM     17  O   UNL     1      36.896 -25.886 -12.687  0.00  0.00    -0.250 OA
ATOM     18  C   UNL     1      37.292 -24.777 -13.018  0.00  0.00    +0.317 C 
BRANCH  18  19
ATOM     19  O   UNL     1      38.586 -24.414 -13.246  0.00  0.00    -0.444 OA
ATOM     20  C   UNL     1      39.375 -25.368 -13.964  0.00  0.00    +0.256 C 
ENDBRANCH  18  19
ENDBRANCH  11  18
ENDBRANCH   3  16
ENDBRANCH   1   6
BRANCH   1  21
ATOM     21  C   UNL     1      34.921 -19.594 -21.983  0.00  0.00    +0.148 C 
BRANCH  21  28
ATOM     22  N   UNL     1      34.423 -17.611 -23.285  0.00  0.00    -0.392 NA
ATOM     23  N   UNL     1      34.817 -15.972 -21.089  0.00  0.00    -0.200 NA
ATOM     24  N   UNL     1      34.334 -14.108 -22.376  0.00  0.00    -0.271 NA
ATOM     25  N   UNL     1      33.781 -14.323 -24.700  0.00  0.00    -0.310 NA
ATOM     26  N   UNL     1      33.727 -16.466 -25.694  0.00  0.00    -0.329 N 
ATOM     27  N   UNL     1      33.844 -12.217 -23.678  0.00  0.00    -0.283 N 
ATOM     28  C   UNL     1      34.761 -18.101 -22.092  0.00  0.00    +0.133 C 
ATOM     29  C   UNL     1      34.958 -17.309 -21.006  0.00  0.00    +0.193 C 
ATOM     30  C   UNL     1      34.283 -16.273 -23.367  0.00  0.00    +0.248 C 
ATOM     31  C   UNL     1      34.479 -15.434 -22.269  0.00  0.00    +0.131 C 
ATOM     32  C   UNL     1      33.935 -15.651 -24.551  0.00  0.00    +0.231 C 
ATOM     33  C   UNL     1      33.993 -13.618 -23.583  0.00  0.00    +0.207 C 
ATOM     34  H   UNL     1      33.478 -16.053 -26.553  0.00  0.00    +0.145 HD
ATOM     35  H   UNL     1      33.830 -17.442 -25.628  0.00  0.00    +0.145 HD
ATOM     36  H   UNL     1      33.989 -11.652 -22.884  0.00  0.00    +0.156 HD
ATOM     37  H   UNL     1      33.596 -11.806 -24.537  0.00  0.00    +0.156 HD
ENDBRANCH  21  28
ENDBRANCH   1  21
TORSDOF 6
ENDMDL
MODEL 7
REMARK VINA RESULT:     -11.3      3.645     10.481
REMARK  Name = 23629645
REMARK  6 active torsions:
REMARK  status: ('A' for Active; 'I' for Inactive)
REMARK    1  A    between atoms: N_1  and  C_6
REMARK    2  A    between atoms: N_1  and  C_21
REMARK    3  A    between atoms: C_3  and  C_16
REMARK    4  A    between atoms: C_11  and  C_18
REMARK    5  A    between atoms: C_18  and  O_19
REMARK    6  A    between atoms: C_21  and  C_28
REMARK                            x       y       z     vdW  Elec       q    Type
REMARK                         _______ _______ _______ _____ _____    ______ ____
ROOT
ATOM      1  N   UNL     1      35.591 -21.906 -18.420  0.00  0.00    -0.300 N 
ATOM      2  C   UNL     1      34.511 -22.746 -17.945  0.00  0.00    +0.113 C 
ENDROOT
BRANCH   1   6
ATOM      3  C   UNL     1      34.971 -19.242 -21.602  0.00  0.00    +0.054 C 
ATOM      4  C   UNL     1      36.247 -19.400 -21.069  0.00  0.00    +0.006 C 
ATOM      5  C   UNL     1      33.898 -19.963 -21.083  0.00  0.00    +0.006 C 
ATOM      6  C   UNL     1      35.382 -21.010 -19.490  0.00  0.00    +0.048 C 
ATOM      7  C   UNL     1      36.454 -20.286 -20.011  0.00  0.00    +0.015 C 
ATOM      8  C   UNL     1      34.104 -20.849 -20.025  0.00  0.00    +0.015 C 
BRANCH   3  16
ATOM      9  O   UNL     1      35.132 -18.687 -23.821  0.00  0.00    -0.270 OA
ATOM     10  N   UNL     1      34.153 -17.079 -22.436  0.00  0.00    -0.276 N 
ATOM     11  C   UNL     1      34.222 -14.239 -21.849  0.00  0.00    +0.102 C 
ATOM     12  C   UNL     1      34.572 -14.794 -23.234  0.00  0.00    +0.033 C 
ATOM     13  C   UNL     1      34.360 -15.297 -20.748  0.00  0.00    +0.033 C 
ATOM     14  C   UNL     1      33.897 -16.135 -23.520  0.00  0.00    +0.094 C 
ATOM     15  C   UNL     1      33.701 -16.626 -21.115  0.00  0.00    +0.094 C 
ATOM     16  C   UNL     1      34.753 -18.309 -22.715  0.00  0.00    +0.249 C 
BRANCH  11  18
ATOM     17  O   UNL     1      32.204 -13.421 -22.881  0.00  0.00    -0.250 OA
ATOM     18  C   UNL     1      32.842 -13.648 -21.863  0.00  0.00    +0.317 C 
BRANCH  18  19
ATOM     19  O   UNL     1      32.434 -13.414 -20.583  0.00  0.00    -0.444 OA
ATOM     20  C   UNL     1      31.735 -12.182 -20.376  0.00  0.00    +0.256 C 
ENDBRANCH  18  19
ENDBRANCH  11  18
ENDBRANCH   3  16
ENDBRANCH   1   6
BRANCH   1  21
ATOM     21  C   UNL     1      36.893 -22.006 -17.790  0.00  0.00    +0.148 C 
BRANCH  21  28
ATOM     22  N   UNL     1      35.590 -22.704 -15.869  0.00  0.00    -0.392 NA
ATOM     23  N   UNL     1      37.865 -23.521 -14.521  0.00  0.00    -0.200 NA
ATOM     24  N   UNL     1      36.575 -24.172 -12.711  0.00  0.00    -0.271 NA
ATOM     25  N   UNL     1      34.191 -23.916 -12.739  0.00  0.00    -0.310 NA
ATOM     26  N   UNL     1      33.139 -22.986 -14.638  0.00  0.00    -0.329 N 
ATOM     27  N   UNL     1      35.271 -24.834 -10.874  0.00  0.00    -0.283 N 
ATOM     28  C   UNL     1      36.805 -22.596 -16.408  0.00  0.00    +0.133 C 
ATOM     29  C   UNL     1      37.930 -22.992 -15.758  0.00  0.00    +0.193 C 
ATOM     30  C   UNL     1      35.526 -23.234 -14.631  0.00  0.00    +0.248 C 
ATOM     31  C   UNL     1      36.665 -23.650 -13.939  0.00  0.00    +0.131 C 
ATOM     32  C   UNL     1      34.323 -23.396 -13.972  0.00  0.00    +0.231 C 
ATOM     33  C   UNL     1      35.347 -24.280 -12.171  0.00  0.00    +0.207 C 
ATOM     34  H   UNL     1      32.265 -23.088 -14.196  0.00  0.00    +0.145 HD
ATOM     35  H   UNL     1      33.191 -22.600 -15.542  0.00  0.00    +0.145 HD
ATOM     36  H   UNL     1      36.093 -25.118 -10.413  0.00  0.00    +0.156 HD
ATOM     37  H   UNL     1      34.398 -24.935 -10.433  0.00  0.00    +0.156 HD
ENDBRANCH  21  28
ENDBRANCH   1  21
TORSDOF 6
ENDMDL
MODEL 8
REMARK VINA RESULT:     -11.1      5.088     11.415
REMARK  Name = 23629645
REMARK  6 active torsions:
REMARK  status: ('A' for Active; 'I' for Inactive)
REMARK    1  A    between atoms: N_1  and  C_6
REMARK    2  A    between atoms: N_1  and  C_21
REMARK    3  A    between atoms: C_3  and  C_16
REMARK    4  A    between atoms: C_11  and  C_18
REMARK    5  A    between atoms: C_18  and  O_19
REMARK    6  A    between atoms: C_21  and  C_28
REMARK                            x       y       z     vdW  Elec       q    Type
REMARK                         _______ _______ _______ _____ _____    ______ ____
ROOT
ATOM      1  N   UNL     1      34.639 -16.940 -22.979  0.00  0.00    -0.300 N 
ATOM      2  C   UNL     1      34.502 -17.534 -24.294  0.00  0.00    +0.113 C 
ENDROOT
BRANCH   1   6
ATOM      3  C   UNL     1      32.622 -13.385 -22.032  0.00  0.00    +0.054 C 
ATOM      4  C   UNL     1      32.671 -13.823 -23.353  0.00  0.00    +0.006 C 
ATOM      5  C   UNL     1      33.239 -14.120 -21.024  0.00  0.00    +0.006 C 
ATOM      6  C   UNL     1      33.960 -15.744 -22.661  0.00  0.00    +0.048 C 
ATOM      7  C   UNL     1      33.341 -15.005 -23.668  0.00  0.00    +0.015 C 
ATOM      8  C   UNL     1      33.910 -15.302 -21.339  0.00  0.00    +0.015 C 
BRANCH   3  16
ATOM      9  O   UNL     1      30.901 -12.257 -21.018  0.00  0.00    -0.270 OA
ATOM     10  N   UNL     1      32.438 -10.938 -22.186  0.00  0.00    -0.276 N 
ATOM     11  C   UNL     1      32.574  -8.759 -24.097  0.00  0.00    +0.102 C 
ATOM     12  C   UNL     1      31.396  -8.923 -23.129  0.00  0.00    +0.033 C 
ATOM     13  C   UNL     1      33.337 -10.073 -24.310  0.00  0.00    +0.033 C 
ATOM     14  C   UNL     1      31.779  -9.677 -21.856  0.00  0.00    +0.094 C 
ATOM     15  C   UNL     1      33.650 -10.797 -23.001  0.00  0.00    +0.094 C 
ATOM     16  C   UNL     1      31.917 -12.140 -21.701  0.00  0.00    +0.249 C 
BRANCH  11  18
ATOM     17  O   UNL     1      34.678  -7.837 -23.370  0.00  0.00    -0.250 OA
ATOM     18  C   UNL     1      33.491  -7.673 -23.616  0.00  0.00    +0.317 C 
BRANCH  18  19
ATOM     19  O   UNL     1      32.796  -6.506 -23.505  0.00  0.00    -0.444 OA
ATOM     20  C   UNL     1      32.568  -5.805 -24.732  0.00  0.00    +0.256 C 
ENDBRANCH  18  19
ENDBRANCH  11  18
ENDBRANCH   3  16
ENDBRANCH   1   6
BRANCH   1  21
ATOM     21  C   UNL     1      35.493 -17.582 -21.999  0.00  0.00    +0.148 C 
BRANCH  21  28
ATOM     22  N   UNL     1      35.537 -19.566 -20.607  0.00  0.00    -0.392 NA
ATOM     23  N   UNL     1      32.780 -19.788 -20.694  0.00  0.00    -0.200 NA
ATOM     24  N   UNL     1      32.876 -21.680 -19.362  0.00  0.00    -0.271 NA
ATOM     25  N   UNL     1      34.976 -22.533 -18.581  0.00  0.00    -0.310 NA
ATOM     26  N   UNL     1      36.979 -21.430 -19.176  0.00  0.00    -0.329 N 
ATOM     27  N   UNL     1      32.970 -23.598 -18.012  0.00  0.00    -0.283 N 
ATOM     28  C   UNL     1      34.782 -18.698 -21.280  0.00  0.00    +0.133 C 
ATOM     29  C   UNL     1      33.428 -18.795 -21.333  0.00  0.00    +0.193 C 
ATOM     30  C   UNL     1      34.888 -20.559 -19.969  0.00  0.00    +0.248 C 
ATOM     31  C   UNL     1      33.498 -20.684 -20.005  0.00  0.00    +0.131 C 
ATOM     32  C   UNL     1      35.564 -21.518 -19.238  0.00  0.00    +0.231 C 
ATOM     33  C   UNL     1      33.643 -22.554 -18.684  0.00  0.00    +0.207 C 
ATOM     34  H   UNL     1      37.491 -22.097 -18.663  0.00  0.00    +0.145 HD
ATOM     35  H   UNL     1      37.448 -20.702 -19.643  0.00  0.00    +0.145 HD
ATOM     36  H   UNL     1      31.988 -23.658 -18.056  0.00  0.00    +0.156 HD
ATOM     37  H   UNL     1      33.482 -24.265 -17.501  0.00  0.00    +0.156 HD
ENDBRANCH  21  28
ENDBRANCH   1  21
TORSDOF 6
ENDMDL
MODEL 9
REMARK VINA RESULT:     -10.9      4.795      8.389
REMARK  Name = 23629645
REMARK  6 active torsions:
REMARK  status: ('A' for Active; 'I' for Inactive)
REMARK    1  A    between atoms: N_1  and  C_6
REMARK    2  A    between atoms: N_1  and  C_21
REMARK    3  A    between atoms: C_3  and  C_16
REMARK    4  A    between atoms: C_11  and  C_18
REMARK    5  A    between atoms: C_18  and  O_19
REMARK    6  A    between atoms: C_21  and  C_28
REMARK                            x       y       z     vdW  Elec       q    Type
REMARK                         _______ _______ _______ _____ _____    ______ ____
ROOT
ATOM      1  N   UNL     1      32.427 -10.773 -22.880  0.00  0.00    -0.300 N 
ATOM      2  C   UNL     1      31.139 -10.554 -22.254  0.00  0.00    +0.113 C 
ENDROOT
BRANCH   1   6
ATOM      3  C   UNL     1      33.605 -14.634 -24.025  0.00  0.00    +0.054 C 
ATOM      4  C   UNL     1      32.703 -14.466 -22.977  0.00  0.00    +0.006 C 
ATOM      5  C   UNL     1      34.118 -13.526 -24.695  0.00  0.00    +0.006 C 
ATOM      6  C   UNL     1      32.823 -12.071 -23.265  0.00  0.00    +0.048 C 
ATOM      7  C   UNL     1      32.311 -13.183 -22.596  0.00  0.00    +0.015 C 
ATOM      8  C   UNL     1      33.727 -12.242 -24.314  0.00  0.00    +0.015 C 
BRANCH   3  16
ATOM      9  O   UNL     1      33.705 -16.333 -25.562  0.00  0.00    -0.270 OA
ATOM     10  N   UNL     1      34.713 -16.764 -23.497  0.00  0.00    -0.276 N 
ATOM     11  C   UNL     1      34.883 -18.791 -21.430  0.00  0.00    +0.102 C 
ATOM     12  C   UNL     1      34.605 -19.143 -22.896  0.00  0.00    +0.033 C 
ATOM     13  C   UNL     1      34.537 -17.333 -21.107  0.00  0.00    +0.033 C 
ATOM     14  C   UNL     1      35.163 -18.103 -23.868  0.00  0.00    +0.094 C 
ATOM     15  C   UNL     1      35.086 -16.350 -22.140  0.00  0.00    +0.094 C 
ATOM     16  C   UNL     1      34.018 -15.985 -24.425  0.00  0.00    +0.249 C 
BRANCH  11  18
ATOM     17  O   UNL     1      37.269 -18.741 -21.758  0.00  0.00    -0.250 OA
ATOM     18  C   UNL     1      36.312 -19.097 -21.086  0.00  0.00    +0.317 C 
BRANCH  18  19
ATOM     19  O   UNL     1      36.358 -19.819 -19.930  0.00  0.00    -0.444 OA
ATOM     20  C   UNL     1      35.635 -21.055 -19.948  0.00  0.00    +0.256 C 
ENDBRANCH  18  19
ENDBRANCH  11  18
ENDBRANCH   3  16
ENDBRANCH   1   6
BRANCH   1  21
ATOM     21  C   UNL     1      33.311  -9.643 -23.093  0.00  0.00    +0.148 C 
BRANCH  21  28
ATOM     22  N   UNL     1      32.456  -7.453 -23.684  0.00  0.00    -0.392 NA
ATOM     23  N   UNL     1      31.723  -6.943 -21.064  0.00  0.00    -0.200 NA
ATOM     24  N   UNL     1      30.921  -4.860 -21.679  0.00  0.00    -0.271 NA
ATOM     25  N   UNL     1      31.034  -4.118 -23.956  0.00  0.00    -0.310 NA
ATOM     26  N   UNL     1      31.976  -5.529 -25.599  0.00  0.00    -0.329 N 
ATOM     27  N   UNL     1      30.106  -2.747 -22.299  0.00  0.00    -0.283 N 
ATOM     28  C   UNL     1      32.660  -8.341 -22.710  0.00  0.00    +0.133 C 
ATOM     29  C   UNL     1      32.306  -8.104 -21.420  0.00  0.00    +0.193 C 
ATOM     30  C   UNL     1      31.873  -6.292 -23.326  0.00  0.00    +0.248 C 
ATOM     31  C   UNL     1      31.498  -6.021 -22.008  0.00  0.00    +0.131 C 
ATOM     32  C   UNL     1      31.611  -5.297 -24.248  0.00  0.00    +0.231 C 
ATOM     33  C   UNL     1      30.717  -3.967 -22.665  0.00  0.00    +0.207 C 
ATOM     34  H   UNL     1      31.803  -4.840 -26.281  0.00  0.00    +0.145 HD
ATOM     35  H   UNL     1      32.401  -6.379 -25.855  0.00  0.00    +0.145 HD
ATOM     36  H   UNL     1      29.853  -2.587 -21.361  0.00  0.00    +0.156 HD
ATOM     37  H   UNL     1      29.934  -2.059 -22.980  0.00  0.00    +0.156 HD
ENDBRANCH  21  28
ENDBRANCH   1  21
TORSDOF 6
ENDMDL
