MODEL 1
REMARK VINA RESULT:      -3.9      0.000      0.000
REMARK  Name = 6227
REMARK  2 active torsions:
REMARK  status: ('A' for Active; 'I' for Inactive)
REMARK    1  A    between atoms: C_2  and  C_4
REMARK    2  A    between atoms: C_2  and  O_5
REMARK                            x       y       z     vdW  Elec       q    Type
REMARK                         _______ _______ _______ _____ _____    ______ ____
ROOT
ATOM      1  O   UNL     1      41.214 -26.603 -14.074  0.00  0.00    -0.249 OA
ATOM      2  C   UNL     1      40.347 -26.020 -14.711  0.00  0.00    +0.326 C 
ENDROOT
BRANCH   2   4
ATOM      3 BR   UNL     1      37.617 -26.457 -14.568  0.00  0.00    -0.068 Br
ATOM      4  C   UNL     1      39.146 -25.375 -14.093  0.00  0.00    +0.176 C 
ENDBRANCH   2   4
BRANCH   2   5
ATOM      5  O   UNL     1      40.384 -25.877 -16.060  0.00  0.00    -0.480 OA
ATOM      6  H   UNL     1      41.206 -25.786 -16.500  0.00  0.00    +0.295 HD
ENDBRANCH   2   5
TORSDOF 2
ENDMDL
MODEL 2
REMARK VINA RESULT:      -3.8     10.821     11.016
REMARK  Name = 6227
REMARK  2 active torsions:
REMARK  status: ('A' for Active; 'I' for Inactive)
REMARK    1  A    between atoms: C_2  and  C_4
REMARK    2  A    between atoms: C_2  and  O_5
REMARK                            x       y       z     vdW  Elec       q    Type
REMARK                         _______ _______ _______ _____ _____    ______ ____
ROOT
ATOM      1  O   UNL     1      42.243 -16.620 -15.622  0.00  0.00    -0.249 OA
ATOM      2  C   UNL     1      41.322 -15.814 -15.594  0.00  0.00    +0.326 C 
ENDROOT
BRANCH   2   4
ATOM      3 BR   UNL     1      41.338 -14.334 -17.934  0.00  0.00    -0.068 Br
ATOM      4  C   UNL     1      41.451 -14.381 -16.005  0.00  0.00    +0.176 C 
ENDBRANCH   2   4
BRANCH   2   5
ATOM      5  O   UNL     1      40.064 -16.134 -15.197  0.00  0.00    -0.480 OA
ATOM      6  H   UNL     1      39.901 -16.954 -14.774  0.00  0.00    +0.295 HD
ENDBRANCH   2   5
TORSDOF 2
ENDMDL
MODEL 3
REMARK VINA RESULT:      -3.6     11.955     12.338
REMARK  Name = 6227
REMARK  2 active torsions:
REMARK  status: ('A' for Active; 'I' for Inactive)
REMARK    1  A    between atoms: C_2  and  C_4
REMARK    2  A    between atoms: C_2  and  O_5
REMARK                            x       y       z     vdW  Elec       q    Type
REMARK                         _______ _______ _______ _____ _____    ______ ____
ROOT
ATOM      1  O   UNL     1      27.630 -23.711 -17.600  0.00  0.00    -0.249 OA
ATOM      2  C   UNL     1      27.780 -22.678 -16.961  0.00  0.00    +0.326 C 
ENDROOT
BRANCH   2   4
ATOM      3 BR   UNL     1      30.396 -23.065 -16.142  0.00  0.00    -0.068 Br
ATOM      4  C   UNL     1      28.578 -22.583 -15.699  0.00  0.00    +0.176 C 
ENDBRANCH   2   4
BRANCH   2   5
ATOM      5  O   UNL     1      27.247 -21.486 -17.336  0.00  0.00    -0.480 OA
ATOM      6  H   UNL     1      27.594 -20.688 -16.989  0.00  0.00    +0.295 HD
ENDBRANCH   2   5
TORSDOF 2
ENDMDL
MODEL 4
REMARK VINA RESULT:      -3.5      5.506      5.733
REMARK  Name = 6227
REMARK  2 active torsions:
REMARK  status: ('A' for Active; 'I' for Inactive)
REMARK    1  A    between atoms: C_2  and  C_4
REMARK    2  A    between atoms: C_2  and  O_5
REMARK                            x       y       z     vdW  Elec       q    Type
REMARK                         _______ _______ _______ _____ _____    ______ ____
ROOT
ATOM      1  O   UNL     1      35.934 -24.290  -9.740  0.00  0.00    -0.249 OA
ATOM      2  C   UNL     1      35.812 -24.246 -10.958  0.00  0.00    +0.326 C 
ENDROOT
BRANCH   2   4
ATOM      3 BR   UNL     1      38.164 -24.440 -12.407  0.00  0.00    -0.068 Br
ATOM      4  C   UNL     1      36.645 -23.382 -11.851  0.00  0.00    +0.176 C 
ENDBRANCH   2   4
BRANCH   2   5
ATOM      5  O   UNL     1      34.911 -24.995 -11.643  0.00  0.00    -0.480 OA
ATOM      6  H   UNL     1      34.879 -24.950 -12.578  0.00  0.00    +0.295 HD
ENDBRANCH   2   5
TORSDOF 2
ENDMDL
MODEL 5
REMARK VINA RESULT:      -3.5      3.429      3.697
REMARK  Name = 6227
REMARK  2 active torsions:
REMARK  status: ('A' for Active; 'I' for Inactive)
REMARK    1  A    between atoms: C_2  and  C_4
REMARK    2  A    between atoms: C_2  and  O_5
REMARK                            x       y       z     vdW  Elec       q    Type
REMARK                         _______ _______ _______ _____ _____    ______ ____
ROOT
ATOM      1  O   UNL     1      36.006 -25.400 -15.516  0.00  0.00    -0.249 OA
ATOM      2  C   UNL     1      36.637 -26.435 -15.348  0.00  0.00    +0.326 C 
ENDROOT
BRANCH   2   4
ATOM      3 BR   UNL     1      38.601 -25.495 -13.637  0.00  0.00    -0.068 Br
ATOM      4  C   UNL     1      37.265 -26.831 -14.049  0.00  0.00    +0.176 C 
ENDBRANCH   2   4
BRANCH   2   5
ATOM      5  O   UNL     1      36.829 -27.358 -16.325  0.00  0.00    -0.480 OA
ATOM      6  H   UNL     1      36.095 -27.705 -16.792  0.00  0.00    +0.295 HD
ENDBRANCH   2   5
TORSDOF 2
ENDMDL
MODEL 6
REMARK VINA RESULT:      -3.4     13.513     14.077
REMARK  Name = 6227
REMARK  2 active torsions:
REMARK  status: ('A' for Active; 'I' for Inactive)
REMARK    1  A    between atoms: C_2  and  C_4
REMARK    2  A    between atoms: C_2  and  O_5
REMARK                            x       y       z     vdW  Elec       q    Type
REMARK                         _______ _______ _______ _____ _____    ______ ____
ROOT
ATOM      1  O   UNL     1      34.505 -16.412 -25.895  0.00  0.00    -0.249 OA
ATOM      2  C   UNL     1      34.878 -16.953 -24.862  0.00  0.00    +0.326 C 
ENDROOT
BRANCH   2   4
ATOM      3 BR   UNL     1      35.197 -18.661 -22.705  0.00  0.00    -0.068 Br
ATOM      4  C   UNL     1      34.626 -18.391 -24.532  0.00  0.00    +0.176 C 
ENDBRANCH   2   4
BRANCH   2   5
ATOM      5  O   UNL     1      35.582 -16.309 -23.896  0.00  0.00    -0.480 OA
ATOM      6  H   UNL     1      35.134 -15.810 -23.243  0.00  0.00    +0.295 HD
ENDBRANCH   2   5
TORSDOF 2
ENDMDL
MODEL 7
REMARK VINA RESULT:      -3.3      8.413      8.877
REMARK  Name = 6227
REMARK  2 active torsions:
REMARK  status: ('A' for Active; 'I' for Inactive)
REMARK    1  A    between atoms: C_2  and  C_4
REMARK    2  A    between atoms: C_2  and  O_5
REMARK                            x       y       z     vdW  Elec       q    Type
REMARK                         _______ _______ _______ _____ _____    ______ ____
ROOT
ATOM      1  O   UNL     1      34.823 -22.818 -18.237  0.00  0.00    -0.249 OA
ATOM      2  C   UNL     1      34.088 -22.125 -18.928  0.00  0.00    +0.326 C 
ENDROOT
BRANCH   2   4
ATOM      3 BR   UNL     1      33.015 -20.150 -20.545  0.00  0.00    -0.068 Br
ATOM      4  C   UNL     1      34.575 -21.065 -19.866  0.00  0.00    +0.176 C 
ENDBRANCH   2   4
BRANCH   2   5
ATOM      5  O   UNL     1      32.736 -22.249 -18.935  0.00  0.00    -0.480 OA
ATOM      6  H   UNL     1      32.244 -21.978 -19.684  0.00  0.00    +0.295 HD
ENDBRANCH   2   5
TORSDOF 2
ENDMDL
MODEL 8
REMARK VINA RESULT:      -3.3      3.189      3.596
REMARK  Name = 6227
REMARK  2 active torsions:
REMARK  status: ('A' for Active; 'I' for Inactive)
REMARK    1  A    between atoms: C_2  and  C_4
REMARK    2  A    between atoms: C_2  and  O_5
REMARK                            x       y       z     vdW  Elec       q    Type
REMARK                         _______ _______ _______ _____ _____    ______ ____
ROOT
ATOM      1  O   UNL     1      36.477 -26.976 -15.911  0.00  0.00    -0.249 OA
ATOM      2  C   UNL     1      36.949 -26.514 -14.881  0.00  0.00    +0.326 C 
ENDROOT
BRANCH   2   4
ATOM      3 BR   UNL     1      39.552 -25.643 -14.519  0.00  0.00    -0.068 Br
ATOM      4  C   UNL     1      37.690 -25.216 -14.809  0.00  0.00    +0.176 C 
ENDBRANCH   2   4
BRANCH   2   5
ATOM      5  O   UNL     1      36.840 -27.123 -13.673  0.00  0.00    -0.480 OA
ATOM      6  H   UNL     1      36.031 -27.520 -13.419  0.00  0.00    +0.295 HD
ENDBRANCH   2   5
TORSDOF 2
ENDMDL
MODEL 9
REMARK VINA RESULT:      -3.3     10.660     10.999
REMARK  Name = 6227
REMARK  2 active torsions:
REMARK  status: ('A' for Active; 'I' for Inactive)
REMARK    1  A    between atoms: C_2  and  C_4
REMARK    2  A    between atoms: C_2  and  O_5
REMARK                            x       y       z     vdW  Elec       q    Type
REMARK                         _______ _______ _______ _____ _____    ______ ____
ROOT
ATOM      1  O   UNL     1      35.992 -18.563 -20.588  0.00  0.00    -0.249 OA
ATOM      2  C   UNL     1      35.716 -18.646 -21.777  0.00  0.00    +0.326 C 
ENDROOT
BRANCH   2   4
ATOM      3 BR   UNL     1      33.464 -19.910 -20.778  0.00  0.00    -0.068 Br
ATOM      4  C   UNL     1      34.486 -19.315 -22.307  0.00  0.00    +0.176 C 
ENDBRANCH   2   4
BRANCH   2   5
ATOM      5  O   UNL     1      36.493 -18.123 -22.760  0.00  0.00    -0.480 OA
ATOM      6  H   UNL     1      37.294 -17.690 -22.544  0.00  0.00    +0.295 HD
ENDBRANCH   2   5
TORSDOF 2
ENDMDL
