MODEL 1
REMARK VINA RESULT:     -10.1      0.000      0.000
REMARK  Name = 5330286
REMARK  3 active torsions:
REMARK  status: ('A' for Active; 'I' for Inactive)
REMARK    1  A    between atoms: N_2  and  C_29
REMARK    2  A    between atoms: C_10  and  C_35
REMARK    3  A    between atoms: C_15  and  N_21
REMARK                            x       y       z     vdW  Elec       q    Type
REMARK                         _______ _______ _______ _____ _____    ______ ____
ROOT
ATOM      1  O   UNL     1      33.991 -15.913 -25.936  0.00  0.00    -0.267 OA
ATOM      2  N   UNL     1      33.449 -14.551 -24.148  0.00  0.00    -0.272 N 
ATOM      3  N   UNL     1      32.862 -13.189 -22.271  0.00  0.00    -0.319 NA
ATOM      4  N   UNL     1      32.787 -14.087 -20.054  0.00  0.00    -0.170 NA
ATOM      5  N   UNL     1      32.270 -11.837 -20.448  0.00  0.00    -0.232 N 
ATOM      6  N   UNL     1      32.198 -10.494 -22.415  0.00  0.00    -0.227 NA
ATOM      7  C   UNL     1      33.236 -14.404 -22.750  0.00  0.00    +0.211 A 
ATOM      8  C   UNL     1      33.813 -15.760 -24.725  0.00  0.00    +0.265 A 
ATOM      9  C   UNL     1      33.412 -15.509 -21.927  0.00  0.00    +0.064 A 
ATOM     10  C   UNL     1      33.997 -16.938 -23.809  0.00  0.00    +0.087 A 
ATOM     11  C   UNL     1      33.828 -16.820 -22.476  0.00  0.00    -0.009 A 
ATOM     12  C   UNL     1      33.163 -15.274 -20.576  0.00  0.00    +0.115 C 
ATOM     13  C   UNL     1      34.042 -17.924 -21.465  0.00  0.00    +0.031 C 
ATOM     14  C   UNL     1      32.659 -13.099 -20.946  0.00  0.00    +0.151 C 
ATOM     15  C   UNL     1      31.580  -8.164 -22.241  0.00  0.00    +0.067 C 
ATOM     16  C   UNL     1      32.040 -10.596 -21.072  0.00  0.00    +0.141 C 
ATOM     17  C   UNL     1      31.426  -8.300 -20.865  0.00  0.00    +0.019 C 
ATOM     18  C   UNL     1      31.963  -9.282 -22.964  0.00  0.00    +0.115 C 
ATOM     19  C   UNL     1      31.659  -9.532 -20.264  0.00  0.00    +0.036 C 
ATOM     20  H   UNL     1      32.133 -11.822 -19.473  0.00  0.00    +0.166 HD
ENDROOT
BRANCH  15  21
ATOM     21  N   UNL     1      31.353  -6.937 -22.874  0.00  0.00    -0.311 N 
ATOM     22  N   UNL     1      30.654  -4.518 -24.219  0.00  0.00    +0.386 N 
ATOM     23  C   UNL     1      30.698  -5.849 -22.138  0.00  0.00    +0.067 C 
ATOM     24  C   UNL     1      31.145  -6.937 -24.328  0.00  0.00    +0.067 C 
ATOM     25  C   UNL     1      30.993  -4.502 -22.798  0.00  0.00    -0.060 C 
ATOM     26  C   UNL     1      31.424  -5.551 -24.910  0.00  0.00    -0.060 C 
ATOM     27  H   UNL     1      30.869  -3.609 -24.629  0.00  0.00    -0.084 HD
ATOM     28  H   UNL     1      29.659  -4.719 -24.323  0.00  0.00    -0.084 HD
ENDBRANCH  15  21
BRANCH   2  29
ATOM     29  C   UNL     1      33.261 -13.388 -24.968  0.00  0.00    +0.091 C 
ATOM     30  C   UNL     1      33.425 -13.677 -26.453  0.00  0.00    +0.023 C 
ATOM     31  C   UNL     1      34.298 -12.301 -24.703  0.00  0.00    +0.023 C 
ATOM     32  C   UNL     1      33.605 -12.290 -27.049  0.00  0.00    +0.002 C 
ATOM     33  C   UNL     1      34.415 -11.517 -26.011  0.00  0.00    +0.002 C 
ENDBRANCH   2  29
BRANCH  10  35
ATOM     34  O   UNL     1      33.634 -18.754 -25.251  0.00  0.00    -0.291 OA
ATOM     35  C   UNL     1      34.366 -18.233 -24.416  0.00  0.00    +0.178 C 
ATOM     36  C   UNL     1      35.657 -18.864 -23.978  0.00  0.00    +0.077 C 
ENDBRANCH  10  35
TORSDOF 3
ENDMDL
MODEL 2
REMARK VINA RESULT:      -9.8      1.857      3.287
REMARK  Name = 5330286
REMARK  3 active torsions:
REMARK  status: ('A' for Active; 'I' for Inactive)
REMARK    1  A    between atoms: N_2  and  C_29
REMARK    2  A    between atoms: C_10  and  C_35
REMARK    3  A    between atoms: C_15  and  N_21
REMARK                            x       y       z     vdW  Elec       q    Type
REMARK                         _______ _______ _______ _____ _____    ______ ____
ROOT
ATOM      1  O   UNL     1      34.526 -13.976 -24.553  0.00  0.00    -0.267 OA
ATOM      2  N   UNL     1      33.497 -12.143 -23.591  0.00  0.00    -0.272 N 
ATOM      3  N   UNL     1      32.389 -10.284 -22.571  0.00  0.00    -0.319 NA
ATOM      4  N   UNL     1      31.251 -10.506 -20.477  0.00  0.00    -0.170 NA
ATOM      5  N   UNL     1      31.298  -8.450 -21.598  0.00  0.00    -0.232 N 
ATOM      6  N   UNL     1      32.265  -7.727 -23.652  0.00  0.00    -0.227 NA
ATOM      7  C   UNL     1      32.740 -11.596 -22.518  0.00  0.00    +0.211 A 
ATOM      8  C   UNL     1      33.881 -13.477 -23.628  0.00  0.00    +0.265 A 
ATOM      9  C   UNL     1      32.383 -12.422 -21.461  0.00  0.00    +0.064 A 
ATOM     10  C   UNL     1      33.481 -14.347 -22.469  0.00  0.00    +0.087 A 
ATOM     11  C   UNL     1      32.787 -13.847 -21.426  0.00  0.00    -0.009 A 
ATOM     12  C   UNL     1      31.627 -11.803 -20.468  0.00  0.00    +0.115 C 
ATOM     13  C   UNL     1      32.385 -14.620 -20.191  0.00  0.00    +0.031 C 
ATOM     14  C   UNL     1      31.663  -9.812 -21.544  0.00  0.00    +0.151 C 
ATOM     15  C   UNL     1      31.993  -5.429 -24.349  0.00  0.00    +0.067 C 
ATOM     16  C   UNL     1      31.543  -7.435 -22.542  0.00  0.00    +0.141 C 
ATOM     17  C   UNL     1      31.256  -5.160 -23.201  0.00  0.00    +0.019 C 
ATOM     18  C   UNL     1      32.471  -6.717 -24.526  0.00  0.00    +0.115 C 
ATOM     19  C   UNL     1      31.023  -6.173 -22.278  0.00  0.00    +0.036 C 
ATOM     20  H   UNL     1      30.767  -8.152 -20.824  0.00  0.00    +0.166 HD
ENDROOT
BRANCH  15  21
ATOM     21  N   UNL     1      32.243  -4.429 -25.296  0.00  0.00    -0.311 N 
ATOM     22  N   UNL     1      32.602  -2.520 -27.389  0.00  0.00    +0.386 N 
ATOM     23  C   UNL     1      31.296  -3.319 -25.449  0.00  0.00    +0.067 C 
ATOM     24  C   UNL     1      32.997  -4.793 -26.503  0.00  0.00    +0.067 C 
ATOM     25  C   UNL     1      31.971  -2.128 -26.130  0.00  0.00    -0.060 C 
ATOM     26  C   UNL     1      33.612  -3.549 -27.146  0.00  0.00    -0.060 C 
ATOM     27  H   UNL     1      33.047  -1.706 -27.812  0.00  0.00    -0.084 HD
ATOM     28  H   UNL     1      31.890  -2.893 -28.017  0.00  0.00    -0.084 HD
ENDBRANCH  15  21
BRANCH   2  29
ATOM     29  C   UNL     1      33.850 -11.260 -24.665  0.00  0.00    +0.091 C 
ATOM     30  C   UNL     1      34.212 -11.999 -25.945  0.00  0.00    +0.023 C 
ATOM     31  C   UNL     1      35.099 -10.435 -24.368  0.00  0.00    +0.023 C 
ATOM     32  C   UNL     1      34.932 -10.935 -26.757  0.00  0.00    +0.002 C 
ATOM     33  C   UNL     1      35.716 -10.120 -25.732  0.00  0.00    +0.002 C 
ENDBRANCH   2  29
BRANCH  10  35
ATOM     34  O   UNL     1      33.491 -16.488 -23.429  0.00  0.00    -0.291 OA
ATOM     35  C   UNL     1      33.870 -15.771 -22.509  0.00  0.00    +0.178 C 
ATOM     36  C   UNL     1      34.740 -16.287 -21.398  0.00  0.00    +0.077 C 
ENDBRANCH  10  35
TORSDOF 3
ENDMDL
MODEL 3
REMARK VINA RESULT:      -8.9      2.796      5.056
REMARK  Name = 5330286
REMARK  3 active torsions:
REMARK  status: ('A' for Active; 'I' for Inactive)
REMARK    1  A    between atoms: N_2  and  C_29
REMARK    2  A    between atoms: C_10  and  C_35
REMARK    3  A    between atoms: C_15  and  N_21
REMARK                            x       y       z     vdW  Elec       q    Type
REMARK                         _______ _______ _______ _____ _____    ______ ____
ROOT
ATOM      1  O   UNL     1      33.970 -13.334 -23.943  0.00  0.00    -0.267 OA
ATOM      2  N   UNL     1      33.287 -11.159 -23.563  0.00  0.00    -0.272 N 
ATOM      3  N   UNL     1      32.531  -8.929 -23.140  0.00  0.00    -0.319 NA
ATOM      4  N   UNL     1      31.377  -8.366 -21.119  0.00  0.00    -0.170 NA
ATOM      5  N   UNL     1      31.787  -6.738 -22.753  0.00  0.00    -0.232 N 
ATOM      6  N   UNL     1      32.863  -6.787 -24.879  0.00  0.00    -0.227 NA
ATOM      7  C   UNL     1      32.643 -10.215 -22.716  0.00  0.00    +0.211 A 
ATOM      8  C   UNL     1      33.427 -12.496 -23.220  0.00  0.00    +0.265 A 
ATOM      9  C   UNL     1      32.146 -10.644 -21.492  0.00  0.00    +0.064 A 
ATOM     10  C   UNL     1      32.881 -12.931 -21.888  0.00  0.00    +0.087 A 
ATOM     11  C   UNL     1      32.289 -12.051 -21.053  0.00  0.00    -0.009 A 
ATOM     12  C   UNL     1      31.515  -9.654 -20.741  0.00  0.00    +0.115 C 
ATOM     13  C   UNL     1      31.760 -12.373 -19.674  0.00  0.00    +0.031 C 
ATOM     14  C   UNL     1      31.904  -8.074 -22.314  0.00  0.00    +0.151 C 
ATOM     15  C   UNL     1      33.003  -4.758 -26.185  0.00  0.00    +0.067 C 
ATOM     16  C   UNL     1      32.207  -6.080 -23.925  0.00  0.00    +0.141 C 
ATOM     17  C   UNL     1      32.329  -4.061 -25.189  0.00  0.00    +0.019 C 
ATOM     18  C   UNL     1      33.243  -6.108 -25.984  0.00  0.00    +0.115 C 
ATOM     19  C   UNL     1      31.922  -4.725 -24.038  0.00  0.00    +0.036 C 
ATOM     20  H   UNL     1      31.320  -6.152 -22.115  0.00  0.00    +0.166 HD
ENDROOT
BRANCH  15  21
ATOM     21  N   UNL     1      33.425  -4.117 -27.356  0.00  0.00    -0.311 N 
ATOM     22  N   UNL     1      34.387  -2.627 -29.593  0.00  0.00    +0.386 N 
ATOM     23  C   UNL     1      34.787  -4.337 -27.855  0.00  0.00    +0.067 C 
ATOM     24  C   UNL     1      32.830  -2.814 -27.683  0.00  0.00    +0.067 C 
ATOM     25  C   UNL     1      34.878  -3.980 -29.339  0.00  0.00    -0.060 C 
ATOM     26  C   UNL     1      32.991  -2.512 -29.173  0.00  0.00    -0.060 C 
ATOM     27  H   UNL     1      34.455  -2.424 -30.590  0.00  0.00    -0.084 HD
ATOM     28  H   UNL     1      34.950  -1.961 -29.064  0.00  0.00    -0.084 HD
ENDBRANCH  15  21
BRANCH   2  29
ATOM     29  C   UNL     1      33.789 -10.680 -24.819  0.00  0.00    +0.091 C 
ATOM     30  C   UNL     1      34.020 -11.795 -25.829  0.00  0.00    +0.023 C 
ATOM     31  C   UNL     1      35.161 -10.024 -24.698  0.00  0.00    +0.023 C 
ATOM     32  C   UNL     1      34.914 -11.134 -26.864  0.00  0.00    +0.002 C 
ATOM     33  C   UNL     1      35.826 -10.207 -26.063  0.00  0.00    +0.002 C 
ENDBRANCH   2  29
BRANCH  10  35
ATOM     34  O   UNL     1      32.098 -15.140 -21.766  0.00  0.00    -0.291 OA
ATOM     35  C   UNL     1      33.009 -14.356 -21.521  0.00  0.00    +0.178 C 
ATOM     36  C   UNL     1      34.283 -14.792 -20.856  0.00  0.00    +0.077 C 
ENDBRANCH  10  35
TORSDOF 3
ENDMDL
MODEL 4
REMARK VINA RESULT:      -8.2      3.059      8.782
REMARK  Name = 5330286
REMARK  3 active torsions:
REMARK  status: ('A' for Active; 'I' for Inactive)
REMARK    1  A    between atoms: N_2  and  C_29
REMARK    2  A    between atoms: C_10  and  C_35
REMARK    3  A    between atoms: C_15  and  N_21
REMARK                            x       y       z     vdW  Elec       q    Type
REMARK                         _______ _______ _______ _____ _____    ______ ____
ROOT
ATOM      1  O   UNL     1      33.819  -7.395 -24.751  0.00  0.00    -0.267 OA
ATOM      2  N   UNL     1      33.184  -9.065 -23.283  0.00  0.00    -0.272 N 
ATOM      3  N   UNL     1      32.527 -10.751 -21.719  0.00  0.00    -0.319 NA
ATOM      4  N   UNL     1      31.111 -10.242 -19.857  0.00  0.00    -0.170 NA
ATOM      5  N   UNL     1      31.907 -12.419 -20.191  0.00  0.00    -0.232 N 
ATOM      6  N   UNL     1      33.306 -13.416 -21.843  0.00  0.00    -0.227 NA
ATOM      7  C   UNL     1      32.465  -9.454 -22.120  0.00  0.00    +0.211 A 
ATOM      8  C   UNL     1      33.194  -7.758 -23.752  0.00  0.00    +0.265 A 
ATOM      9  C   UNL     1      31.732  -8.495 -21.433  0.00  0.00    +0.064 A 
ATOM     10  C   UNL     1      32.390  -6.742 -22.989  0.00  0.00    +0.087 A 
ATOM     11  C   UNL     1      31.677  -7.090 -21.898  0.00  0.00    -0.009 A 
ATOM     12  C   UNL     1      31.078  -8.966 -20.296  0.00  0.00    +0.115 C 
ATOM     13  C   UNL     1      30.796  -6.160 -21.095  0.00  0.00    +0.031 C 
ATOM     14  C   UNL     1      31.844 -11.072 -20.608  0.00  0.00    +0.151 C 
ATOM     15  C   UNL     1      33.822 -15.773 -21.697  0.00  0.00    +0.067 C 
ATOM     16  C   UNL     1      32.564 -13.548 -20.715  0.00  0.00    +0.141 C 
ATOM     17  C   UNL     1      33.054 -15.877 -20.542  0.00  0.00    +0.019 C 
ATOM     18  C   UNL     1      33.916 -14.531 -22.303  0.00  0.00    +0.115 C 
ATOM     19  C   UNL     1      32.411 -14.752 -20.038  0.00  0.00    +0.036 C 
ATOM     20  H   UNL     1      31.391 -12.604 -19.373  0.00  0.00    +0.166 HD
ENDROOT
BRANCH  15  21
ATOM     21  N   UNL     1      34.481 -16.887 -22.228  0.00  0.00    -0.311 N 
ATOM     22  N   UNL     1      36.027 -19.008 -23.352  0.00  0.00    +0.386 N 
ATOM     23  C   UNL     1      35.374 -17.679 -21.374  0.00  0.00    +0.067 C 
ATOM     24  C   UNL     1      34.812 -16.879 -23.659  0.00  0.00    +0.067 C 
ATOM     25  C   UNL     1      35.580 -19.075 -21.962  0.00  0.00    -0.060 C 
ATOM     26  C   UNL     1      35.037 -18.303 -24.165  0.00  0.00    -0.060 C 
ATOM     27  H   UNL     1      36.147 -19.954 -23.714  0.00  0.00    -0.084 HD
ATOM     28  H   UNL     1      36.913 -18.505 -23.394  0.00  0.00    -0.084 HD
ENDBRANCH  15  21
BRANCH   2  29
ATOM     29  C   UNL     1      33.928 -10.082 -23.968  0.00  0.00    +0.091 C 
ATOM     30  C   UNL     1      35.002  -9.516 -24.886  0.00  0.00    +0.023 C 
ATOM     31  C   UNL     1      33.064 -10.916 -24.910  0.00  0.00    +0.023 C 
ATOM     32  C   UNL     1      35.339 -10.696 -25.781  0.00  0.00    +0.002 C 
ATOM     33  C   UNL     1      34.011 -11.415 -26.002  0.00  0.00    +0.002 C 
ENDBRANCH   2  29
BRANCH  10  35
ATOM     34  O   UNL     1      32.501  -4.419 -22.670  0.00  0.00    -0.291 OA
ATOM     35  C   UNL     1      32.409  -5.345 -23.469  0.00  0.00    +0.178 C 
ATOM     36  C   UNL     1      32.320  -5.117 -24.951  0.00  0.00    +0.077 C 
ENDBRANCH  10  35
TORSDOF 3
ENDMDL
MODEL 5
REMARK VINA RESULT:      -7.1      3.287      9.806
REMARK  Name = 5330286
REMARK  3 active torsions:
REMARK  status: ('A' for Active; 'I' for Inactive)
REMARK    1  A    between atoms: N_2  and  C_29
REMARK    2  A    between atoms: C_10  and  C_35
REMARK    3  A    between atoms: C_15  and  N_21
REMARK                            x       y       z     vdW  Elec       q    Type
REMARK                         _______ _______ _______ _____ _____    ______ ____
ROOT
ATOM      1  O   UNL     1      32.276 -10.878 -20.947  0.00  0.00    -0.267 OA
ATOM      2  N   UNL     1      33.017 -12.718 -22.135  0.00  0.00    -0.272 N 
ATOM      3  N   UNL     1      33.752 -14.602 -23.413  0.00  0.00    -0.319 NA
ATOM      4  N   UNL     1      34.152 -14.432 -25.767  0.00  0.00    -0.170 NA
ATOM      5  N   UNL     1      34.459 -16.467 -24.648  0.00  0.00    -0.232 N 
ATOM      6  N   UNL     1      34.202 -17.141 -22.377  0.00  0.00    -0.227 NA
ATOM      7  C   UNL     1      33.411 -13.287 -23.377  0.00  0.00    +0.211 A 
ATOM      8  C   UNL     1      32.633 -11.390 -22.010  0.00  0.00    +0.265 A 
ATOM      9  C   UNL     1      33.427 -12.480 -24.508  0.00  0.00    +0.064 A 
ATOM     10  C   UNL     1      32.662 -10.541 -23.251  0.00  0.00    +0.087 A 
ATOM     11  C   UNL     1      33.058 -11.048 -24.437  0.00  0.00    -0.009 A 
ATOM     12  C   UNL     1      33.807 -13.130 -25.681  0.00  0.00    +0.115 C 
ATOM     13  C   UNL     1      33.175 -10.269 -25.727  0.00  0.00    +0.031 C 
ATOM     14  C   UNL     1      34.104 -15.101 -24.609  0.00  0.00    +0.151 C 
ATOM     15  C   UNL     1      34.664 -19.431 -21.758  0.00  0.00    +0.067 C 
ATOM     16  C   UNL     1      34.523 -17.462 -23.655  0.00  0.00    +0.141 C 
ATOM     17  C   UNL     1      34.989 -19.730 -23.077  0.00  0.00    +0.019 C 
ATOM     18  C   UNL     1      34.280 -18.133 -21.463  0.00  0.00    +0.115 C 
ATOM     19  C   UNL     1      34.920 -18.735 -24.046  0.00  0.00    +0.036 C 
ATOM     20  H   UNL     1      34.709 -16.785 -25.545  0.00  0.00    +0.166 HD
ENDROOT
BRANCH  15  21
ATOM     21  N   UNL     1      34.723 -20.412 -20.761  0.00  0.00    -0.311 N 
ATOM     22  N   UNL     1      34.862 -22.222 -18.558  0.00  0.00    +0.386 N 
ATOM     23  C   UNL     1      33.499 -20.804 -20.054  0.00  0.00    +0.067 C 
ATOM     24  C   UNL     1      35.971 -20.548 -19.998  0.00  0.00    +0.067 C 
ATOM     25  C   UNL     1      33.672 -22.177 -19.405  0.00  0.00    -0.060 C 
ATOM     26  C   UNL     1      36.055 -21.930 -19.351  0.00  0.00    -0.060 C 
ATOM     27  H   UNL     1      34.951 -23.151 -18.147  0.00  0.00    -0.084 HD
ATOM     28  H   UNL     1      34.774 -21.523 -17.820  0.00  0.00    -0.084 HD
ENDBRANCH  15  21
BRANCH   2  29
ATOM     29  C   UNL     1      33.014 -13.580 -20.988  0.00  0.00    +0.091 C 
ATOM     30  C   UNL     1      34.311 -14.361 -20.830  0.00  0.00    +0.023 C 
ATOM     31  C   UNL     1      31.952 -14.673 -21.070  0.00  0.00    +0.023 C 
ATOM     32  C   UNL     1      33.925 -15.464 -19.859  0.00  0.00    +0.002 C 
ATOM     33  C   UNL     1      32.490 -15.832 -20.230  0.00  0.00    +0.002 C 
ENDBRANCH   2  29
BRANCH  10  35
ATOM     34  O   UNL     1      31.057  -8.828 -23.271  0.00  0.00    -0.291 OA
ATOM     35  C   UNL     1      32.238  -9.131 -23.133  0.00  0.00    +0.178 C 
ATOM     36  C   UNL     1      33.297  -8.109 -22.832  0.00  0.00    +0.077 C 
ENDBRANCH  10  35
TORSDOF 3
ENDMDL
