MODEL 1
REMARK VINA RESULT:     -11.2      0.000      0.000
REMARK  Name = 11547499
REMARK  10 active torsions:
REMARK  status: ('A' for Active; 'I' for Inactive)
REMARK    1  A    between atoms: C_2  and  C_25
REMARK    2  A    between atoms: C_5  and  N_10
REMARK    3  A    between atoms: N_11  and  C_16
REMARK    4  A    between atoms: C_16  and  C_17
REMARK    5  A    between atoms: C_17  and  O_18
REMARK    6  A    between atoms: C_17  and  C_20
REMARK    7  A    between atoms: C_20  and  O_21
REMARK    8  A    between atoms: N_24  and  C_27
REMARK    9  A    between atoms: C_27  and  C_28
REMARK   10  A    between atoms: C_28  and  O_35
REMARK                            x       y       z     vdW  Elec       q    Type
REMARK                         _______ _______ _______ _____ _____    ______ ____
ROOT
ATOM      1 CL   UNL     1      37.364 -21.842 -17.217  0.00  0.00    -0.082 Cl
ATOM      2  C   UNL     1      34.785 -22.500 -17.819  0.00  0.00    +0.065 C 
ATOM      3  C   UNL     1      33.504 -22.935 -17.475  0.00  0.00    +0.022 C 
ATOM      4  C   UNL     1      35.766 -22.379 -16.836  0.00  0.00    +0.062 C 
ATOM      5  C   UNL     1      33.206 -23.249 -16.150  0.00  0.00    +0.078 C 
ATOM      6  C   UNL     1      35.469 -22.693 -15.509  0.00  0.00    +0.013 C 
ATOM      7  C   UNL     1      34.189 -23.128 -15.166  0.00  0.00    +0.018 C 
ENDROOT
BRANCH   5  10
ATOM      8  O   UNL     1      30.645 -22.302 -17.200  0.00  0.00    -0.250 OA
ATOM      9  O   UNL     1      28.504 -25.452 -14.549  0.00  0.00    -0.268 OA
ATOM     10  N   UNL     1      31.882 -23.702 -15.795  0.00  0.00    -0.142 N 
ATOM     11  N   UNL     1      29.512 -23.874 -15.970  0.00  0.00    -0.205 N 
ATOM     12  N   UNL     1      31.886 -24.632 -14.795  0.00  0.00    -0.164 NA
ATOM     13  C   UNL     1      30.695 -23.231 -16.388  0.00  0.00    +0.336 C 
ATOM     14  C   UNL     1      29.469 -24.844 -14.990  0.00  0.00    +0.277 C 
ATOM     15  C   UNL     1      30.786 -25.167 -14.408  0.00  0.00    +0.176 C 
BRANCH  11  16
ATOM     16  C   UNL     1      28.259 -23.458 -16.589  0.00  0.00    +0.135 C 
BRANCH  16  17
ATOM     17  C   UNL     1      27.417 -22.563 -15.681  0.00  0.00    +0.160 C 
BRANCH  17  18
ATOM     18  O   UNL     1      28.246 -21.552 -15.106  0.00  0.00    -0.380 OA
ATOM     19  H   UNL     1      29.155 -21.658 -15.428  0.00  0.00    +0.211 HD
ENDBRANCH  17  18
BRANCH  17  20
ATOM     20  C   UNL     1      26.264 -21.883 -16.414  0.00  0.00    +0.173 C 
BRANCH  20  21
ATOM     21  O   UNL     1      26.779 -21.214 -17.561  0.00  0.00    -0.348 OA
ATOM     22  C   UNL     1      25.830 -21.190 -18.616  0.00  0.00    +0.174 C 
ENDBRANCH  20  21
ENDBRANCH  17  20
ENDBRANCH  16  17
ENDBRANCH  11  16
ENDBRANCH   5  10
BRANCH   2  25
ATOM     23  O   UNL     1      34.909 -23.047 -20.095  0.00  0.00    -0.270 OA
ATOM     24  N   UNL     1      35.444 -20.864 -19.517  0.00  0.00    -0.299 N 
ATOM     25  C   UNL     1      35.055 -22.175 -19.243  0.00  0.00    +0.247 C 
ATOM     26  H   UNL     1      35.534 -20.234 -18.767  0.00  0.00    +0.150 HD
BRANCH  24  27
ATOM     27  C   UNL     1      35.714 -20.394 -20.839  0.00  0.00    +0.117 C 
BRANCH  27  28
ATOM     28  C   UNL     1      34.687 -19.333 -21.260  0.00  0.00    +0.106 C 
ATOM     29  C   UNL     1      35.189 -17.946 -20.825  0.00  0.00    +0.029 C 
ATOM     30  C   UNL     1      34.337 -19.470 -22.752  0.00  0.00    +0.029 C 
ATOM     31  C   UNL     1      34.469 -16.765 -21.479  0.00  0.00    +0.002 C 
ATOM     32  C   UNL     1      35.282 -18.758 -23.718  0.00  0.00    +0.002 C 
ATOM     33  C   UNL     1      35.105 -16.351 -22.805  0.00  0.00    +0.000 C 
ATOM     34  C   UNL     1      34.873 -17.308 -23.969  0.00  0.00    +0.000 C 
BRANCH  28  35
ATOM     35  O   UNL     1      33.486 -19.600 -20.519  0.00  0.00    -0.385 OA
ATOM     36  H   UNL     1      33.634 -19.402 -19.581  0.00  0.00    +0.210 HD
ENDBRANCH  28  35
ENDBRANCH  27  28
ENDBRANCH  24  27
ENDBRANCH   2  25
TORSDOF 10
ENDMDL
MODEL 2
REMARK VINA RESULT:     -10.9      6.945     12.216
REMARK  Name = 11547499
REMARK  10 active torsions:
REMARK  status: ('A' for Active; 'I' for Inactive)
REMARK    1  A    between atoms: C_2  and  C_25
REMARK    2  A    between atoms: C_5  and  N_10
REMARK    3  A    between atoms: N_11  and  C_16
REMARK    4  A    between atoms: C_16  and  C_17
REMARK    5  A    between atoms: C_17  and  O_18
REMARK    6  A    between atoms: C_17  and  C_20
REMARK    7  A    between atoms: C_20  and  O_21
REMARK    8  A    between atoms: N_24  and  C_27
REMARK    9  A    between atoms: C_27  and  C_28
REMARK   10  A    between atoms: C_28  and  O_35
REMARK                            x       y       z     vdW  Elec       q    Type
REMARK                         _______ _______ _______ _____ _____    ______ ____
ROOT
ATOM      1 CL   UNL     1      33.776 -17.024 -24.876  0.00  0.00    -0.082 Cl
ATOM      2  C   UNL     1      33.771 -14.832 -23.251  0.00  0.00    +0.065 C 
ATOM      3  C   UNL     1      33.736 -13.455 -23.027  0.00  0.00    +0.022 C 
ATOM      4  C   UNL     1      33.736 -15.327 -24.554  0.00  0.00    +0.062 C 
ATOM      5  C   UNL     1      33.667 -12.574 -24.106  0.00  0.00    +0.078 C 
ATOM      6  C   UNL     1      33.667 -14.446 -25.634  0.00  0.00    +0.013 C 
ATOM      7  C   UNL     1      33.632 -13.070 -25.410  0.00  0.00    +0.018 C 
ENDROOT
BRANCH   5  10
ATOM      8  O   UNL     1      31.666 -11.046 -22.616  0.00  0.00    -0.250 OA
ATOM      9  O   UNL     1      34.143  -7.206 -23.420  0.00  0.00    -0.268 OA
ATOM     10  N   UNL     1      33.633 -11.150 -23.875  0.00  0.00    -0.142 N 
ATOM     11  N   UNL     1      32.863  -9.111 -22.912  0.00  0.00    -0.205 N 
ATOM     12  N   UNL     1      34.641 -10.482 -24.510  0.00  0.00    -0.164 NA
ATOM     13  C   UNL     1      32.659 -10.494 -23.097  0.00  0.00    +0.336 C 
ATOM     14  C   UNL     1      33.886  -8.398 -23.503  0.00  0.00    +0.277 C 
ATOM     15  C   UNL     1      34.772  -9.215 -24.355  0.00  0.00    +0.176 C 
BRANCH  11  16
ATOM     16  C   UNL     1      31.910  -8.391 -22.075  0.00  0.00    +0.135 C 
BRANCH  16  17
ATOM     17  C   UNL     1      32.494  -7.993 -20.720  0.00  0.00    +0.160 C 
BRANCH  17  18
ATOM     18  O   UNL     1      32.496  -6.570 -20.601  0.00  0.00    -0.380 OA
ATOM     19  H   UNL     1      32.064  -6.180 -21.377  0.00  0.00    +0.211 HD
ENDBRANCH  17  18
BRANCH  17  20
ATOM     20  C   UNL     1      31.720  -8.575 -19.541  0.00  0.00    +0.173 C 
BRANCH  20  21
ATOM     21  O   UNL     1      32.380  -9.756 -19.095  0.00  0.00    -0.348 OA
ATOM     22  C   UNL     1      31.510 -10.878 -19.122  0.00  0.00    +0.174 C 
ENDBRANCH  20  21
ENDBRANCH  17  20
ENDBRANCH  16  17
ENDBRANCH  11  16
ENDBRANCH   5  10
BRANCH   2  25
ATOM     23  O   UNL     1      32.855 -15.857 -21.352  0.00  0.00    -0.270 OA
ATOM     24  N   UNL     1      35.050 -16.402 -21.874  0.00  0.00    -0.299 N 
ATOM     25  C   UNL     1      33.842 -15.732 -22.071  0.00  0.00    +0.247 C 
ATOM     26  H   UNL     1      35.787 -16.236 -22.505  0.00  0.00    +0.150 HD
BRANCH  24  27
ATOM     27  C   UNL     1      35.264 -17.318 -20.800  0.00  0.00    +0.117 C 
BRANCH  27  28
ATOM     28  C   UNL     1      35.298 -18.764 -21.316  0.00  0.00    +0.106 C 
ATOM     29  C   UNL     1      36.218 -19.599 -20.410  0.00  0.00    +0.029 C 
ATOM     30  C   UNL     1      33.874 -19.315 -21.498  0.00  0.00    +0.029 C 
ATOM     31  C   UNL     1      36.078 -21.114 -20.568  0.00  0.00    +0.002 C 
ATOM     32  C   UNL     1      33.233 -19.910 -20.246  0.00  0.00    +0.002 C 
ATOM     33  C   UNL     1      34.996 -21.702 -19.662  0.00  0.00    +0.000 C 
ATOM     34  C   UNL     1      33.560 -21.392 -20.071  0.00  0.00    +0.000 C 
BRANCH  28  35
ATOM     35  O   UNL     1      35.906 -18.727 -22.617  0.00  0.00    -0.385 OA
ATOM     36  H   UNL     1      36.747 -19.210 -22.594  0.00  0.00    +0.210 HD
ENDBRANCH  28  35
ENDBRANCH  27  28
ENDBRANCH  24  27
ENDBRANCH   2  25
TORSDOF 10
ENDMDL
MODEL 3
REMARK VINA RESULT:     -10.5      4.531      9.582
REMARK  Name = 11547499
REMARK  10 active torsions:
REMARK  status: ('A' for Active; 'I' for Inactive)
REMARK    1  A    between atoms: C_2  and  C_25
REMARK    2  A    between atoms: C_5  and  N_10
REMARK    3  A    between atoms: N_11  and  C_16
REMARK    4  A    between atoms: C_16  and  C_17
REMARK    5  A    between atoms: C_17  and  O_18
REMARK    6  A    between atoms: C_17  and  C_20
REMARK    7  A    between atoms: C_20  and  O_21
REMARK    8  A    between atoms: N_24  and  C_27
REMARK    9  A    between atoms: C_27  and  C_28
REMARK   10  A    between atoms: C_28  and  O_35
REMARK                            x       y       z     vdW  Elec       q    Type
REMARK                         _______ _______ _______ _____ _____    ______ ____
ROOT
ATOM      1 CL   UNL     1      33.482 -22.739 -17.888  0.00  0.00    -0.082 Cl
ATOM      2  C   UNL     1      35.033 -21.166 -19.489  0.00  0.00    +0.065 C 
ATOM      3  C   UNL     1      35.214 -20.246 -20.522  0.00  0.00    +0.022 C 
ATOM      4  C   UNL     1      33.750 -21.603 -19.161  0.00  0.00    +0.062 C 
ATOM      5  C   UNL     1      34.111 -19.762 -21.226  0.00  0.00    +0.078 C 
ATOM      6  C   UNL     1      32.647 -21.119 -19.866  0.00  0.00    +0.013 C 
ATOM      7  C   UNL     1      32.828 -20.199 -20.898  0.00  0.00    +0.018 C 
ENDROOT
BRANCH   5  10
ATOM      8  O   UNL     1      33.977 -16.844 -21.077  0.00  0.00    -0.250 OA
ATOM      9  O   UNL     1      35.068 -16.661 -25.584  0.00  0.00    -0.268 OA
ATOM     10  N   UNL     1      34.298 -18.812 -22.296  0.00  0.00    -0.142 N 
ATOM     11  N   UNL     1      34.576 -16.662 -23.285  0.00  0.00    -0.205 N 
ATOM     12  N   UNL     1      34.488 -19.407 -23.511  0.00  0.00    -0.164 NA
ATOM     13  C   UNL     1      34.271 -17.414 -22.132  0.00  0.00    +0.336 C 
ATOM     14  C   UNL     1      34.810 -17.218 -24.526  0.00  0.00    +0.277 C 
ATOM     15  C   UNL     1      34.720 -18.690 -24.550  0.00  0.00    +0.176 C 
BRANCH  11  16
ATOM     16  C   UNL     1      34.609 -15.209 -23.159  0.00  0.00    +0.135 C 
BRANCH  16  17
ATOM     17  C   UNL     1      33.284 -14.550 -23.539  0.00  0.00    +0.160 C 
BRANCH  17  18
ATOM     18  O   UNL     1      32.430 -14.503 -22.395  0.00  0.00    -0.380 OA
ATOM     19  H   UNL     1      32.901 -14.856 -21.625  0.00  0.00    +0.211 HD
ENDBRANCH  17  18
BRANCH  17  20
ATOM     20  C   UNL     1      33.454 -13.131 -24.075  0.00  0.00    +0.173 C 
BRANCH  20  21
ATOM     21  O   UNL     1      33.581 -13.188 -25.493  0.00  0.00    -0.348 OA
ATOM     22  C   UNL     1      32.717 -14.165 -26.052  0.00  0.00    +0.174 C 
ENDBRANCH  20  21
ENDBRANCH  17  20
ENDBRANCH  16  17
ENDBRANCH  11  16
ENDBRANCH   5  10
BRANCH   2  25
ATOM     23  O   UNL     1      37.277 -21.839 -19.390  0.00  0.00    -0.270 OA
ATOM     24  N   UNL     1      36.099 -21.843 -17.391  0.00  0.00    -0.299 N 
ATOM     25  C   UNL     1      36.237 -21.652 -18.766  0.00  0.00    +0.247 C 
ATOM     26  H   UNL     1      35.223 -21.667 -16.977  0.00  0.00    +0.150 HD
BRANCH  24  27
ATOM     27  C   UNL     1      37.171 -22.282 -16.556  0.00  0.00    +0.117 C 
BRANCH  27  28
ATOM     28  C   UNL     1      36.641 -23.118 -15.383  0.00  0.00    +0.106 C 
ATOM     29  C   UNL     1      35.831 -24.304 -15.936  0.00  0.00    +0.029 C 
ATOM     30  C   UNL     1      37.778 -23.490 -14.415  0.00  0.00    +0.029 C 
ATOM     31  C   UNL     1      35.545 -25.417 -14.927  0.00  0.00    +0.002 C 
ATOM     32  C   UNL     1      38.573 -24.741 -14.784  0.00  0.00    +0.002 C 
ATOM     33  C   UNL     1      36.656 -26.466 -14.878  0.00  0.00    +0.000 C 
ATOM     34  C   UNL     1      37.952 -26.015 -14.214  0.00  0.00    +0.000 C 
BRANCH  28  35
ATOM     35  O   UNL     1      35.725 -22.284 -14.656  0.00  0.00    -0.385 OA
ATOM     36  H   UNL     1      35.726 -22.540 -13.721  0.00  0.00    +0.210 HD
ENDBRANCH  28  35
ENDBRANCH  27  28
ENDBRANCH  24  27
ENDBRANCH   2  25
TORSDOF 10
ENDMDL
MODEL 4
REMARK VINA RESULT:     -10.5      7.666     13.002
REMARK  Name = 11547499
REMARK  10 active torsions:
REMARK  status: ('A' for Active; 'I' for Inactive)
REMARK    1  A    between atoms: C_2  and  C_25
REMARK    2  A    between atoms: C_5  and  N_10
REMARK    3  A    between atoms: N_11  and  C_16
REMARK    4  A    between atoms: C_16  and  C_17
REMARK    5  A    between atoms: C_17  and  O_18
REMARK    6  A    between atoms: C_17  and  C_20
REMARK    7  A    between atoms: C_20  and  O_21
REMARK    8  A    between atoms: N_24  and  C_27
REMARK    9  A    between atoms: C_27  and  C_28
REMARK   10  A    between atoms: C_28  and  O_35
REMARK                            x       y       z     vdW  Elec       q    Type
REMARK                         _______ _______ _______ _____ _____    ______ ____
ROOT
ATOM      1 CL   UNL     1      33.444 -16.835 -25.045  0.00  0.00    -0.082 Cl
ATOM      2  C   UNL     1      33.690 -14.627 -23.461  0.00  0.00    +0.065 C 
ATOM      3  C   UNL     1      33.783 -13.249 -23.260  0.00  0.00    +0.022 C 
ATOM      4  C   UNL     1      33.564 -15.136 -24.753  0.00  0.00    +0.062 C 
ATOM      5  C   UNL     1      33.749 -12.382 -24.352  0.00  0.00    +0.078 C 
ATOM      6  C   UNL     1      33.530 -14.268 -25.845  0.00  0.00    +0.013 C 
ATOM      7  C   UNL     1      33.623 -12.891 -25.644  0.00  0.00    +0.018 C 
ENDROOT
BRANCH   5  10
ATOM      8  O   UNL     1      31.927 -10.658 -22.846  0.00  0.00    -0.250 OA
ATOM      9  O   UNL     1      34.717  -7.067 -23.770  0.00  0.00    -0.268 OA
ATOM     10  N   UNL     1      33.847 -10.957 -24.144  0.00  0.00    -0.142 N 
ATOM     11  N   UNL     1      33.284  -8.842 -23.202  0.00  0.00    -0.205 N 
ATOM     12  N   UNL     1      34.896 -10.391 -24.813  0.00  0.00    -0.164 NA
ATOM     13  C   UNL     1      32.954 -10.204 -23.358  0.00  0.00    +0.336 C 
ATOM     14  C   UNL     1      34.353  -8.233 -23.827  0.00  0.00    +0.277 C 
ATOM     15  C   UNL     1      35.143  -9.139 -24.683  0.00  0.00    +0.176 C 
BRANCH  11  16
ATOM     16  C   UNL     1      32.419  -8.027 -22.357  0.00  0.00    +0.135 C 
BRANCH  16  17
ATOM     17  C   UNL     1      31.468  -7.141 -23.161  0.00  0.00    +0.160 C 
BRANCH  17  18
ATOM     18  O   UNL     1      30.393  -7.933 -23.669  0.00  0.00    -0.380 OA
ATOM     19  H   UNL     1      29.595  -7.770 -23.143  0.00  0.00    +0.211 HD
ENDBRANCH  17  18
BRANCH  17  20
ATOM     20  C   UNL     1      30.880  -5.996 -22.341  0.00  0.00    +0.173 C 
BRANCH  20  21
ATOM     21  O   UNL     1      30.556  -4.921 -23.218  0.00  0.00    -0.348 OA
ATOM     22  C   UNL     1      31.632  -4.629 -24.097  0.00  0.00    +0.174 C 
ENDBRANCH  20  21
ENDBRANCH  17  20
ENDBRANCH  16  17
ENDBRANCH  11  16
ENDBRANCH   5  10
BRANCH   2  25
ATOM     23  O   UNL     1      32.720 -15.630 -21.577  0.00  0.00    -0.270 OA
ATOM     24  N   UNL     1      34.930 -16.178 -22.028  0.00  0.00    -0.299 N 
ATOM     25  C   UNL     1      33.728 -15.512 -22.268  0.00  0.00    +0.247 C 
ATOM     26  H   UNL     1      35.685 -16.019 -22.638  0.00  0.00    +0.150 HD
BRANCH  24  27
ATOM     27  C   UNL     1      35.114 -17.080 -20.936  0.00  0.00    +0.117 C 
BRANCH  27  28
ATOM     28  C   UNL     1      35.207 -18.529 -21.438  0.00  0.00    +0.106 C 
ATOM     29  C   UNL     1      36.137 -19.324 -20.506  0.00  0.00    +0.029 C 
ATOM     30  C   UNL     1      33.806 -19.131 -21.642  0.00  0.00    +0.029 C 
ATOM     31  C   UNL     1      36.052 -20.844 -20.652  0.00  0.00    +0.002 C 
ATOM     32  C   UNL     1      33.162 -19.735 -20.397  0.00  0.00    +0.002 C 
ATOM     33  C   UNL     1      34.973 -21.460 -19.761  0.00  0.00    +0.000 C 
ATOM     34  C   UNL     1      33.536 -21.204 -20.202  0.00  0.00    +0.000 C 
BRANCH  28  35
ATOM     35  O   UNL     1      35.839 -18.483 -22.726  0.00  0.00    -0.385 OA
ATOM     36  H   UNL     1      35.416 -19.126 -23.317  0.00  0.00    +0.210 HD
ENDBRANCH  28  35
ENDBRANCH  27  28
ENDBRANCH  24  27
ENDBRANCH   2  25
TORSDOF 10
ENDMDL
MODEL 5
REMARK VINA RESULT:     -10.3      2.829      9.311
REMARK  Name = 11547499
REMARK  10 active torsions:
REMARK  status: ('A' for Active; 'I' for Inactive)
REMARK    1  A    between atoms: C_2  and  C_25
REMARK    2  A    between atoms: C_5  and  N_10
REMARK    3  A    between atoms: N_11  and  C_16
REMARK    4  A    between atoms: C_16  and  C_17
REMARK    5  A    between atoms: C_17  and  O_18
REMARK    6  A    between atoms: C_17  and  C_20
REMARK    7  A    between atoms: C_20  and  O_21
REMARK    8  A    between atoms: N_24  and  C_27
REMARK    9  A    between atoms: C_27  and  C_28
REMARK   10  A    between atoms: C_28  and  O_35
REMARK                            x       y       z     vdW  Elec       q    Type
REMARK                         _______ _______ _______ _____ _____    ______ ____
ROOT
ATOM      1 CL   UNL     1      36.820 -22.375 -17.435  0.00  0.00    -0.082 Cl
ATOM      2  C   UNL     1      35.127 -21.621 -19.438  0.00  0.00    +0.065 C 
ATOM      3  C   UNL     1      34.749 -20.793 -20.496  0.00  0.00    +0.022 C 
ATOM      4  C   UNL     1      36.314 -21.374 -18.749  0.00  0.00    +0.062 C 
ATOM      5  C   UNL     1      35.558 -19.719 -20.864  0.00  0.00    +0.078 C 
ATOM      6  C   UNL     1      37.124 -20.298 -19.118  0.00  0.00    +0.013 C 
ATOM      7  C   UNL     1      36.746 -19.471 -20.175  0.00  0.00    +0.018 C 
ENDROOT
BRANCH   5  10
ATOM      8  O   UNL     1      35.056 -16.837 -20.793  0.00  0.00    -0.250 OA
ATOM      9  O   UNL     1      34.254 -16.964 -25.362  0.00  0.00    -0.268 OA
ATOM     10  N   UNL     1      35.166 -18.861 -21.957  0.00  0.00    -0.142 N 
ATOM     11  N   UNL     1      34.708 -16.800 -23.061  0.00  0.00    -0.205 N 
ATOM     12  N   UNL     1      34.951 -19.544 -23.120  0.00  0.00    -0.164 NA
ATOM     13  C   UNL     1      34.996 -17.468 -21.853  0.00  0.00    +0.336 C 
ATOM     14  C   UNL     1      34.517 -17.442 -24.268  0.00  0.00    +0.277 C 
ATOM     15  C   UNL     1      34.647 -18.910 -24.194  0.00  0.00    +0.176 C 
BRANCH  11  16
ATOM     16  C   UNL     1      34.569 -15.349 -23.018  0.00  0.00    +0.135 C 
BRANCH  16  17
ATOM     17  C   UNL     1      33.147 -14.898 -22.689  0.00  0.00    +0.160 C 
BRANCH  17  18
ATOM     18  O   UNL     1      33.064 -14.554 -21.305  0.00  0.00    -0.380 OA
ATOM     19  H   UNL     1      32.413 -15.125 -20.869  0.00  0.00    +0.211 HD
ENDBRANCH  17  18
BRANCH  17  20
ATOM     20  C   UNL     1      32.695 -13.696 -23.513  0.00  0.00    +0.173 C 
BRANCH  20  21
ATOM     21  O   UNL     1      33.785 -13.253 -24.317  0.00  0.00    -0.348 OA
ATOM     22  C   UNL     1      33.827 -11.836 -24.395  0.00  0.00    +0.174 C 
ENDBRANCH  20  21
ENDBRANCH  17  20
ENDBRANCH  16  17
ENDBRANCH  11  16
ENDBRANCH   5  10
BRANCH   2  25
ATOM     23  O   UNL     1      34.046 -23.649 -19.902  0.00  0.00    -0.270 OA
ATOM     24  N   UNL     1      33.679 -22.729 -17.803  0.00  0.00    -0.299 N 
ATOM     25  C   UNL     1      34.234 -22.754 -19.083  0.00  0.00    +0.247 C 
ATOM     26  H   UNL     1      33.888 -21.968 -17.215  0.00  0.00    +0.150 HD
BRANCH  24  27
ATOM     27  C   UNL     1      32.823 -23.759 -17.307  0.00  0.00    +0.117 C 
BRANCH  27  28
ATOM     28  C   UNL     1      31.644 -23.158 -16.528  0.00  0.00    +0.106 C 
ATOM     29  C   UNL     1      30.546 -24.224 -16.375  0.00  0.00    +0.029 C 
ATOM     30  C   UNL     1      32.125 -22.514 -15.216  0.00  0.00    +0.029 C 
ATOM     31  C   UNL     1      29.478 -23.905 -15.329  0.00  0.00    +0.002 C 
ATOM     32  C   UNL     1      32.263 -23.464 -14.028  0.00  0.00    +0.002 C 
ATOM     33  C   UNL     1      29.859 -24.396 -13.932  0.00  0.00    +0.000 C 
ATOM     34  C   UNL     1      30.962 -23.604 -13.239  0.00  0.00    +0.000 C 
BRANCH  28  35
ATOM     35  O   UNL     1      31.101 -22.105 -17.340  0.00  0.00    -0.385 OA
ATOM     36  H   UNL     1      31.743 -21.380 -17.401  0.00  0.00    +0.210 HD
ENDBRANCH  28  35
ENDBRANCH  27  28
ENDBRANCH  24  27
ENDBRANCH   2  25
TORSDOF 10
ENDMDL
MODEL 6
REMARK VINA RESULT:     -10.2      6.805     11.249
REMARK  Name = 11547499
REMARK  10 active torsions:
REMARK  status: ('A' for Active; 'I' for Inactive)
REMARK    1  A    between atoms: C_2  and  C_25
REMARK    2  A    between atoms: C_5  and  N_10
REMARK    3  A    between atoms: N_11  and  C_16
REMARK    4  A    between atoms: C_16  and  C_17
REMARK    5  A    between atoms: C_17  and  O_18
REMARK    6  A    between atoms: C_17  and  C_20
REMARK    7  A    between atoms: C_20  and  O_21
REMARK    8  A    between atoms: N_24  and  C_27
REMARK    9  A    between atoms: C_27  and  C_28
REMARK   10  A    between atoms: C_28  and  O_35
REMARK                            x       y       z     vdW  Elec       q    Type
REMARK                         _______ _______ _______ _____ _____    ______ ____
ROOT
ATOM      1 CL   UNL     1      31.752 -10.806 -22.181  0.00  0.00    -0.082 Cl
ATOM      2  C   UNL     1      33.392 -12.562 -23.474  0.00  0.00    +0.065 C 
ATOM      3  C   UNL     1      33.950 -13.827 -23.664  0.00  0.00    +0.022 C 
ATOM      4  C   UNL     1      32.469 -12.355 -22.450  0.00  0.00    +0.062 C 
ATOM      5  C   UNL     1      33.586 -14.883 -22.829  0.00  0.00    +0.078 C 
ATOM      6  C   UNL     1      32.104 -13.411 -21.614  0.00  0.00    +0.013 C 
ATOM      7  C   UNL     1      32.663 -14.675 -21.804  0.00  0.00    +0.018 C 
ENDROOT
BRANCH   5  10
ATOM      8  O   UNL     1      35.025 -16.518 -20.876  0.00  0.00    -0.250 OA
ATOM      9  O   UNL     1      35.420 -19.839 -24.093  0.00  0.00    -0.268 OA
ATOM     10  N   UNL     1      34.165 -16.190 -23.024  0.00  0.00    -0.142 N 
ATOM     11  N   UNL     1      35.208 -18.236 -22.386  0.00  0.00    -0.205 N 
ATOM     12  N   UNL     1      34.059 -16.634 -24.312  0.00  0.00    -0.164 NA
ATOM     13  C   UNL     1      34.798 -16.939 -22.014  0.00  0.00    +0.336 C 
ATOM     14  C   UNL     1      35.089 -18.743 -23.664  0.00  0.00    +0.277 C 
ATOM     15  C   UNL     1      34.482 -17.804 -24.627  0.00  0.00    +0.176 C 
BRANCH  11  16
ATOM     16  C   UNL     1      35.825 -19.072 -21.363  0.00  0.00    +0.135 C 
BRANCH  16  17
ATOM     17  C   UNL     1      34.802 -19.831 -20.520  0.00  0.00    +0.160 C 
BRANCH  17  18
ATOM     18  O   UNL     1      33.679 -20.178 -21.331  0.00  0.00    -0.380 OA
ATOM     19  H   UNL     1      33.097 -20.776 -20.837  0.00  0.00    +0.211 HD
ENDBRANCH  17  18
BRANCH  17  20
ATOM     20  C   UNL     1      35.365 -21.107 -19.901  0.00  0.00    +0.173 C 
BRANCH  20  21
ATOM     21  O   UNL     1      36.509 -20.773 -19.120  0.00  0.00    -0.348 OA
ATOM     22  C   UNL     1      36.667 -21.664 -18.026  0.00  0.00    +0.174 C 
ENDBRANCH  20  21
ENDBRANCH  17  20
ENDBRANCH  16  17
ENDBRANCH  11  16
ENDBRANCH   5  10
BRANCH   2  25
ATOM     23  O   UNL     1      33.567 -11.566 -25.589  0.00  0.00    -0.270 OA
ATOM     24  N   UNL     1      34.440 -10.373 -23.800  0.00  0.00    -0.299 N 
ATOM     25  C   UNL     1      33.808 -11.469 -24.389  0.00  0.00    +0.247 C 
ATOM     26  H   UNL     1      34.591 -10.386 -22.827  0.00  0.00    +0.150 HD
BRANCH  24  27
ATOM     27  C   UNL     1      34.876  -9.235 -24.543  0.00  0.00    +0.117 C 
BRANCH  27  28
ATOM     28  C   UNL     1      34.333  -7.939 -23.923  0.00  0.00    +0.106 C 
ATOM     29  C   UNL     1      34.266  -6.852 -25.008  0.00  0.00    +0.029 C 
ATOM     30  C   UNL     1      33.017  -8.200 -23.169  0.00  0.00    +0.029 C 
ATOM     31  C   UNL     1      33.422  -5.629 -24.646  0.00  0.00    +0.002 C 
ATOM     32  C   UNL     1      31.752  -8.173 -24.024  0.00  0.00    +0.002 C 
ATOM     33  C   UNL     1      31.949  -5.800 -25.020  0.00  0.00    +0.000 C 
ATOM     34  C   UNL     1      31.161  -6.769 -24.145  0.00  0.00    +0.000 C 
BRANCH  28  35
ATOM     35  O   UNL     1      35.297  -7.507 -22.950  0.00  0.00    -0.385 OA
ATOM     36  H   UNL     1      35.947  -8.212 -22.804  0.00  0.00    +0.210 HD
ENDBRANCH  28  35
ENDBRANCH  27  28
ENDBRANCH  24  27
ENDBRANCH   2  25
TORSDOF 10
ENDMDL
MODEL 7
REMARK VINA RESULT:     -10.1      1.643      2.446
REMARK  Name = 11547499
REMARK  10 active torsions:
REMARK  status: ('A' for Active; 'I' for Inactive)
REMARK    1  A    between atoms: C_2  and  C_25
REMARK    2  A    between atoms: C_5  and  N_10
REMARK    3  A    between atoms: N_11  and  C_16
REMARK    4  A    between atoms: C_16  and  C_17
REMARK    5  A    between atoms: C_17  and  O_18
REMARK    6  A    between atoms: C_17  and  C_20
REMARK    7  A    between atoms: C_20  and  O_21
REMARK    8  A    between atoms: N_24  and  C_27
REMARK    9  A    between atoms: C_27  and  C_28
REMARK   10  A    between atoms: C_28  and  O_35
REMARK                            x       y       z     vdW  Elec       q    Type
REMARK                         _______ _______ _______ _____ _____    ______ ____
ROOT
ATOM      1 CL   UNL     1      36.994 -20.665 -20.201  0.00  0.00    -0.082 Cl
ATOM      2  C   UNL     1      34.520 -21.360 -19.284  0.00  0.00    +0.065 C 
ATOM      3  C   UNL     1      33.664 -21.961 -18.359  0.00  0.00    +0.022 C 
ATOM      4  C   UNL     1      35.899 -21.396 -19.082  0.00  0.00    +0.062 C 
ATOM      5  C   UNL     1      34.188 -22.596 -17.234  0.00  0.00    +0.078 C 
ATOM      6  C   UNL     1      36.424 -22.032 -17.956  0.00  0.00    +0.013 C 
ATOM      7  C   UNL     1      35.568 -22.632 -17.033  0.00  0.00    +0.018 C 
ENDROOT
BRANCH   5  10
ATOM      8  O   UNL     1      31.342 -23.197 -17.551  0.00  0.00    -0.250 OA
ATOM      9  O   UNL     1      31.377 -25.116 -13.326  0.00  0.00    -0.268 OA
ATOM     10  N   UNL     1      33.303 -23.218 -16.279  0.00  0.00    -0.142 N 
ATOM     11  N   UNL     1      31.288 -24.222 -15.499  0.00  0.00    -0.205 N 
ATOM     12  N   UNL     1      33.905 -23.469 -15.079  0.00  0.00    -0.164 NA
ATOM     13  C   UNL     1      31.951 -23.524 -16.529  0.00  0.00    +0.336 C 
ATOM     14  C   UNL     1      31.863 -24.531 -14.283  0.00  0.00    +0.277 C 
ATOM     15  C   UNL     1      33.258 -24.068 -14.146  0.00  0.00    +0.176 C 
BRANCH  11  16
ATOM     16  C   UNL     1      29.899 -24.607 -15.726  0.00  0.00    +0.135 C 
BRANCH  16  17
ATOM     17  C   UNL     1      28.920 -23.456 -15.500  0.00  0.00    +0.160 C 
BRANCH  17  18
ATOM     18  O   UNL     1      29.638 -22.294 -15.083  0.00  0.00    -0.380 OA
ATOM     19  H   UNL     1      29.555 -22.189 -14.123  0.00  0.00    +0.211 HD
ENDBRANCH  17  18
BRANCH  17  20
ATOM     20  C   UNL     1      28.112 -23.104 -16.745  0.00  0.00    +0.173 C 
BRANCH  20  21
ATOM     21  O   UNL     1      27.663 -21.756 -16.636  0.00  0.00    -0.348 OA
ATOM     22  C   UNL     1      26.438 -21.561 -17.326  0.00  0.00    +0.174 C 
ENDBRANCH  20  21
ENDBRANCH  17  20
ENDBRANCH  16  17
ENDBRANCH  11  16
ENDBRANCH   5  10
BRANCH   2  25
ATOM     23  O   UNL     1      32.708 -20.791 -20.658  0.00  0.00    -0.270 OA
ATOM     24  N   UNL     1      34.786 -19.969 -21.281  0.00  0.00    -0.299 N 
ATOM     25  C   UNL     1      33.916 -20.694 -20.466  0.00  0.00    +0.247 C 
ATOM     26  H   UNL     1      35.742 -19.948 -21.047  0.00  0.00    +0.150 HD
BRANCH  24  27
ATOM     27  C   UNL     1      34.352 -19.253 -22.438  0.00  0.00    +0.117 C 
BRANCH  27  28
ATOM     28  C   UNL     1      35.077 -17.904 -22.548  0.00  0.00    +0.106 C 
ATOM     29  C   UNL     1      34.535 -17.140 -23.768  0.00  0.00    +0.029 C 
ATOM     30  C   UNL     1      35.019 -17.140 -21.213  0.00  0.00    +0.029 C 
ATOM     31  C   UNL     1      34.887 -15.652 -23.807  0.00  0.00    +0.002 C 
ATOM     32  C   UNL     1      33.761 -16.304 -20.987  0.00  0.00    +0.002 C 
ATOM     33  C   UNL     1      33.863 -14.787 -23.072  0.00  0.00    +0.000 C 
ATOM     34  C   UNL     1      33.892 -14.890 -21.551  0.00  0.00    +0.000 C 
BRANCH  28  35
ATOM     35  O   UNL     1      36.459 -18.193 -22.809  0.00  0.00    -0.385 OA
ATOM     36  H   UNL     1      36.530 -18.733 -23.612  0.00  0.00    +0.210 HD
ENDBRANCH  28  35
ENDBRANCH  27  28
ENDBRANCH  24  27
ENDBRANCH   2  25
TORSDOF 10
ENDMDL
MODEL 8
REMARK VINA RESULT:     -10.1      8.609     13.051
REMARK  Name = 11547499
REMARK  10 active torsions:
REMARK  status: ('A' for Active; 'I' for Inactive)
REMARK    1  A    between atoms: C_2  and  C_25
REMARK    2  A    between atoms: C_5  and  N_10
REMARK    3  A    between atoms: N_11  and  C_16
REMARK    4  A    between atoms: C_16  and  C_17
REMARK    5  A    between atoms: C_17  and  O_18
REMARK    6  A    between atoms: C_17  and  C_20
REMARK    7  A    between atoms: C_20  and  O_21
REMARK    8  A    between atoms: N_24  and  C_27
REMARK    9  A    between atoms: C_27  and  C_28
REMARK   10  A    between atoms: C_28  and  O_35
REMARK                            x       y       z     vdW  Elec       q    Type
REMARK                         _______ _______ _______ _____ _____    ______ ____
ROOT
ATOM      1 CL   UNL     1      31.539  -9.153 -21.375  0.00  0.00    -0.082 Cl
ATOM      2  C   UNL     1      33.127 -10.543 -23.105  0.00  0.00    +0.065 C 
ATOM      3  C   UNL     1      33.601 -11.725 -23.675  0.00  0.00    +0.022 C 
ATOM      4  C   UNL     1      32.155 -10.592 -22.106  0.00  0.00    +0.062 C 
ATOM      5  C   UNL     1      33.103 -12.955 -23.247  0.00  0.00    +0.078 C 
ATOM      6  C   UNL     1      31.657 -11.823 -21.677  0.00  0.00    +0.013 C 
ATOM      7  C   UNL     1      32.131 -13.004 -22.248  0.00  0.00    +0.018 C 
ENDROOT
BRANCH   5  10
ATOM      8  O   UNL     1      34.928 -14.910 -22.060  0.00  0.00    -0.250 OA
ATOM      9  O   UNL     1      34.494 -17.493 -25.891  0.00  0.00    -0.268 OA
ATOM     10  N   UNL     1      33.595 -14.178 -23.835  0.00  0.00    -0.142 N 
ATOM     11  N   UNL     1      34.719 -16.278 -23.891  0.00  0.00    -0.205 N 
ATOM     12  N   UNL     1      33.182 -14.353 -25.125  0.00  0.00    -0.164 NA
ATOM     13  C   UNL     1      34.433 -15.097 -23.176  0.00  0.00    +0.336 C 
ATOM     14  C   UNL     1      34.294 -16.517 -25.182  0.00  0.00    +0.277 C 
ATOM     15  C   UNL     1      33.496 -15.421 -25.764  0.00  0.00    +0.176 C 
BRANCH  11  16
ATOM     16  C   UNL     1      35.542 -17.286 -23.234  0.00  0.00    +0.135 C 
BRANCH  16  17
ATOM     17  C   UNL     1      34.727 -18.462 -22.698  0.00  0.00    +0.160 C 
BRANCH  17  18
ATOM     18  O   UNL     1      34.894 -19.590 -23.557  0.00  0.00    -0.380 OA
ATOM     19  H   UNL     1      35.311 -19.307 -24.385  0.00  0.00    +0.211 HD
ENDBRANCH  17  18
BRANCH  17  20
ATOM     20  C   UNL     1      35.123 -18.869 -21.282  0.00  0.00    +0.173 C 
BRANCH  20  21
ATOM     21  O   UNL     1      34.501 -20.112 -20.970  0.00  0.00    -0.348 OA
ATOM     22  C   UNL     1      33.148 -19.930 -20.581  0.00  0.00    +0.174 C 
ENDBRANCH  20  21
ENDBRANCH  17  20
ENDBRANCH  16  17
ENDBRANCH  11  16
ENDBRANCH   5  10
BRANCH   2  25
ATOM     23  O   UNL     1      34.868  -9.201 -23.920  0.00  0.00    -0.270 OA
ATOM     24  N   UNL     1      32.797  -8.183 -23.672  0.00  0.00    -0.299 N 
ATOM     25  C   UNL     1      33.686  -9.256 -23.595  0.00  0.00    +0.247 C 
ATOM     26  H   UNL     1      31.865  -8.324 -23.387  0.00  0.00    +0.150 HD
BRANCH  24  27
ATOM     27  C   UNL     1      33.178  -6.891 -24.146  0.00  0.00    +0.117 C 
BRANCH  27  28
ATOM     28  C   UNL     1      31.961  -5.958 -24.220  0.00  0.00    +0.106 C 
ATOM     29  C   UNL     1      31.942  -5.057 -22.973  0.00  0.00    +0.029 C 
ATOM     30  C   UNL     1      31.917  -5.219 -25.568  0.00  0.00    +0.029 C 
ATOM     31  C   UNL     1      31.015  -3.844 -23.068  0.00  0.00    +0.002 C 
ATOM     32  C   UNL     1      32.746  -3.939 -25.645  0.00  0.00    +0.002 C 
ATOM     33  C   UNL     1      31.703  -2.625 -23.684  0.00  0.00    +0.000 C 
ATOM     34  C   UNL     1      31.964  -2.710 -25.184  0.00  0.00    +0.000 C 
BRANCH  28  35
ATOM     35  O   UNL     1      30.793  -6.791 -24.157  0.00  0.00    -0.385 OA
ATOM     36  H   UNL     1      31.061  -7.717 -24.048  0.00  0.00    +0.210 HD
ENDBRANCH  28  35
ENDBRANCH  27  28
ENDBRANCH  24  27
ENDBRANCH   2  25
TORSDOF 10
ENDMDL
MODEL 9
REMARK VINA RESULT:     -10.0      3.920      7.137
REMARK  Name = 11547499
REMARK  10 active torsions:
REMARK  status: ('A' for Active; 'I' for Inactive)
REMARK    1  A    between atoms: C_2  and  C_25
REMARK    2  A    between atoms: C_5  and  N_10
REMARK    3  A    between atoms: N_11  and  C_16
REMARK    4  A    between atoms: C_16  and  C_17
REMARK    5  A    between atoms: C_17  and  O_18
REMARK    6  A    between atoms: C_17  and  C_20
REMARK    7  A    between atoms: C_20  and  O_21
REMARK    8  A    between atoms: N_24  and  C_27
REMARK    9  A    between atoms: C_27  and  C_28
REMARK   10  A    between atoms: C_28  and  O_35
REMARK                            x       y       z     vdW  Elec       q    Type
REMARK                         _______ _______ _______ _____ _____    ______ ____
ROOT
ATOM      1 CL   UNL     1      34.538 -16.424 -24.798  0.00  0.00    -0.082 Cl
ATOM      2  C   UNL     1      34.734 -17.073 -22.155  0.00  0.00    +0.065 C 
ATOM      3  C   UNL     1      34.853 -17.990 -21.109  0.00  0.00    +0.022 C 
ATOM      4  C   UNL     1      34.683 -17.524 -23.474  0.00  0.00    +0.062 C 
ATOM      5  C   UNL     1      34.922 -19.355 -21.383  0.00  0.00    +0.078 C 
ATOM      6  C   UNL     1      34.752 -18.891 -23.748  0.00  0.00    +0.013 C 
ATOM      7  C   UNL     1      34.871 -19.806 -22.702  0.00  0.00    +0.018 C 
ENDROOT
BRANCH   5  10
ATOM      8  O   UNL     1      32.846 -21.100 -20.284  0.00  0.00    -0.250 OA
ATOM      9  O   UNL     1      36.006 -22.866 -17.380  0.00  0.00    -0.268 OA
ATOM     10  N   UNL     1      35.043 -20.303 -20.301  0.00  0.00    -0.142 N 
ATOM     11  N   UNL     1      34.359 -22.073 -18.859  0.00  0.00    -0.205 N 
ATOM     12  N   UNL     1      36.277 -20.288 -19.714  0.00  0.00    -0.164 NA
ATOM     13  C   UNL     1      34.006 -21.149 -19.864  0.00  0.00    +0.336 C 
ATOM     14  C   UNL     1      35.602 -22.121 -18.261  0.00  0.00    +0.277 C 
ATOM     15  C   UNL     1      36.552 -21.113 -18.771  0.00  0.00    +0.176 C 
BRANCH  11  16
ATOM     16  C   UNL     1      33.335 -23.006 -18.405  0.00  0.00    +0.135 C 
BRANCH  16  17
ATOM     17  C   UNL     1      32.631 -22.540 -17.131  0.00  0.00    +0.160 C 
BRANCH  17  18
ATOM     18  O   UNL     1      31.229 -22.423 -17.377  0.00  0.00    -0.380 OA
ATOM     19  H   UNL     1      30.865 -21.705 -16.836  0.00  0.00    +0.211 HD
ENDBRANCH  17  18
BRANCH  17  20
ATOM     20  C   UNL     1      32.838 -23.486 -15.952  0.00  0.00    +0.173 C 
BRANCH  20  21
ATOM     21  O   UNL     1      31.568 -23.807 -15.392  0.00  0.00    -0.348 OA
ATOM     22  C   UNL     1      31.550 -23.586 -13.990  0.00  0.00    +0.174 C 
ENDBRANCH  20  21
ENDBRANCH  17  20
ENDBRANCH  16  17
ENDBRANCH  11  16
ENDBRANCH   5  10
BRANCH   2  25
ATOM     23  O   UNL     1      34.962 -15.265 -20.681  0.00  0.00    -0.270 OA
ATOM     24  N   UNL     1      34.283 -14.767 -22.844  0.00  0.00    -0.299 N 
ATOM     25  C   UNL     1      34.666 -15.629 -21.816  0.00  0.00    +0.247 C 
ATOM     26  H   UNL     1      34.064 -15.153 -23.723  0.00  0.00    +0.150 HD
BRANCH  24  27
ATOM     27  C   UNL     1      34.196 -13.351 -22.679  0.00  0.00    +0.117 C 
BRANCH  27  28
ATOM     28  C   UNL     1      32.730 -12.903 -22.590  0.00  0.00    +0.106 C 
ATOM     29  C   UNL     1      32.354 -12.706 -21.112  0.00  0.00    +0.029 C 
ATOM     30  C   UNL     1      32.469 -11.693 -23.503  0.00  0.00    +0.029 C 
ATOM     31  C   UNL     1      31.061 -11.925 -20.873  0.00  0.00    +0.002 C 
ATOM     32  C   UNL     1      32.793 -10.329 -22.897  0.00  0.00    +0.002 C 
ATOM     33  C   UNL     1      31.292 -10.416 -20.800  0.00  0.00    +0.000 C 
ATOM     34  C   UNL     1      31.612  -9.739 -22.128  0.00  0.00    +0.000 C 
BRANCH  28  35
ATOM     35  O   UNL     1      31.932 -13.988 -23.089  0.00  0.00    -0.385 OA
ATOM     36  H   UNL     1      31.593 -14.509 -22.344  0.00  0.00    +0.210 HD
ENDBRANCH  28  35
ENDBRANCH  27  28
ENDBRANCH  24  27
ENDBRANCH   2  25
TORSDOF 10
ENDMDL
