MODEL 1
REMARK VINA RESULT:      -3.0      0.000      0.000
REMARK  Name = 6374
REMARK  0 active torsions:
REMARK  status: ('A' for Active; 'I' for Inactive)
REMARK                            x       y       z     vdW  Elec       q    Type
REMARK                         _______ _______ _______ _____ _____    ______ ____
ROOT
ATOM      1  I   UNL     1      34.198 -15.646 -21.644  0.00  0.00    -0.052 I 
ATOM      2  I   UNL     1      34.826 -18.988 -21.842  0.00  0.00    -0.052 I 
ATOM      3  I   UNL     1      34.604 -17.126 -24.684  0.00  0.00    -0.052 I 
ATOM      4  C   UNL     1      35.300 -17.113 -22.690  0.00  0.00    +0.156 C 
ENDROOT
TORSDOF 0
ENDMDL
MODEL 2
REMARK VINA RESULT:      -3.0      0.050      2.956
REMARK  Name = 6374
REMARK  0 active torsions:
REMARK  status: ('A' for Active; 'I' for Inactive)
REMARK                            x       y       z     vdW  Elec       q    Type
REMARK                         _______ _______ _______ _____ _____    ______ ____
ROOT
ATOM      1  I   UNL     1      34.618 -17.116 -24.665  0.00  0.00    -0.052 I 
ATOM      2  I   UNL     1      34.222 -15.611 -21.636  0.00  0.00    -0.052 I 
ATOM      3  I   UNL     1      34.753 -18.970 -21.811  0.00  0.00    -0.052 I 
ATOM      4  C   UNL     1      35.292 -17.114 -22.663  0.00  0.00    +0.156 C 
ENDROOT
TORSDOF 0
ENDMDL
MODEL 3
REMARK VINA RESULT:      -3.0      0.051      2.956
REMARK  Name = 6374
REMARK  0 active torsions:
REMARK  status: ('A' for Active; 'I' for Inactive)
REMARK                            x       y       z     vdW  Elec       q    Type
REMARK                         _______ _______ _______ _____ _____    ______ ____
ROOT
ATOM      1  I   UNL     1      34.916 -18.992 -21.848  0.00  0.00    -0.052 I 
ATOM      2  I   UNL     1      34.606 -17.124 -24.679  0.00  0.00    -0.052 I 
ATOM      3  I   UNL     1      34.215 -15.667 -21.626  0.00  0.00    -0.052 I 
ATOM      4  C   UNL     1      35.333 -17.103 -22.697  0.00  0.00    +0.156 C 
ENDROOT
TORSDOF 0
ENDMDL
MODEL 4
REMARK VINA RESULT:      -3.0      1.377      2.988
REMARK  Name = 6374
REMARK  0 active torsions:
REMARK  status: ('A' for Active; 'I' for Inactive)
REMARK                            x       y       z     vdW  Elec       q    Type
REMARK                         _______ _______ _______ _____ _____    ______ ____
ROOT
ATOM      1  I   UNL     1      33.881 -19.703 -20.948  0.00  0.00    -0.052 I 
ATOM      2  I   UNL     1      34.952 -18.495 -23.946  0.00  0.00    -0.052 I 
ATOM      3  I   UNL     1      34.490 -16.373 -21.324  0.00  0.00    -0.052 I 
ATOM      4  C   UNL     1      35.173 -18.300 -21.856  0.00  0.00    +0.156 C 
ENDROOT
TORSDOF 0
ENDMDL
MODEL 5
REMARK VINA RESULT:      -2.9      9.764     10.385
REMARK  Name = 6374
REMARK  0 active torsions:
REMARK  status: ('A' for Active; 'I' for Inactive)
REMARK                            x       y       z     vdW  Elec       q    Type
REMARK                         _______ _______ _______ _____ _____    ______ ____
ROOT
ATOM      1  I   UNL     1      34.405  -7.749 -23.677  0.00  0.00    -0.052 I 
ATOM      2  I   UNL     1      32.454  -7.710 -20.886  0.00  0.00    -0.052 I 
ATOM      3  I   UNL     1      31.501  -5.970 -23.653  0.00  0.00    -0.052 I 
ATOM      4  C   UNL     1      32.406  -7.761 -22.996  0.00  0.00    +0.156 C 
ENDROOT
TORSDOF 0
ENDMDL
MODEL 6
REMARK VINA RESULT:      -2.9      9.769     10.421
REMARK  Name = 6374
REMARK  0 active torsions:
REMARK  status: ('A' for Active; 'I' for Inactive)
REMARK                            x       y       z     vdW  Elec       q    Type
REMARK                         _______ _______ _______ _____ _____    ______ ____
ROOT
ATOM      1  I   UNL     1      32.460  -7.769 -20.904  0.00  0.00    -0.052 I 
ATOM      2  I   UNL     1      31.484  -5.986 -23.637  0.00  0.00    -0.052 I 
ATOM      3  I   UNL     1      34.420  -7.710 -23.688  0.00  0.00    -0.052 I 
ATOM      4  C   UNL     1      32.419  -7.774 -23.016  0.00  0.00    +0.156 C 
ENDROOT
TORSDOF 0
ENDMDL
MODEL 7
REMARK VINA RESULT:      -2.9      9.780     10.487
REMARK  Name = 6374
REMARK  0 active torsions:
REMARK  status: ('A' for Active; 'I' for Inactive)
REMARK                            x       y       z     vdW  Elec       q    Type
REMARK                         _______ _______ _______ _____ _____    ______ ____
ROOT
ATOM      1  I   UNL     1      31.568  -5.906 -23.700  0.00  0.00    -0.052 I 
ATOM      2  I   UNL     1      34.446  -7.726 -23.707  0.00  0.00    -0.052 I 
ATOM      3  I   UNL     1      32.440  -7.725 -20.956  0.00  0.00    -0.052 I 
ATOM      4  C   UNL     1      32.434  -7.726 -23.068  0.00  0.00    +0.156 C 
ENDROOT
TORSDOF 0
ENDMDL
MODEL 8
REMARK VINA RESULT:      -2.9      8.605      9.966
REMARK  Name = 6374
REMARK  0 active torsions:
REMARK  status: ('A' for Active; 'I' for Inactive)
REMARK                            x       y       z     vdW  Elec       q    Type
REMARK                         _______ _______ _______ _____ _____    ______ ____
ROOT
ATOM      1  I   UNL     1      34.395  -7.658 -23.693  0.00  0.00    -0.052 I 
ATOM      2  I   UNL     1      31.768  -6.266 -22.032  0.00  0.00    -0.052 I 
ATOM      3  I   UNL     1      31.915  -9.641 -22.463  0.00  0.00    -0.052 I 
ATOM      4  C   UNL     1      33.077  -7.923 -22.064  0.00  0.00    +0.156 C 
ENDROOT
TORSDOF 0
ENDMDL
MODEL 9
REMARK VINA RESULT:      -2.9      1.606      3.687
REMARK  Name = 6374
REMARK  0 active torsions:
REMARK  status: ('A' for Active; 'I' for Inactive)
REMARK                            x       y       z     vdW  Elec       q    Type
REMARK                         _______ _______ _______ _____ _____    ______ ____
ROOT
ATOM      1  I   UNL     1      34.572 -17.180 -24.767  0.00  0.00    -0.052 I 
ATOM      2  I   UNL     1      33.502 -14.144 -23.656  0.00  0.00    -0.052 I 
ATOM      3  I   UNL     1      34.516 -16.510 -21.429  0.00  0.00    -0.052 I 
ATOM      4  C   UNL     1      34.918 -15.675 -23.326  0.00  0.00    +0.156 C 
ENDROOT
TORSDOF 0
ENDMDL
