MODEL 1
REMARK VINA RESULT:     -10.4      0.000      0.000
REMARK  Name = 44513473
REMARK  7 active torsions:
REMARK  status: ('A' for Active; 'I' for Inactive)
REMARK    1  A    between atoms: C_1  and  N_4
REMARK    2  A    between atoms: C_1  and  C_17
REMARK    3  A    between atoms: N_4  and  C_7
REMARK    4  A    between atoms: C_7  and  C_14
REMARK    5  A    between atoms: C_10  and  C_16
REMARK    6  A    between atoms: C_17  and  N_19
REMARK    7  A    between atoms: C_20  and  C_25
REMARK                            x       y       z     vdW  Elec       q    Type
REMARK                         _______ _______ _______ _____ _____    ______ ____
ROOT
ATOM      1  C   UNL     1      32.207 -23.503 -14.947  0.00  0.00    -0.027 C 
ATOM      2  C   UNL     1      31.452 -22.346 -14.275  0.00  0.00    -0.020 C 
ATOM      3  C   UNL     1      31.869 -24.827 -14.247  0.00  0.00    -0.020 C 
ENDROOT
BRANCH   1   4
ATOM      4  N   UNL     1      33.640 -23.272 -14.798  0.00  0.00    +0.393 N 
ATOM      5  H   UNL     1      33.805 -22.748 -13.938  0.00  0.00    -0.084 HD
ATOM      6  H   UNL     1      33.969 -22.747 -15.608  0.00  0.00    -0.084 HD
BRANCH   4   7
ATOM      7  C   UNL     1      34.372 -24.518 -14.736  0.00  0.00    +0.006 C 
BRANCH   7  14
ATOM      8  O   UNL     1      34.674 -24.101 -12.412  0.00  0.00    -0.277 OA
ATOM      9  N   UNL     1      36.516 -24.844 -13.599  0.00  0.00    -0.270 N 
ATOM     10  C   UNL     1      37.420 -24.950 -12.452  0.00  0.00    +0.167 C 
ATOM     11  C   UNL     1      38.584 -25.790 -12.980  0.00  0.00    +0.037 C 
ATOM     12  C   UNL     1      38.637 -25.429 -14.462  0.00  0.00    +0.024 C 
ATOM     13  C   UNL     1      37.168 -25.285 -14.830  0.00  0.00    +0.094 C 
ATOM     14  C   UNL     1      35.189 -24.467 -13.469  0.00  0.00    +0.205 C 
BRANCH  10  16
ATOM     15  N   UNL     1      38.219 -22.568 -11.670  0.00  0.00    -0.194 NA
ATOM     16  C   UNL     1      37.867 -23.619 -12.015  0.00  0.00    +0.093 C 
ENDBRANCH  10  16
ENDBRANCH   7  14
ENDBRANCH   4   7
ENDBRANCH   1   4
BRANCH   1  17
ATOM     17  C   UNL     1      31.902 -23.571 -16.455  0.00  0.00    +0.070 C 
BRANCH  17  19
ATOM     18  O   UNL     1      33.640 -24.352 -18.657  0.00  0.00    -0.270 OA
ATOM     19  N   UNL     1      32.743 -22.720 -17.251  0.00  0.00    -0.303 N 
ATOM     20  C   UNL     1      33.539 -23.188 -18.283  0.00  0.00    +0.245 C 
ATOM     21  H   UNL     1      32.755 -21.755 -17.052  0.00  0.00    +0.150 HD
BRANCH  20  25
ATOM     22  N   UNL     1      34.464 -20.313 -20.467  0.00  0.00    -0.194 N 
ATOM     23  N   UNL     1      36.455 -20.898 -19.247  0.00  0.00    -0.232 NA
ATOM     24  N   UNL     1      34.033 -19.420 -21.399  0.00  0.00    -0.185 NA
ATOM     25  C   UNL     1      34.306 -22.117 -18.946  0.00  0.00    +0.072 C 
ATOM     26  C   UNL     1      33.725 -21.319 -19.850  0.00  0.00    +0.150 C 
ATOM     27  C   UNL     1      35.741 -21.828 -18.688  0.00  0.00    +0.102 C 
ATOM     28  C   UNL     1      35.812 -20.117 -20.160  0.00  0.00    +0.133 C 
ATOM     29  C   UNL     1      36.235 -19.060 -20.932  0.00  0.00    +0.106 C 
ATOM     30  C   UNL     1      35.106 -18.677 -21.669  0.00  0.00    +0.062 C 
ATOM     31  C   UNL     1      35.007 -17.587 -22.655  0.00  0.00    +0.049 C 
ENDBRANCH  20  25
ENDBRANCH  17  19
ENDBRANCH   1  17
TORSDOF 7
ENDMDL
MODEL 2
REMARK VINA RESULT:     -10.3      1.184      1.899
REMARK  Name = 44513473
REMARK  7 active torsions:
REMARK  status: ('A' for Active; 'I' for Inactive)
REMARK    1  A    between atoms: C_1  and  N_4
REMARK    2  A    between atoms: C_1  and  C_17
REMARK    3  A    between atoms: N_4  and  C_7
REMARK    4  A    between atoms: C_7  and  C_14
REMARK    5  A    between atoms: C_10  and  C_16
REMARK    6  A    between atoms: C_17  and  N_19
REMARK    7  A    between atoms: C_20  and  C_25
REMARK                            x       y       z     vdW  Elec       q    Type
REMARK                         _______ _______ _______ _____ _____    ______ ____
ROOT
ATOM      1  C   UNL     1      32.091 -23.380 -15.015  0.00  0.00    -0.027 C 
ATOM      2  C   UNL     1      31.019 -22.436 -14.450  0.00  0.00    -0.020 C 
ATOM      3  C   UNL     1      32.066 -24.715 -14.258  0.00  0.00    -0.020 C 
ENDROOT
BRANCH   1   4
ATOM      4  N   UNL     1      33.402 -22.773 -14.807  0.00  0.00    +0.393 N 
ATOM      5  H   UNL     1      33.277 -21.839 -14.416  0.00  0.00    -0.084 HD
ATOM      6  H   UNL     1      33.882 -22.726 -15.706  0.00  0.00    -0.084 HD
BRANCH   4   7
ATOM      7  C   UNL     1      34.209 -23.558 -13.899  0.00  0.00    +0.006 C 
BRANCH   7  14
ATOM      8  O   UNL     1      35.399 -23.908 -15.931  0.00  0.00    -0.277 OA
ATOM      9  N   UNL     1      36.290 -24.844 -14.011  0.00  0.00    -0.270 N 
ATOM     10  C   UNL     1      37.511 -25.363 -14.632  0.00  0.00    +0.167 C 
ATOM     11  C   UNL     1      38.415 -25.690 -13.442  0.00  0.00    +0.037 C 
ATOM     12  C   UNL     1      37.428 -26.070 -12.342  0.00  0.00    +0.024 C 
ATOM     13  C   UNL     1      36.272 -25.109 -12.574  0.00  0.00    +0.094 C 
ATOM     14  C   UNL     1      35.349 -24.111 -14.717  0.00  0.00    +0.205 C 
BRANCH  10  16
ATOM     15  N   UNL     1      36.990 -27.503 -16.071  0.00  0.00    -0.194 NA
ATOM     16  C   UNL     1      37.220 -26.559 -15.437  0.00  0.00    +0.093 C 
ENDBRANCH  10  16
ENDBRANCH   7  14
ENDBRANCH   4   7
ENDBRANCH   1   4
BRANCH   1  17
ATOM     17  C   UNL     1      31.912 -23.590 -16.530  0.00  0.00    +0.070 C 
BRANCH  17  19
ATOM     18  O   UNL     1      33.649 -24.334 -18.745  0.00  0.00    -0.270 OA
ATOM     19  N   UNL     1      32.730 -22.721 -17.332  0.00  0.00    -0.303 N 
ATOM     20  C   UNL     1      33.528 -23.172 -18.370  0.00  0.00    +0.245 C 
ATOM     21  H   UNL     1      32.723 -21.756 -17.133  0.00  0.00    +0.150 HD
BRANCH  20  25
ATOM     22  N   UNL     1      34.358 -20.230 -20.502  0.00  0.00    -0.194 N 
ATOM     23  N   UNL     1      36.409 -20.878 -19.420  0.00  0.00    -0.232 NA
ATOM     24  N   UNL     1      33.886 -19.301 -21.375  0.00  0.00    -0.185 NA
ATOM     25  C   UNL     1      34.267 -22.086 -19.038  0.00  0.00    +0.072 C 
ATOM     26  C   UNL     1      33.644 -21.251 -19.878  0.00  0.00    +0.150 C 
ATOM     27  C   UNL     1      35.718 -21.820 -18.854  0.00  0.00    +0.102 C 
ATOM     28  C   UNL     1      35.724 -20.058 -20.266  0.00  0.00    +0.133 C 
ATOM     29  C   UNL     1      36.115 -18.979 -21.024  0.00  0.00    +0.106 C 
ATOM     30  C   UNL     1      34.949 -18.558 -21.680  0.00  0.00    +0.062 C 
ATOM     31  C   UNL     1      34.807 -17.434 -22.621  0.00  0.00    +0.049 C 
ENDBRANCH  20  25
ENDBRANCH  17  19
ENDBRANCH   1  17
TORSDOF 7
ENDMDL
MODEL 3
REMARK VINA RESULT:     -10.2      6.426     12.920
REMARK  Name = 44513473
REMARK  7 active torsions:
REMARK  status: ('A' for Active; 'I' for Inactive)
REMARK    1  A    between atoms: C_1  and  N_4
REMARK    2  A    between atoms: C_1  and  C_17
REMARK    3  A    between atoms: N_4  and  C_7
REMARK    4  A    between atoms: C_7  and  C_14
REMARK    5  A    between atoms: C_10  and  C_16
REMARK    6  A    between atoms: C_17  and  N_19
REMARK    7  A    between atoms: C_20  and  C_25
REMARK                            x       y       z     vdW  Elec       q    Type
REMARK                         _______ _______ _______ _____ _____    ______ ____
ROOT
ATOM      1  C   UNL     1      33.698 -14.398 -23.315  0.00  0.00    -0.027 C 
ATOM      2  C   UNL     1      32.716 -14.353 -24.495  0.00  0.00    -0.020 C 
ATOM      3  C   UNL     1      32.970 -14.859 -22.044  0.00  0.00    -0.020 C 
ENDROOT
BRANCH   1   4
ATOM      4  N   UNL     1      34.202 -13.050 -23.077  0.00  0.00    +0.393 N 
ATOM      5  H   UNL     1      35.221 -13.062 -23.132  0.00  0.00    -0.084 HD
ATOM      6  H   UNL     1      33.894 -12.748 -22.152  0.00  0.00    -0.084 HD
BRANCH   4   7
ATOM      7  C   UNL     1      33.689 -12.115 -24.055  0.00  0.00    +0.006 C 
BRANCH   7  14
ATOM      8  O   UNL     1      31.977 -11.329 -22.600  0.00  0.00    -0.277 OA
ATOM      9  N   UNL     1      33.486  -9.765 -23.397  0.00  0.00    -0.270 N 
ATOM     10  C   UNL     1      32.968  -8.631 -22.630  0.00  0.00    +0.167 C 
ATOM     11  C   UNL     1      34.077  -7.582 -22.735  0.00  0.00    +0.037 C 
ATOM     12  C   UNL     1      34.704  -7.865 -24.097  0.00  0.00    +0.024 C 
ATOM     13  C   UNL     1      34.654  -9.383 -24.187  0.00  0.00    +0.094 C 
ATOM     14  C   UNL     1      32.965 -11.044 -23.278  0.00  0.00    +0.205 C 
BRANCH  10  16
ATOM     15  N   UNL     1      30.709  -7.760 -23.660  0.00  0.00    -0.194 NA
ATOM     16  C   UNL     1      31.705  -8.144 -23.206  0.00  0.00    +0.093 C 
ENDBRANCH  10  16
ENDBRANCH   7  14
ENDBRANCH   4   7
ENDBRANCH   1   4
BRANCH   1  17
ATOM     17  C   UNL     1      34.908 -15.299 -23.626  0.00  0.00    +0.070 C 
BRANCH  17  19
ATOM     18  O   UNL     1      34.721 -18.121 -24.318  0.00  0.00    -0.270 OA
ATOM     19  N   UNL     1      35.028 -16.427 -22.743  0.00  0.00    -0.303 N 
ATOM     20  C   UNL     1      34.923 -17.740 -23.170  0.00  0.00    +0.245 C 
ATOM     21  H   UNL     1      35.192 -16.258 -21.787  0.00  0.00    +0.150 HD
BRANCH  20  25
ATOM     22  N   UNL     1      34.204 -20.327 -20.585  0.00  0.00    -0.194 N 
ATOM     23  N   UNL     1      36.558 -19.849 -20.422  0.00  0.00    -0.232 NA
ATOM     24  N   UNL     1      33.255 -21.114 -20.010  0.00  0.00    -0.185 NA
ATOM     25  C   UNL     1      35.083 -18.713 -22.074  0.00  0.00    +0.072 C 
ATOM     26  C   UNL     1      34.035 -19.413 -21.621  0.00  0.00    +0.150 C 
ATOM     27  C   UNL     1      36.370 -19.003 -21.389  0.00  0.00    +0.102 C 
ATOM     28  C   UNL     1      35.456 -20.533 -20.002  0.00  0.00    +0.133 C 
ATOM     29  C   UNL     1      35.277 -21.485 -19.026  0.00  0.00    +0.106 C 
ATOM     30  C   UNL     1      33.913 -21.802 -19.077  0.00  0.00    +0.062 C 
ATOM     31  C   UNL     1      33.186 -22.772 -18.240  0.00  0.00    +0.049 C 
ENDBRANCH  20  25
ENDBRANCH  17  19
ENDBRANCH   1  17
TORSDOF 7
ENDMDL
MODEL 4
REMARK VINA RESULT:     -10.1      5.623     11.978
REMARK  Name = 44513473
REMARK  7 active torsions:
REMARK  status: ('A' for Active; 'I' for Inactive)
REMARK    1  A    between atoms: C_1  and  N_4
REMARK    2  A    between atoms: C_1  and  C_17
REMARK    3  A    between atoms: N_4  and  C_7
REMARK    4  A    between atoms: C_7  and  C_14
REMARK    5  A    between atoms: C_10  and  C_16
REMARK    6  A    between atoms: C_17  and  N_19
REMARK    7  A    between atoms: C_20  and  C_25
REMARK                            x       y       z     vdW  Elec       q    Type
REMARK                         _______ _______ _______ _____ _____    ______ ____
ROOT
ATOM      1  C   UNL     1      33.567 -15.521 -21.628  0.00  0.00    -0.027 C 
ATOM      2  C   UNL     1      32.400 -15.955 -20.729  0.00  0.00    -0.020 C 
ATOM      3  C   UNL     1      34.556 -14.663 -20.827  0.00  0.00    -0.020 C 
ENDROOT
BRANCH   1   4
ATOM      4  N   UNL     1      33.039 -14.700 -22.713  0.00  0.00    +0.393 N 
ATOM      5  H   UNL     1      32.314 -15.223 -23.204  0.00  0.00    -0.084 HD
ATOM      6  H   UNL     1      33.805 -14.467 -23.344  0.00  0.00    -0.084 HD
BRANCH   4   7
ATOM      7  C   UNL     1      32.471 -13.467 -22.211  0.00  0.00    +0.006 C 
BRANCH   7  14
ATOM      8  O   UNL     1      33.359 -12.706 -24.285  0.00  0.00    -0.277 OA
ATOM      9  N   UNL     1      32.470 -11.107 -22.866  0.00  0.00    -0.270 N 
ATOM     10  C   UNL     1      32.635  -9.971 -23.775  0.00  0.00    +0.167 C 
ATOM     11  C   UNL     1      31.756  -8.881 -23.159  0.00  0.00    +0.037 C 
ATOM     12  C   UNL     1      31.814  -9.182 -21.664  0.00  0.00    +0.024 C 
ATOM     13  C   UNL     1      31.820 -10.702 -21.622  0.00  0.00    +0.094 C 
ATOM     14  C   UNL     1      32.810 -12.402 -23.225  0.00  0.00    +0.205 C 
BRANCH  10  16
ATOM     15  N   UNL     1      35.157  -9.229 -23.896  0.00  0.00    -0.194 NA
ATOM     16  C   UNL     1      34.045  -9.556 -23.842  0.00  0.00    +0.093 C 
ENDBRANCH  10  16
ENDBRANCH   7  14
ENDBRANCH   4   7
ENDBRANCH   1   4
BRANCH   1  17
ATOM     17  C   UNL     1      34.266 -16.737 -22.265  0.00  0.00    +0.070 C 
BRANCH  17  19
ATOM     18  O   UNL     1      34.822 -19.497 -23.008  0.00  0.00    -0.270 OA
ATOM     19  N   UNL     1      34.335 -17.881 -21.397  0.00  0.00    -0.303 N 
ATOM     20  C   UNL     1      34.607 -19.162 -21.848  0.00  0.00    +0.245 C 
ATOM     21  H   UNL     1      34.180 -17.747 -20.433  0.00  0.00    +0.150 HD
BRANCH  20  25
ATOM     22  N   UNL     1      33.518 -21.488 -19.147  0.00  0.00    -0.194 N 
ATOM     23  N   UNL     1      35.913 -21.693 -19.288  0.00  0.00    -0.232 NA
ATOM     24  N   UNL     1      32.466 -21.987 -18.445  0.00  0.00    -0.185 NA
ATOM     25  C   UNL     1      34.623 -20.160 -20.763  0.00  0.00    +0.072 C 
ATOM     26  C   UNL     1      33.485 -20.544 -20.171  0.00  0.00    +0.150 C 
ATOM     27  C   UNL     1      35.851 -20.812 -20.239  0.00  0.00    +0.102 C 
ATOM     28  C   UNL     1      34.725 -22.047 -18.721  0.00  0.00    +0.133 C 
ATOM     29  C   UNL     1      34.409 -22.928 -17.713  0.00  0.00    +0.106 C 
ATOM     30  C   UNL     1      33.015 -22.848 -17.588  0.00  0.00    +0.062 C 
ATOM     31  C   UNL     1      32.155 -23.590 -16.650  0.00  0.00    +0.049 C 
ENDBRANCH  20  25
ENDBRANCH  17  19
ENDBRANCH   1  17
TORSDOF 7
ENDMDL
MODEL 5
REMARK VINA RESULT:      -9.9      3.537     10.854
REMARK  Name = 44513473
REMARK  7 active torsions:
REMARK  status: ('A' for Active; 'I' for Inactive)
REMARK    1  A    between atoms: C_1  and  N_4
REMARK    2  A    between atoms: C_1  and  C_17
REMARK    3  A    between atoms: N_4  and  C_7
REMARK    4  A    between atoms: C_7  and  C_14
REMARK    5  A    between atoms: C_10  and  C_16
REMARK    6  A    between atoms: C_17  and  N_19
REMARK    7  A    between atoms: C_20  and  C_25
REMARK                            x       y       z     vdW  Elec       q    Type
REMARK                         _______ _______ _______ _____ _____    ______ ____
ROOT
ATOM      1  C   UNL     1      34.747 -18.622 -21.840  0.00  0.00    -0.027 C 
ATOM      2  C   UNL     1      34.162 -17.344 -21.219  0.00  0.00    -0.020 C 
ATOM      3  C   UNL     1      36.256 -18.694 -21.566  0.00  0.00    -0.020 C 
ENDROOT
BRANCH   1   4
ATOM      4  N   UNL     1      34.558 -18.565 -23.286  0.00  0.00    +0.393 N 
ATOM      5  H   UNL     1      33.560 -18.493 -23.488  0.00  0.00    -0.084 HD
ATOM      6  H   UNL     1      34.947 -19.414 -23.696  0.00  0.00    -0.084 HD
BRANCH   4   7
ATOM      7  C   UNL     1      35.238 -17.426 -23.863  0.00  0.00    +0.006 C 
BRANCH   7  14
ATOM      8  O   UNL     1      33.773 -17.368 -25.739  0.00  0.00    -0.277 OA
ATOM      9  N   UNL     1      33.925 -15.447 -24.456  0.00  0.00    -0.270 N 
ATOM     10  C   UNL     1      32.901 -14.687 -25.177  0.00  0.00    +0.167 C 
ATOM     11  C   UNL     1      32.587 -13.519 -24.240  0.00  0.00    +0.037 C 
ATOM     12  C   UNL     1      33.910 -13.278 -23.518  0.00  0.00    +0.024 C 
ATOM     13  C   UNL     1      34.455 -14.685 -23.328  0.00  0.00    +0.094 C 
ATOM     14  C   UNL     1      34.243 -16.757 -24.777  0.00  0.00    +0.205 C 
BRANCH  10  16
ATOM     15  N   UNL     1      33.819 -13.850 -27.496  0.00  0.00    -0.194 NA
ATOM     16  C   UNL     1      33.414 -14.219 -26.473  0.00  0.00    +0.093 C 
ENDBRANCH  10  16
ENDBRANCH   7  14
ENDBRANCH   4   7
ENDBRANCH   1   4
BRANCH   1  17
ATOM     17  C   UNL     1      34.022 -19.879 -21.325  0.00  0.00    +0.070 C 
BRANCH  17  19
ATOM     18  O   UNL     1      33.073 -22.144 -19.761  0.00  0.00    -0.270 OA
ATOM     19  N   UNL     1      34.653 -20.479 -20.181  0.00  0.00    -0.303 N 
ATOM     20  C   UNL     1      34.120 -21.560 -19.499  0.00  0.00    +0.245 C 
ATOM     21  H   UNL     1      35.506 -20.101 -19.865  0.00  0.00    +0.150 HD
BRANCH  20  25
ATOM     22  N   UNL     1      35.250 -23.153 -16.325  0.00  0.00    -0.194 N 
ATOM     23  N   UNL     1      37.160 -21.982 -17.207  0.00  0.00    -0.232 NA
ATOM     24  N   UNL     1      34.898 -23.926 -15.264  0.00  0.00    -0.185 NA
ATOM     25  C   UNL     1      34.956 -21.989 -18.363  0.00  0.00    +0.072 C 
ATOM     26  C   UNL     1      34.447 -22.757 -17.391  0.00  0.00    +0.150 C 
ATOM     27  C   UNL     1      36.387 -21.628 -18.189  0.00  0.00    +0.102 C 
ATOM     28  C   UNL     1      36.589 -22.763 -16.247  0.00  0.00    +0.133 C 
ATOM     29  C   UNL     1      37.087 -23.315 -15.090  0.00  0.00    +0.106 C 
ATOM     30  C   UNL     1      36.008 -24.015 -14.531  0.00  0.00    +0.062 C 
ATOM     31  C   UNL     1      35.995 -24.793 -13.281  0.00  0.00    +0.049 C 
ENDBRANCH  20  25
ENDBRANCH  17  19
ENDBRANCH   1  17
TORSDOF 7
ENDMDL
MODEL 6
REMARK VINA RESULT:      -9.8      1.703      7.016
REMARK  Name = 44513473
REMARK  7 active torsions:
REMARK  status: ('A' for Active; 'I' for Inactive)
REMARK    1  A    between atoms: C_1  and  N_4
REMARK    2  A    between atoms: C_1  and  C_17
REMARK    3  A    between atoms: N_4  and  C_7
REMARK    4  A    between atoms: C_7  and  C_14
REMARK    5  A    between atoms: C_10  and  C_16
REMARK    6  A    between atoms: C_17  and  N_19
REMARK    7  A    between atoms: C_20  and  C_25
REMARK                            x       y       z     vdW  Elec       q    Type
REMARK                         _______ _______ _______ _____ _____    ______ ____
ROOT
ATOM      1  C   UNL     1      30.887 -23.439 -15.699  0.00  0.00    -0.027 C 
ATOM      2  C   UNL     1      30.103 -24.721 -15.378  0.00  0.00    -0.020 C 
ATOM      3  C   UNL     1      30.017 -22.486 -16.531  0.00  0.00    -0.020 C 
ENDROOT
BRANCH   1   4
ATOM      4  N   UNL     1      32.053 -23.796 -16.502  0.00  0.00    +0.393 N 
ATOM      5  H   UNL     1      31.898 -24.712 -16.923  0.00  0.00    -0.084 HD
ATOM      6  H   UNL     1      32.871 -23.812 -15.893  0.00  0.00    -0.084 HD
BRANCH   4   7
ATOM      7  C   UNL     1      32.285 -22.828 -17.552  0.00  0.00    +0.006 C 
BRANCH   7  14
ATOM      8  O   UNL     1      34.493 -23.666 -17.252  0.00  0.00    -0.277 OA
ATOM      9  N   UNL     1      34.203 -21.994 -18.825  0.00  0.00    -0.270 N 
ATOM     10  C   UNL     1      35.584 -21.984 -19.312  0.00  0.00    +0.167 C 
ATOM     11  C   UNL     1      35.504 -21.201 -20.624  0.00  0.00    +0.037 C 
ATOM     12  C   UNL     1      34.358 -20.223 -20.382  0.00  0.00    +0.024 C 
ATOM     13  C   UNL     1      33.373 -21.045 -19.565  0.00  0.00    +0.094 C 
ATOM     14  C   UNL     1      33.762 -22.879 -17.855  0.00  0.00    +0.205 C 
BRANCH  10  16
ATOM     15  N   UNL     1      37.178 -20.810 -17.578  0.00  0.00    -0.194 NA
ATOM     16  C   UNL     1      36.475 -21.327 -18.343  0.00  0.00    +0.093 C 
ENDBRANCH  10  16
ENDBRANCH   7  14
ENDBRANCH   4   7
ENDBRANCH   1   4
BRANCH   1  17
ATOM     17  C   UNL     1      31.398 -22.757 -14.416  0.00  0.00    +0.070 C 
BRANCH  17  19
ATOM     18  O   UNL     1      32.398 -25.076 -12.966  0.00  0.00    -0.270 OA
ATOM     19  N   UNL     1      32.766 -23.072 -14.103  0.00  0.00    -0.303 N 
ATOM     20  C   UNL     1      33.144 -24.205 -13.403  0.00  0.00    +0.245 C 
ATOM     21  H   UNL     1      33.469 -22.449 -14.400  0.00  0.00    +0.150 HD
BRANCH  20  25
ATOM     22  N   UNL     1      36.766 -24.864 -13.983  0.00  0.00    -0.194 N 
ATOM     23  N   UNL     1      36.595 -23.953 -11.761  0.00  0.00    -0.232 NA
ATOM     24  N   UNL     1      37.703 -25.322 -14.855  0.00  0.00    -0.185 NA
ATOM     25  C   UNL     1      34.602 -24.300 -13.211  0.00  0.00    +0.072 C 
ATOM     26  C   UNL     1      35.390 -24.781 -14.181  0.00  0.00    +0.150 C 
ATOM     27  C   UNL     1      35.315 -23.888 -11.974  0.00  0.00    +0.102 C 
ATOM     28  C   UNL     1      37.347 -24.451 -12.782  0.00  0.00    +0.133 C 
ATOM     29  C   UNL     1      38.700 -24.663 -12.914  0.00  0.00    +0.106 C 
ATOM     30  C   UNL     1      38.858 -25.196 -14.201  0.00  0.00    +0.062 C 
ATOM     31  C   UNL     1      40.113 -25.605 -14.854  0.00  0.00    +0.049 C 
ENDBRANCH  20  25
ENDBRANCH  17  19
ENDBRANCH   1  17
TORSDOF 7
ENDMDL
MODEL 7
REMARK VINA RESULT:      -9.7      3.597     10.701
REMARK  Name = 44513473
REMARK  7 active torsions:
REMARK  status: ('A' for Active; 'I' for Inactive)
REMARK    1  A    between atoms: C_1  and  N_4
REMARK    2  A    between atoms: C_1  and  C_17
REMARK    3  A    between atoms: N_4  and  C_7
REMARK    4  A    between atoms: C_7  and  C_14
REMARK    5  A    between atoms: C_10  and  C_16
REMARK    6  A    between atoms: C_17  and  N_19
REMARK    7  A    between atoms: C_20  and  C_25
REMARK                            x       y       z     vdW  Elec       q    Type
REMARK                         _______ _______ _______ _____ _____    ______ ____
ROOT
ATOM      1  C   UNL     1      34.937 -18.926 -21.987  0.00  0.00    -0.027 C 
ATOM      2  C   UNL     1      36.358 -18.949 -21.404  0.00  0.00    -0.020 C 
ATOM      3  C   UNL     1      34.961 -19.403 -23.446  0.00  0.00    -0.020 C 
ENDROOT
BRANCH   1   4
ATOM      4  N   UNL     1      34.451 -17.550 -21.974  0.00  0.00    +0.393 N 
ATOM      5  H   UNL     1      34.910 -17.042 -21.218  0.00  0.00    -0.084 HD
ATOM      6  H   UNL     1      33.441 -17.565 -21.836  0.00  0.00    -0.084 HD
BRANCH   4   7
ATOM      7  C   UNL     1      34.729 -16.881 -23.227  0.00  0.00    +0.006 C 
BRANCH   7  14
ATOM      8  O   UNL     1      34.971 -14.917 -21.904  0.00  0.00    -0.277 OA
ATOM      9  N   UNL     1      33.957 -14.680 -23.970  0.00  0.00    -0.270 N 
ATOM     10  C   UNL     1      33.818 -13.223 -23.920  0.00  0.00    +0.167 C 
ATOM     11  C   UNL     1      33.509 -12.835 -25.367  0.00  0.00    +0.037 C 
ATOM     12  C   UNL     1      32.756 -14.048 -25.905  0.00  0.00    +0.024 C 
ATOM     13  C   UNL     1      33.469 -15.215 -25.240  0.00  0.00    +0.094 C 
ATOM     14  C   UNL     1      34.572 -15.405 -22.962  0.00  0.00    +0.205 C 
BRANCH  10  16
ATOM     15  N   UNL     1      31.873 -12.525 -22.291  0.00  0.00    -0.194 NA
ATOM     16  C   UNL     1      32.731 -12.833 -23.009  0.00  0.00    +0.093 C 
ENDBRANCH  10  16
ENDBRANCH   7  14
ENDBRANCH   4   7
ENDBRANCH   1   4
BRANCH   1  17
ATOM     17  C   UNL     1      33.968 -19.768 -21.136  0.00  0.00    +0.070 C 
BRANCH  17  19
ATOM     18  O   UNL     1      33.141 -22.213 -19.788  0.00  0.00    -0.270 OA
ATOM     19  N   UNL     1      34.594 -20.401 -20.007  0.00  0.00    -0.303 N 
ATOM     20  C   UNL     1      34.123 -21.569 -19.433  0.00  0.00    +0.245 C 
ATOM     21  H   UNL     1      35.399 -19.982 -19.622  0.00  0.00    +0.150 HD
BRANCH  20  25
ATOM     22  N   UNL     1      35.193 -23.183 -16.247  0.00  0.00    -0.194 N 
ATOM     23  N   UNL     1      37.136 -22.058 -17.118  0.00  0.00    -0.232 NA
ATOM     24  N   UNL     1      34.814 -23.945 -15.188  0.00  0.00    -0.185 NA
ATOM     25  C   UNL     1      34.940 -22.016 -18.290  0.00  0.00    +0.072 C 
ATOM     26  C   UNL     1      34.406 -22.770 -17.321  0.00  0.00    +0.150 C 
ATOM     27  C   UNL     1      36.378 -21.688 -18.106  0.00  0.00    +0.102 C 
ATOM     28  C   UNL     1      36.539 -22.824 -16.160  0.00  0.00    +0.133 C 
ATOM     29  C   UNL     1      37.016 -23.386 -14.999  0.00  0.00    +0.106 C 
ATOM     30  C   UNL     1      35.916 -24.058 -14.447  0.00  0.00    +0.062 C 
ATOM     31  C   UNL     1      35.877 -24.833 -13.195  0.00  0.00    +0.049 C 
ENDBRANCH  20  25
ENDBRANCH  17  19
ENDBRANCH   1  17
TORSDOF 7
ENDMDL
MODEL 8
REMARK VINA RESULT:      -9.5      2.543      6.898
REMARK  Name = 44513473
REMARK  7 active torsions:
REMARK  status: ('A' for Active; 'I' for Inactive)
REMARK    1  A    between atoms: C_1  and  N_4
REMARK    2  A    between atoms: C_1  and  C_17
REMARK    3  A    between atoms: N_4  and  C_7
REMARK    4  A    between atoms: C_7  and  C_14
REMARK    5  A    between atoms: C_10  and  C_16
REMARK    6  A    between atoms: C_17  and  N_19
REMARK    7  A    between atoms: C_20  and  C_25
REMARK                            x       y       z     vdW  Elec       q    Type
REMARK                         _______ _______ _______ _____ _____    ______ ____
ROOT
ATOM      1  C   UNL     1      36.012 -24.371 -13.509  0.00  0.00    -0.027 C 
ATOM      2  C   UNL     1      36.920 -23.161 -13.242  0.00  0.00    -0.020 C 
ATOM      3  C   UNL     1      36.784 -25.673 -13.249  0.00  0.00    -0.020 C 
ENDROOT
BRANCH   1   4
ATOM      4  N   UNL     1      35.619 -24.356 -14.914  0.00  0.00    +0.393 N 
ATOM      5  H   UNL     1      34.660 -24.694 -14.994  0.00  0.00    -0.084 HD
ATOM      6  H   UNL     1      36.257 -24.958 -15.434  0.00  0.00    -0.084 HD
BRANCH   4   7
ATOM      7  C   UNL     1      35.695 -23.022 -15.469  0.00  0.00    +0.006 C 
BRANCH   7  14
ATOM      8  O   UNL     1      33.604 -23.487 -16.507  0.00  0.00    -0.277 OA
ATOM      9  N   UNL     1      35.190 -22.379 -17.777  0.00  0.00    -0.270 N 
ATOM     10  C   UNL     1      34.343 -22.169 -18.953  0.00  0.00    +0.167 C 
ATOM     11  C   UNL     1      35.098 -21.115 -19.764  0.00  0.00    +0.037 C 
ATOM     12  C   UNL     1      36.561 -21.393 -19.430  0.00  0.00    +0.024 C 
ATOM     13  C   UNL     1      36.508 -21.775 -17.959  0.00  0.00    +0.094 C 
ATOM     14  C   UNL     1      34.724 -22.988 -16.622  0.00  0.00    +0.205 C 
BRANCH  10  16
ATOM     15  N   UNL     1      34.050 -24.408 -20.305  0.00  0.00    -0.194 NA
ATOM     16  C   UNL     1      34.179 -23.421 -19.708  0.00  0.00    +0.093 C 
ENDBRANCH  10  16
ENDBRANCH   7  14
ENDBRANCH   4   7
ENDBRANCH   1   4
BRANCH   1  17
ATOM     17  C   UNL     1      34.725 -24.303 -12.665  0.00  0.00    +0.070 C 
BRANCH  17  19
ATOM     18  O   UNL     1      32.342 -22.657 -12.369  0.00  0.00    -0.270 OA
ATOM     19  N   UNL     1      33.521 -24.357 -13.449  0.00  0.00    -0.303 N 
ATOM     20  C   UNL     1      32.434 -23.527 -13.229  0.00  0.00    +0.245 C 
ATOM     21  H   UNL     1      33.465 -25.017 -14.178  0.00  0.00    +0.150 HD
BRANCH  20  25
ATOM     22  N   UNL     1      29.601 -23.014 -15.596  0.00  0.00    -0.194 N 
ATOM     23  N   UNL     1      29.890 -25.396 -15.398  0.00  0.00    -0.232 NA
ATOM     24  N   UNL     1      28.819 -22.106 -16.238  0.00  0.00    -0.185 NA
ATOM     25  C   UNL     1      31.323 -23.777 -14.166  0.00  0.00    +0.072 C 
ATOM     26  C   UNL     1      30.649 -22.759 -14.714  0.00  0.00    +0.150 C 
ATOM     27  C   UNL     1      30.861 -25.128 -14.578  0.00  0.00    +0.102 C 
ATOM     28  C   UNL     1      29.238 -24.321 -15.925  0.00  0.00    +0.133 C 
ATOM     29  C   UNL     1      28.186 -24.221 -16.806  0.00  0.00    +0.106 C 
ATOM     30  C   UNL     1      27.975 -22.843 -16.959  0.00  0.00    +0.062 C 
ATOM     31  C   UNL     1      26.961 -22.180 -17.797  0.00  0.00    +0.049 C 
ENDBRANCH  20  25
ENDBRANCH  17  19
ENDBRANCH   1  17
TORSDOF 7
ENDMDL
MODEL 9
REMARK VINA RESULT:      -9.5      8.248     12.941
REMARK  Name = 44513473
REMARK  7 active torsions:
REMARK  status: ('A' for Active; 'I' for Inactive)
REMARK    1  A    between atoms: C_1  and  N_4
REMARK    2  A    between atoms: C_1  and  C_17
REMARK    3  A    between atoms: N_4  and  C_7
REMARK    4  A    between atoms: C_7  and  C_14
REMARK    5  A    between atoms: C_10  and  C_16
REMARK    6  A    between atoms: C_17  and  N_19
REMARK    7  A    between atoms: C_20  and  C_25
REMARK                            x       y       z     vdW  Elec       q    Type
REMARK                         _______ _______ _______ _____ _____    ______ ____
ROOT
ATOM      1  C   UNL     1      33.395 -13.420 -23.801  0.00  0.00    -0.027 C 
ATOM      2  C   UNL     1      32.969 -14.522 -24.782  0.00  0.00    -0.020 C 
ATOM      3  C   UNL     1      33.894 -12.192 -24.577  0.00  0.00    -0.020 C 
ENDROOT
BRANCH   1   4
ATOM      4  N   UNL     1      34.503 -13.919 -22.993  0.00  0.00    +0.393 N 
ATOM      5  H   UNL     1      34.812 -13.180 -22.361  0.00  0.00    -0.084 HD
ATOM      6  H   UNL     1      35.259 -14.197 -23.618  0.00  0.00    -0.084 HD
BRANCH   4   7
ATOM      7  C   UNL     1      34.109 -15.072 -22.213  0.00  0.00    +0.006 C 
BRANCH   7  14
ATOM      8  O   UNL     1      35.745 -16.060 -23.632  0.00  0.00    -0.277 OA
ATOM      9  N   UNL     1      34.643 -17.461 -22.155  0.00  0.00    -0.270 N 
ATOM     10  C   UNL     1      35.405 -18.670 -22.474  0.00  0.00    +0.167 C 
ATOM     11  C   UNL     1      35.075 -19.624 -21.325  0.00  0.00    +0.037 C 
ATOM     12  C   UNL     1      33.657 -19.224 -20.929  0.00  0.00    +0.024 C 
ATOM     13  C   UNL     1      33.670 -17.712 -21.094  0.00  0.00    +0.094 C 
ATOM     14  C   UNL     1      34.915 -16.233 -22.738  0.00  0.00    +0.205 C 
BRANCH  10  16
ATOM     15  N   UNL     1      34.661 -19.657 -24.797  0.00  0.00    -0.194 NA
ATOM     16  C   UNL     1      34.989 -19.222 -23.773  0.00  0.00    +0.093 C 
ENDBRANCH  10  16
ENDBRANCH   7  14
ENDBRANCH   4   7
ENDBRANCH   1   4
BRANCH   1  17
ATOM     17  C   UNL     1      32.250 -13.050 -22.841  0.00  0.00    +0.070 C 
BRANCH  17  19
ATOM     18  O   UNL     1      31.497 -11.827 -20.307  0.00  0.00    -0.270 OA
ATOM     19  N   UNL     1      32.192 -11.647 -22.527  0.00  0.00    -0.303 N 
ATOM     20  C   UNL     1      31.819 -11.161 -21.286  0.00  0.00    +0.245 C 
ATOM     21  H   UNL     1      32.429 -11.001 -23.232  0.00  0.00    +0.150 HD
BRANCH  20  25
ATOM     22  N   UNL     1      31.581  -7.559 -22.215  0.00  0.00    -0.194 N 
ATOM     23  N   UNL     1      32.199  -7.615 -19.888  0.00  0.00    -0.232 NA
ATOM     24  N   UNL     1      31.320  -6.666 -23.206  0.00  0.00    -0.185 NA
ATOM     25  C   UNL     1      31.841  -9.688 -21.217  0.00  0.00    +0.072 C 
ATOM     26  C   UNL     1      31.556  -8.950 -22.297  0.00  0.00    +0.150 C 
ATOM     27  C   UNL     1      32.168  -8.909 -19.995  0.00  0.00    +0.102 C 
ATOM     28  C   UNL     1      31.901  -6.914 -21.019  0.00  0.00    +0.133 C 
ATOM     29  C   UNL     1      31.835  -5.564 -21.278  0.00  0.00    +0.106 C 
ATOM     30  C   UNL     1      31.476  -5.474 -22.630  0.00  0.00    +0.062 C 
ATOM     31  C   UNL     1      31.269  -4.249 -23.422  0.00  0.00    +0.049 C 
ENDBRANCH  20  25
ENDBRANCH  17  19
ENDBRANCH   1  17
TORSDOF 7
ENDMDL
