MODEL 1
REMARK VINA RESULT:      -8.7      0.000      0.000
REMARK  Name = 5289085
REMARK  6 active torsions:
REMARK  status: ('A' for Active; 'I' for Inactive)
REMARK    1  A    between atoms: C_1  and  C_7
REMARK    2  A    between atoms: C_2  and  C_15
REMARK    3  A    between atoms: C_7  and  C_12
REMARK    4  A    between atoms: C_8  and  O_9
REMARK    5  A    between atoms: C_12  and  O_13
REMARK    6  A    between atoms: C_16  and  C_17
REMARK                            x       y       z     vdW  Elec       q    Type
REMARK                         _______ _______ _______ _____ _____    ______ ____
ROOT
ATOM      1  C   UNL     1      36.560 -23.762 -15.408  0.00  0.00    +0.009 C 
ATOM      2  C   UNL     1      35.415 -23.292 -16.035  0.00  0.00    +0.000 C 
ATOM      3  C   UNL     1      37.800 -23.192 -15.666  0.00  0.00    +0.000 C 
ATOM      4  C   UNL     1      35.509 -22.231 -16.935  0.00  0.00    +0.000 C 
ATOM      5  C   UNL     1      37.895 -22.131 -16.566  0.00  0.00    +0.000 C 
ATOM      6  C   UNL     1      36.750 -21.651 -17.202  0.00  0.00    +0.000 C 
ENDROOT
BRANCH   1   7
ATOM      7  C   UNL     1      36.510 -24.880 -14.451  0.00  0.00    +0.113 C 
ATOM      8  C   UNL     1      36.198 -24.669 -13.163  0.00  0.00    +0.179 C 
BRANCH   8   9
ATOM      9  O   UNL     1      35.905 -23.440 -12.631  0.00  0.00    -0.468 OA
ATOM     10  C   UNL     1      36.911 -23.024 -11.722  0.00  0.00    +0.253 C 
ENDBRANCH   8   9
BRANCH   7  12
ATOM     11  O   UNL     1      36.164 -26.897 -15.718  0.00  0.00    -0.245 OA
ATOM     12  C   UNL     1      36.779 -26.292 -14.852  0.00  0.00    +0.344 C 
BRANCH  12  13
ATOM     13  O   UNL     1      37.799 -26.793 -14.101  0.00  0.00    -0.441 OA
ATOM     14  C   UNL     1      39.093 -26.241 -14.365  0.00  0.00    +0.256 C 
ENDBRANCH  12  13
ENDBRANCH   7  12
ENDBRANCH   1   7
BRANCH   2  15
ATOM     15  C   UNL     1      34.098 -23.870 -15.787  0.00  0.00    +0.000 C 
ATOM     16  C   UNL     1      32.956 -23.162 -15.630  0.00  0.00    +0.000 C 
BRANCH  16  17
ATOM     17  C   UNL     1      31.623 -23.746 -15.400  0.00  0.00    +0.000 C 
ATOM     18  C   UNL     1      30.549 -23.301 -16.153  0.00  0.00    +0.000 C 
ATOM     19  C   UNL     1      31.472 -24.728 -14.434  0.00  0.00    +0.000 C 
ATOM     20  C   UNL     1      29.287 -23.854 -15.934  0.00  0.00    +0.000 C 
ATOM     21  C   UNL     1      30.209 -25.282 -14.217  0.00  0.00    +0.000 C 
ATOM     22  C   UNL     1      29.117 -24.844 -14.966  0.00  0.00    +0.000 C 
ENDBRANCH  16  17
ENDBRANCH   2  15
TORSDOF 6
ENDMDL
MODEL 2
REMARK VINA RESULT:      -8.6      2.076      4.970
REMARK  Name = 5289085
REMARK  6 active torsions:
REMARK  status: ('A' for Active; 'I' for Inactive)
REMARK    1  A    between atoms: C_1  and  C_7
REMARK    2  A    between atoms: C_2  and  C_15
REMARK    3  A    between atoms: C_7  and  C_12
REMARK    4  A    between atoms: C_8  and  O_9
REMARK    5  A    between atoms: C_12  and  O_13
REMARK    6  A    between atoms: C_16  and  C_17
REMARK                            x       y       z     vdW  Elec       q    Type
REMARK                         _______ _______ _______ _____ _____    ______ ____
ROOT
ATOM      1  C   UNL     1      33.442 -24.353 -14.435  0.00  0.00    +0.009 C 
ATOM      2  C   UNL     1      32.837 -23.640 -15.459  0.00  0.00    +0.000 C 
ATOM      3  C   UNL     1      32.685 -25.085 -13.529  0.00  0.00    +0.000 C 
ATOM      4  C   UNL     1      31.448 -23.659 -15.583  0.00  0.00    +0.000 C 
ATOM      5  C   UNL     1      31.296 -25.103 -13.653  0.00  0.00    +0.000 C 
ATOM      6  C   UNL     1      30.677 -24.390 -14.679  0.00  0.00    +0.000 C 
ENDROOT
BRANCH   1   7
ATOM      7  C   UNL     1      34.905 -24.362 -14.263  0.00  0.00    +0.113 C 
ATOM      8  C   UNL     1      35.460 -24.061 -13.078  0.00  0.00    +0.179 C 
BRANCH   8   9
ATOM      9  O   UNL     1      34.749 -23.729 -11.954  0.00  0.00    -0.468 OA
ATOM     10  C   UNL     1      35.369 -24.243 -10.787  0.00  0.00    +0.253 C 
ENDBRANCH   8   9
BRANCH   7  12
ATOM     11  O   UNL     1      36.586 -23.928 -15.929  0.00  0.00    -0.245 OA
ATOM     12  C   UNL     1      35.841 -24.719 -15.369  0.00  0.00    +0.344 C 
BRANCH  12  13
ATOM     13  O   UNL     1      35.724 -26.045 -15.656  0.00  0.00    -0.441 OA
ATOM     14  C   UNL     1      36.843 -26.860 -15.291  0.00  0.00    +0.256 C 
ENDBRANCH  12  13
ENDBRANCH   7  12
ENDBRANCH   1   7
BRANCH   2  15
ATOM     15  C   UNL     1      33.604 -22.861 -16.426  0.00  0.00    +0.000 C 
ATOM     16  C   UNL     1      33.335 -22.782 -17.749  0.00  0.00    +0.000 C 
BRANCH  16  17
ATOM     17  C   UNL     1      34.097 -21.980 -18.721  0.00  0.00    +0.000 C 
ATOM     18  C   UNL     1      33.415 -21.180 -19.624  0.00  0.00    +0.000 C 
ATOM     19  C   UNL     1      35.481 -22.041 -18.713  0.00  0.00    +0.000 C 
ATOM     20  C   UNL     1      34.138 -20.420 -20.544  0.00  0.00    +0.000 C 
ATOM     21  C   UNL     1      36.204 -21.281 -19.634  0.00  0.00    +0.000 C 
ATOM     22  C   UNL     1      35.531 -20.471 -20.550  0.00  0.00    +0.000 C 
ENDBRANCH  16  17
ENDBRANCH   2  15
TORSDOF 6
ENDMDL
MODEL 3
REMARK VINA RESULT:      -8.6      0.985      2.448
REMARK  Name = 5289085
REMARK  6 active torsions:
REMARK  status: ('A' for Active; 'I' for Inactive)
REMARK    1  A    between atoms: C_1  and  C_7
REMARK    2  A    between atoms: C_2  and  C_15
REMARK    3  A    between atoms: C_7  and  C_12
REMARK    4  A    between atoms: C_8  and  O_9
REMARK    5  A    between atoms: C_12  and  O_13
REMARK    6  A    between atoms: C_16  and  C_17
REMARK                            x       y       z     vdW  Elec       q    Type
REMARK                         _______ _______ _______ _____ _____    ______ ____
ROOT
ATOM      1  C   UNL     1      35.905 -23.481 -15.464  0.00  0.00    +0.009 C 
ATOM      2  C   UNL     1      34.972 -23.116 -16.423  0.00  0.00    +0.000 C 
ATOM      3  C   UNL     1      37.213 -23.016 -15.526  0.00  0.00    +0.000 C 
ATOM      4  C   UNL     1      35.350 -22.268 -17.463  0.00  0.00    +0.000 C 
ATOM      5  C   UNL     1      37.592 -22.169 -16.567  0.00  0.00    +0.000 C 
ATOM      6  C   UNL     1      36.661 -21.795 -17.536  0.00  0.00    +0.000 C 
ENDROOT
BRANCH   1   7
ATOM      7  C   UNL     1      35.553 -24.375 -14.348  0.00  0.00    +0.113 C 
ATOM      8  C   UNL     1      35.658 -25.708 -14.475  0.00  0.00    +0.179 C 
BRANCH   8   9
ATOM      9  O   UNL     1      36.087 -26.344 -15.611  0.00  0.00    -0.468 OA
ATOM     10  C   UNL     1      37.334 -26.983 -15.397  0.00  0.00    +0.253 C 
ENDBRANCH   8   9
BRANCH   7  12
ATOM     11  O   UNL     1      33.961 -24.031 -12.576  0.00  0.00    -0.245 OA
ATOM     12  C   UNL     1      35.085 -23.863 -13.027  0.00  0.00    +0.344 C 
BRANCH  12  13
ATOM     13  O   UNL     1      36.096 -23.182 -12.418  0.00  0.00    -0.441 OA
ATOM     14  C   UNL     1      36.725 -23.853 -11.322  0.00  0.00    +0.256 C 
ENDBRANCH  12  13
ENDBRANCH   7  12
ENDBRANCH   1   7
BRANCH   2  15
ATOM     15  C   UNL     1      33.592 -23.587 -16.386  0.00  0.00    +0.000 C 
ATOM     16  C   UNL     1      32.597 -23.025 -15.662  0.00  0.00    +0.000 C 
BRANCH  16  17
ATOM     17  C   UNL     1      31.199 -23.489 -15.641  0.00  0.00    +0.000 C 
ATOM     18  C   UNL     1      30.257 -22.840 -16.423  0.00  0.00    +0.000 C 
ATOM     19  C   UNL     1      30.855 -24.566 -14.840  0.00  0.00    +0.000 C 
ATOM     20  C   UNL     1      28.933 -23.280 -16.403  0.00  0.00    +0.000 C 
ATOM     21  C   UNL     1      29.530 -25.006 -14.821  0.00  0.00    +0.000 C 
ATOM     22  C   UNL     1      28.570 -24.362 -15.601  0.00  0.00    +0.000 C 
ENDBRANCH  16  17
ENDBRANCH   2  15
TORSDOF 6
ENDMDL
MODEL 4
REMARK VINA RESULT:      -8.2      2.105      5.377
REMARK  Name = 5289085
REMARK  6 active torsions:
REMARK  status: ('A' for Active; 'I' for Inactive)
REMARK    1  A    between atoms: C_1  and  C_7
REMARK    2  A    between atoms: C_2  and  C_15
REMARK    3  A    between atoms: C_7  and  C_12
REMARK    4  A    between atoms: C_8  and  O_9
REMARK    5  A    between atoms: C_12  and  O_13
REMARK    6  A    between atoms: C_16  and  C_17
REMARK                            x       y       z     vdW  Elec       q    Type
REMARK                         _______ _______ _______ _____ _____    ______ ____
ROOT
ATOM      1  C   UNL     1      34.175 -24.240 -14.655  0.00  0.00    +0.009 C 
ATOM      2  C   UNL     1      33.501 -23.576 -15.670  0.00  0.00    +0.000 C 
ATOM      3  C   UNL     1      33.481 -24.938 -13.674  0.00  0.00    +0.000 C 
ATOM      4  C   UNL     1      32.108 -23.610 -15.707  0.00  0.00    +0.000 C 
ATOM      5  C   UNL     1      32.087 -24.971 -13.711  0.00  0.00    +0.000 C 
ATOM      6  C   UNL     1      31.400 -24.307 -14.727  0.00  0.00    +0.000 C 
ENDROOT
BRANCH   1   7
ATOM      7  C   UNL     1      35.645 -24.232 -14.573  0.00  0.00    +0.113 C 
ATOM      8  C   UNL     1      36.369 -25.232 -15.102  0.00  0.00    +0.179 C 
BRANCH   8   9
ATOM      9  O   UNL     1      35.832 -26.317 -15.746  0.00  0.00    -0.468 OA
ATOM     10  C   UNL     1      36.750 -27.397 -15.777  0.00  0.00    +0.253 C 
ENDBRANCH   8   9
BRANCH   7  12
ATOM     11  O   UNL     1      37.190 -22.388 -14.512  0.00  0.00    -0.245 OA
ATOM     12  C   UNL     1      36.407 -23.124 -13.927  0.00  0.00    +0.344 C 
BRANCH  12  13
ATOM     13  O   UNL     1      36.101 -23.072 -12.601  0.00  0.00    -0.441 OA
ATOM     14  C   UNL     1      37.218 -23.054 -11.707  0.00  0.00    +0.256 C 
ENDBRANCH  12  13
ENDBRANCH   7  12
ENDBRANCH   1   7
BRANCH   2  15
ATOM     15  C   UNL     1      34.201 -22.835 -16.714  0.00  0.00    +0.000 C 
ATOM     16  C   UNL     1      33.675 -22.501 -17.914  0.00  0.00    +0.000 C 
BRANCH  16  17
ATOM     17  C   UNL     1      34.374 -21.735 -18.961  0.00  0.00    +0.000 C 
ATOM     18  C   UNL     1      33.636 -20.959 -19.841  0.00  0.00    +0.000 C 
ATOM     19  C   UNL     1      35.755 -21.805 -19.044  0.00  0.00    +0.000 C 
ATOM     20  C   UNL     1      34.299 -20.234 -20.831  0.00  0.00    +0.000 C 
ATOM     21  C   UNL     1      36.417 -21.079 -20.035  0.00  0.00    +0.000 C 
ATOM     22  C   UNL     1      35.689 -20.294 -20.929  0.00  0.00    +0.000 C 
ENDBRANCH  16  17
ENDBRANCH   2  15
TORSDOF 6
ENDMDL
MODEL 5
REMARK VINA RESULT:      -8.0     13.581     16.147
REMARK  Name = 5289085
REMARK  6 active torsions:
REMARK  status: ('A' for Active; 'I' for Inactive)
REMARK    1  A    between atoms: C_1  and  C_7
REMARK    2  A    between atoms: C_2  and  C_15
REMARK    3  A    between atoms: C_7  and  C_12
REMARK    4  A    between atoms: C_8  and  O_9
REMARK    5  A    between atoms: C_12  and  O_13
REMARK    6  A    between atoms: C_16  and  C_17
REMARK                            x       y       z     vdW  Elec       q    Type
REMARK                         _______ _______ _______ _____ _____    ______ ____
ROOT
ATOM      1  C   UNL     1      32.291  -9.911 -21.911  0.00  0.00    +0.009 C 
ATOM      2  C   UNL     1      32.087 -11.268 -21.710  0.00  0.00    +0.000 C 
ATOM      3  C   UNL     1      32.099  -8.999 -20.880  0.00  0.00    +0.000 C 
ATOM      4  C   UNL     1      31.686 -11.725 -20.455  0.00  0.00    +0.000 C 
ATOM      5  C   UNL     1      31.697  -9.456 -19.625  0.00  0.00    +0.000 C 
ATOM      6  C   UNL     1      31.490 -10.819 -19.413  0.00  0.00    +0.000 C 
ENDROOT
BRANCH   1   7
ATOM      7  C   UNL     1      32.714  -9.381 -23.218  0.00  0.00    +0.113 C 
ATOM      8  C   UNL     1      31.912  -8.566 -23.921  0.00  0.00    +0.179 C 
BRANCH   8   9
ATOM      9  O   UNL     1      30.669  -8.161 -23.509  0.00  0.00    -0.468 OA
ATOM     10  C   UNL     1      30.642  -6.765 -23.264  0.00  0.00    +0.253 C 
ENDBRANCH   8   9
BRANCH   7  12
ATOM     11  O   UNL     1      35.096  -9.172 -23.488  0.00  0.00    -0.245 OA
ATOM     12  C   UNL     1      34.042  -9.696 -23.820  0.00  0.00    +0.344 C 
BRANCH  12  13
ATOM     13  O   UNL     1      33.891 -10.639 -24.791  0.00  0.00    -0.441 OA
ATOM     14  C   UNL     1      34.981 -10.765 -25.709  0.00  0.00    +0.256 C 
ENDBRANCH  12  13
ENDBRANCH   7  12
ENDBRANCH   1   7
BRANCH   2  15
ATOM     15  C   UNL     1      32.279 -12.250 -22.772  0.00  0.00    +0.000 C 
ATOM     16  C   UNL     1      33.190 -13.250 -22.750  0.00  0.00    +0.000 C 
BRANCH  16  17
ATOM     17  C   UNL     1      33.370 -14.254 -23.813  0.00  0.00    +0.000 C 
ATOM     18  C   UNL     1      34.073 -15.415 -23.537  0.00  0.00    +0.000 C 
ATOM     19  C   UNL     1      32.832 -14.016 -25.068  0.00  0.00    +0.000 C 
ATOM     20  C   UNL     1      34.243 -16.366 -24.544  0.00  0.00    +0.000 C 
ATOM     21  C   UNL     1      33.003 -14.967 -26.075  0.00  0.00    +0.000 C 
ATOM     22  C   UNL     1      33.709 -16.142 -25.812  0.00  0.00    +0.000 C 
ENDBRANCH  16  17
ENDBRANCH   2  15
TORSDOF 6
ENDMDL
MODEL 6
REMARK VINA RESULT:      -7.7     11.943     14.713
REMARK  Name = 5289085
REMARK  6 active torsions:
REMARK  status: ('A' for Active; 'I' for Inactive)
REMARK    1  A    between atoms: C_1  and  C_7
REMARK    2  A    between atoms: C_2  and  C_15
REMARK    3  A    between atoms: C_7  and  C_12
REMARK    4  A    between atoms: C_8  and  O_9
REMARK    5  A    between atoms: C_12  and  O_13
REMARK    6  A    between atoms: C_16  and  C_17
REMARK                            x       y       z     vdW  Elec       q    Type
REMARK                         _______ _______ _______ _____ _____    ______ ____
ROOT
ATOM      1  C   UNL     1      32.846 -11.765 -23.363  0.00  0.00    +0.009 C 
ATOM      2  C   UNL     1      32.886 -12.782 -22.420  0.00  0.00    +0.000 C 
ATOM      3  C   UNL     1      32.012 -10.667 -23.195  0.00  0.00    +0.000 C 
ATOM      4  C   UNL     1      32.079 -12.700 -21.286  0.00  0.00    +0.000 C 
ATOM      5  C   UNL     1      31.205 -10.585 -22.061  0.00  0.00    +0.000 C 
ATOM      6  C   UNL     1      31.237 -11.602 -21.107  0.00  0.00    +0.000 C 
ENDROOT
BRANCH   1   7
ATOM      7  C   UNL     1      33.679 -11.808 -24.577  0.00  0.00    +0.113 C 
ATOM      8  C   UNL     1      33.525 -12.788 -25.482  0.00  0.00    +0.179 C 
BRANCH   8   9
ATOM      9  O   UNL     1      32.613 -13.805 -25.372  0.00  0.00    -0.468 OA
ATOM     10  C   UNL     1      32.927 -14.870 -26.254  0.00  0.00    +0.253 C 
ENDBRANCH   8   9
BRANCH   7  12
ATOM     11  O   UNL     1      35.304 -10.676 -25.943  0.00  0.00    -0.245 OA
ATOM     12  C   UNL     1      34.712 -10.774 -24.878  0.00  0.00    +0.344 C 
BRANCH  12  13
ATOM     13  O   UNL     1      34.892  -9.978 -23.788  0.00  0.00    -0.441 OA
ATOM     14  C   UNL     1      34.804  -8.570 -24.027  0.00  0.00    +0.256 C 
ENDBRANCH  12  13
ENDBRANCH   7  12
ENDBRANCH   1   7
BRANCH   2  15
ATOM     15  C   UNL     1      33.749 -13.949 -22.568  0.00  0.00    +0.000 C 
ATOM     16  C   UNL     1      33.474 -15.184 -22.093  0.00  0.00    +0.000 C 
BRANCH  16  17
ATOM     17  C   UNL     1      34.337 -16.367 -22.259  0.00  0.00    +0.000 C 
ATOM     18  C   UNL     1      34.610 -16.833 -23.535  0.00  0.00    +0.000 C 
ATOM     19  C   UNL     1      34.859 -16.988 -21.136  0.00  0.00    +0.000 C 
ATOM     20  C   UNL     1      35.427 -17.953 -23.692  0.00  0.00    +0.000 C 
ATOM     21  C   UNL     1      35.677 -18.108 -21.294  0.00  0.00    +0.000 C 
ATOM     22  C   UNL     1      35.960 -18.590 -22.572  0.00  0.00    +0.000 C 
ENDBRANCH  16  17
ENDBRANCH   2  15
TORSDOF 6
ENDMDL
MODEL 7
REMARK VINA RESULT:      -7.5     11.752     14.443
REMARK  Name = 5289085
REMARK  6 active torsions:
REMARK  status: ('A' for Active; 'I' for Inactive)
REMARK    1  A    between atoms: C_1  and  C_7
REMARK    2  A    between atoms: C_2  and  C_15
REMARK    3  A    between atoms: C_7  and  C_12
REMARK    4  A    between atoms: C_8  and  O_9
REMARK    5  A    between atoms: C_12  and  O_13
REMARK    6  A    between atoms: C_16  and  C_17
REMARK                            x       y       z     vdW  Elec       q    Type
REMARK                         _______ _______ _______ _____ _____    ______ ____
ROOT
ATOM      1  C   UNL     1      32.718 -11.931 -22.908  0.00  0.00    +0.009 C 
ATOM      2  C   UNL     1      32.879 -12.951 -21.982  0.00  0.00    +0.000 C 
ATOM      3  C   UNL     1      31.881 -10.853 -22.646  0.00  0.00    +0.000 C 
ATOM      4  C   UNL     1      32.191 -12.895 -20.770  0.00  0.00    +0.000 C 
ATOM      5  C   UNL     1      31.192 -10.798 -21.435  0.00  0.00    +0.000 C 
ATOM      6  C   UNL     1      31.346 -11.819 -20.497  0.00  0.00    +0.000 C 
ENDROOT
BRANCH   1   7
ATOM      7  C   UNL     1      33.423 -11.947 -24.201  0.00  0.00    +0.113 C 
ATOM      8  C   UNL     1      34.368 -11.035 -24.479  0.00  0.00    +0.179 C 
BRANCH   8   9
ATOM      9  O   UNL     1      34.757 -10.038 -23.622  0.00  0.00    -0.468 OA
ATOM     10  C   UNL     1      34.663  -8.766 -24.242  0.00  0.00    +0.253 C 
ENDBRANCH   8   9
BRANCH   7  12
ATOM     11  O   UNL     1      32.641 -14.061 -25.041  0.00  0.00    -0.245 OA
ATOM     12  C   UNL     1      33.148 -12.969 -25.252  0.00  0.00    +0.344 C 
BRANCH  12  13
ATOM     13  O   UNL     1      33.557 -12.499 -26.463  0.00  0.00    -0.441 OA
ATOM     14  C   UNL     1      33.582 -13.458 -27.525  0.00  0.00    +0.256 C 
ENDBRANCH  12  13
ENDBRANCH   7  12
ENDBRANCH   1   7
BRANCH   2  15
ATOM     15  C   UNL     1      33.750 -14.096 -22.227  0.00  0.00    +0.000 C 
ATOM     16  C   UNL     1      33.506 -15.360 -21.814  0.00  0.00    +0.000 C 
BRANCH  16  17
ATOM     17  C   UNL     1      34.376 -16.519 -22.079  0.00  0.00    +0.000 C 
ATOM     18  C   UNL     1      34.956 -17.189 -21.013  0.00  0.00    +0.000 C 
ATOM     19  C   UNL     1      34.596 -16.917 -23.388  0.00  0.00    +0.000 C 
ATOM     20  C   UNL     1      35.780 -18.287 -21.264  0.00  0.00    +0.000 C 
ATOM     21  C   UNL     1      35.420 -18.015 -23.638  0.00  0.00    +0.000 C 
ATOM     22  C   UNL     1      36.012 -18.699 -22.576  0.00  0.00    +0.000 C 
ENDBRANCH  16  17
ENDBRANCH   2  15
TORSDOF 6
ENDMDL
MODEL 8
REMARK VINA RESULT:      -7.5      9.793     12.225
REMARK  Name = 5289085
REMARK  6 active torsions:
REMARK  status: ('A' for Active; 'I' for Inactive)
REMARK    1  A    between atoms: C_1  and  C_7
REMARK    2  A    between atoms: C_2  and  C_15
REMARK    3  A    between atoms: C_7  and  C_12
REMARK    4  A    between atoms: C_8  and  O_9
REMARK    5  A    between atoms: C_12  and  O_13
REMARK    6  A    between atoms: C_16  and  C_17
REMARK                            x       y       z     vdW  Elec       q    Type
REMARK                         _______ _______ _______ _____ _____    ______ ____
ROOT
ATOM      1  C   UNL     1      33.304 -14.507 -23.580  0.00  0.00    +0.009 C 
ATOM      2  C   UNL     1      32.984 -15.053 -22.346  0.00  0.00    +0.000 C 
ATOM      3  C   UNL     1      33.147 -13.148 -23.824  0.00  0.00    +0.000 C 
ATOM      4  C   UNL     1      32.498 -14.226 -21.334  0.00  0.00    +0.000 C 
ATOM      5  C   UNL     1      32.661 -12.321 -22.812  0.00  0.00    +0.000 C 
ATOM      6  C   UNL     1      32.336 -12.860 -21.567  0.00  0.00    +0.000 C 
ENDROOT
BRANCH   1   7
ATOM      7  C   UNL     1      33.819 -15.341 -24.680  0.00  0.00    +0.113 C 
ATOM      8  C   UNL     1      33.344 -15.201 -25.928  0.00  0.00    +0.179 C 
BRANCH   8   9
ATOM      9  O   UNL     1      32.373 -14.305 -26.290  0.00  0.00    -0.468 OA
ATOM     10  C   UNL     1      32.829 -13.445 -27.320  0.00  0.00    +0.253 C 
ENDBRANCH   8   9
BRANCH   7  12
ATOM     11  O   UNL     1      35.833 -16.232 -23.710  0.00  0.00    -0.245 OA
ATOM     12  C   UNL     1      34.893 -16.358 -24.481  0.00  0.00    +0.344 C 
BRANCH  12  13
ATOM     13  O   UNL     1      34.663 -17.427 -25.293  0.00  0.00    -0.441 OA
ATOM     14  C   UNL     1      34.565 -18.695 -24.636  0.00  0.00    +0.256 C 
ENDBRANCH  12  13
ENDBRANCH   7  12
ENDBRANCH   1   7
BRANCH   2  15
ATOM     15  C   UNL     1      33.137 -16.475 -22.059  0.00  0.00    +0.000 C 
ATOM     16  C   UNL     1      34.052 -17.003 -21.216  0.00  0.00    +0.000 C 
BRANCH  16  17
ATOM     17  C   UNL     1      34.194 -18.438 -20.911  0.00  0.00    +0.000 C 
ATOM     18  C   UNL     1      33.059 -19.195 -20.671  0.00  0.00    +0.000 C 
ATOM     19  C   UNL     1      35.459 -19.001 -20.871  0.00  0.00    +0.000 C 
ATOM     20  C   UNL     1      33.193 -20.554 -20.382  0.00  0.00    +0.000 C 
ATOM     21  C   UNL     1      35.593 -20.359 -20.582  0.00  0.00    +0.000 C 
ATOM     22  C   UNL     1      34.460 -21.135 -20.337  0.00  0.00    +0.000 C 
ENDBRANCH  16  17
ENDBRANCH   2  15
TORSDOF 6
ENDMDL
MODEL 9
REMARK VINA RESULT:      -7.4      3.248      6.201
REMARK  Name = 5289085
REMARK  6 active torsions:
REMARK  status: ('A' for Active; 'I' for Inactive)
REMARK    1  A    between atoms: C_1  and  C_7
REMARK    2  A    between atoms: C_2  and  C_15
REMARK    3  A    between atoms: C_7  and  C_12
REMARK    4  A    between atoms: C_8  and  O_9
REMARK    5  A    between atoms: C_12  and  O_13
REMARK    6  A    between atoms: C_16  and  C_17
REMARK                            x       y       z     vdW  Elec       q    Type
REMARK                         _______ _______ _______ _____ _____    ______ ____
ROOT
ATOM      1  C   UNL     1      35.054 -23.396 -16.098  0.00  0.00    +0.009 C 
ATOM      2  C   UNL     1      36.042 -22.589 -16.643  0.00  0.00    +0.000 C 
ATOM      3  C   UNL     1      35.360 -24.352 -15.138  0.00  0.00    +0.000 C 
ATOM      4  C   UNL     1      37.362 -22.739 -16.220  0.00  0.00    +0.000 C 
ATOM      5  C   UNL     1      36.681 -24.502 -14.716  0.00  0.00    +0.000 C 
ATOM      6  C   UNL     1      37.682 -23.696 -15.257  0.00  0.00    +0.000 C 
ENDROOT
BRANCH   1   7
ATOM      7  C   UNL     1      33.646 -23.275 -16.514  0.00  0.00    +0.113 C 
ATOM      8  C   UNL     1      32.665 -23.187 -15.601  0.00  0.00    +0.179 C 
BRANCH   8   9
ATOM      9  O   UNL     1      32.868 -23.198 -14.246  0.00  0.00    -0.468 OA
ATOM     10  C   UNL     1      31.662 -23.471 -13.551  0.00  0.00    +0.253 C 
ENDBRANCH   8   9
BRANCH   7  12
ATOM     11  O   UNL     1      32.564 -22.332 -18.445  0.00  0.00    -0.245 OA
ATOM     12  C   UNL     1      33.233 -23.226 -17.947  0.00  0.00    +0.344 C 
BRANCH  12  13
ATOM     13  O   UNL     1      33.708 -24.325 -18.596  0.00  0.00    -0.441 OA
ATOM     14  C   UNL     1      34.053 -24.132 -19.971  0.00  0.00    +0.256 C 
ENDBRANCH  12  13
ENDBRANCH   7  12
ENDBRANCH   1   7
BRANCH   2  15
ATOM     15  C   UNL     1      35.753 -21.577 -17.653  0.00  0.00    +0.000 C 
ATOM     16  C   UNL     1      36.217 -21.591 -18.923  0.00  0.00    +0.000 C 
BRANCH  16  17
ATOM     17  C   UNL     1      35.909 -20.579 -19.948  0.00  0.00    +0.000 C 
ATOM     18  C   UNL     1      36.930 -19.786 -20.447  0.00  0.00    +0.000 C 
ATOM     19  C   UNL     1      34.604 -20.442 -20.394  0.00  0.00    +0.000 C 
ATOM     20  C   UNL     1      36.637 -18.828 -21.418  0.00  0.00    +0.000 C 
ATOM     21  C   UNL     1      34.312 -19.483 -21.366  0.00  0.00    +0.000 C 
ATOM     22  C   UNL     1      35.329 -18.677 -21.877  0.00  0.00    +0.000 C 
ENDBRANCH  16  17
ENDBRANCH   2  15
TORSDOF 6
ENDMDL
