MODEL 1
REMARK VINA RESULT:      -8.6      0.000      0.000
REMARK  Name = 16639
REMARK  4 active torsions:
REMARK  status: ('A' for Active; 'I' for Inactive)
REMARK    1  A    between atoms: N_3  and  C_9
REMARK    2  A    between atoms: C_5  and  C_15
REMARK    3  A    between atoms: C_15  and  C_16
REMARK    4  A    between atoms: C_16  and  C_17
REMARK                            x       y       z     vdW  Elec       q    Type
REMARK                         _______ _______ _______ _____ _____    ______ ____
ROOT
ATOM      1  O   UNL     1      35.274 -16.701 -20.366  0.00  0.00    -0.272 OA
ATOM      2  O   UNL     1      35.118 -19.607 -24.108  0.00  0.00    -0.273 OA
ATOM      3  N   UNL     1      34.406 -16.568 -22.558  0.00  0.00    -0.186 N 
ATOM      4  N   UNL     1      34.377 -17.441 -23.638  0.00  0.00    -0.226 N 
ATOM      5  C   UNL     1      35.521 -18.534 -21.959  0.00  0.00    +0.156 C 
ATOM      6  C   UNL     1      35.074 -17.163 -21.479  0.00  0.00    +0.253 C 
ATOM      7  C   UNL     1      35.001 -18.643 -23.368  0.00  0.00    +0.247 C 
ATOM      8  H   UNL     1      33.958 -17.225 -24.502  0.00  0.00    +0.173 HD
ENDROOT
BRANCH   3   9
ATOM      9  C   UNL     1      33.810 -15.316 -22.580  0.00  0.00    +0.073 C 
ATOM     10  C   UNL     1      32.802 -14.997 -21.664  0.00  0.00    +0.017 C 
ATOM     11  C   UNL     1      34.210 -14.361 -23.521  0.00  0.00    +0.017 C 
ATOM     12  C   UNL     1      32.201 -13.739 -21.687  0.00  0.00    +0.001 C 
ATOM     13  C   UNL     1      33.609 -13.101 -23.545  0.00  0.00    +0.001 C 
ATOM     14  C   UNL     1      32.605 -12.791 -22.628  0.00  0.00    +0.000 C 
ENDBRANCH   3   9
BRANCH   5  15
ATOM     15  C   UNL     1      34.968 -19.638 -21.073  0.00  0.00    +0.018 C 
BRANCH  15  16
ATOM     16  C   UNL     1      33.440 -19.626 -21.049  0.00  0.00    +0.001 C 
BRANCH  16  17
ATOM     17  C   UNL     1      32.893 -20.527 -19.942  0.00  0.00    +0.000 C 
ATOM     18  C   UNL     1      33.914 -21.573 -19.521  0.00  0.00    +0.000 C 
ENDBRANCH  16  17
ENDBRANCH  15  16
ENDBRANCH   5  15
TORSDOF 4
ENDMDL
MODEL 2
REMARK VINA RESULT:      -8.3      2.069      6.174
REMARK  Name = 16639
REMARK  4 active torsions:
REMARK  status: ('A' for Active; 'I' for Inactive)
REMARK    1  A    between atoms: N_3  and  C_9
REMARK    2  A    between atoms: C_5  and  C_15
REMARK    3  A    between atoms: C_15  and  C_16
REMARK    4  A    between atoms: C_16  and  C_17
REMARK                            x       y       z     vdW  Elec       q    Type
REMARK                         _______ _______ _______ _____ _____    ______ ____
ROOT
ATOM      1  O   UNL     1      34.846 -19.409 -24.287  0.00  0.00    -0.272 OA
ATOM      2  O   UNL     1      34.874 -14.889 -22.861  0.00  0.00    -0.273 OA
ATOM      3  N   UNL     1      34.748 -18.308 -22.200  0.00  0.00    -0.186 N 
ATOM      4  N   UNL     1      34.760 -16.975 -21.814  0.00  0.00    -0.226 N 
ATOM      5  C   UNL     1      34.951 -16.977 -24.113  0.00  0.00    +0.156 C 
ATOM      6  C   UNL     1      34.845 -18.402 -23.596  0.00  0.00    +0.253 C 
ATOM      7  C   UNL     1      34.860 -16.109 -22.885  0.00  0.00    +0.247 C 
ATOM      8  H   UNL     1      34.704 -16.679 -20.877  0.00  0.00    +0.173 HD
ENDROOT
BRANCH   3   9
ATOM      9  C   UNL     1      34.616 -19.356 -21.303  0.00  0.00    +0.073 C 
ATOM     10  C   UNL     1      33.347 -19.795 -20.910  0.00  0.00    +0.017 C 
ATOM     11  C   UNL     1      35.752 -19.983 -20.778  0.00  0.00    +0.017 C 
ATOM     12  C   UNL     1      33.214 -20.848 -20.005  0.00  0.00    +0.001 C 
ATOM     13  C   UNL     1      35.620 -21.037 -19.872  0.00  0.00    +0.001 C 
ATOM     14  C   UNL     1      34.352 -21.469 -19.486  0.00  0.00    +0.000 C 
ENDBRANCH   3   9
BRANCH   5  15
ATOM     15  C   UNL     1      33.841 -16.663 -25.102  0.00  0.00    +0.018 C 
BRANCH  15  16
ATOM     16  C   UNL     1      34.132 -15.381 -25.882  0.00  0.00    +0.001 C 
BRANCH  16  17
ATOM     17  C   UNL     1      32.840 -14.648 -26.249  0.00  0.00    +0.000 C 
ATOM     18  C   UNL     1      33.122 -13.404 -27.077  0.00  0.00    +0.000 C 
ENDBRANCH  16  17
ENDBRANCH  15  16
ENDBRANCH   5  15
TORSDOF 4
ENDMDL
MODEL 3
REMARK VINA RESULT:      -8.2      2.901      4.538
REMARK  Name = 16639
REMARK  4 active torsions:
REMARK  status: ('A' for Active; 'I' for Inactive)
REMARK    1  A    between atoms: N_3  and  C_9
REMARK    2  A    between atoms: C_5  and  C_15
REMARK    3  A    between atoms: C_15  and  C_16
REMARK    4  A    between atoms: C_16  and  C_17
REMARK                            x       y       z     vdW  Elec       q    Type
REMARK                         _______ _______ _______ _____ _____    ______ ____
ROOT
ATOM      1  O   UNL     1      32.657 -20.351 -20.502  0.00  0.00    -0.272 OA
ATOM      2  O   UNL     1      36.739 -21.768 -18.555  0.00  0.00    -0.273 OA
ATOM      3  N   UNL     1      34.937 -19.832 -20.825  0.00  0.00    -0.186 N 
ATOM      4  N   UNL     1      36.117 -20.266 -20.234  0.00  0.00    -0.226 N 
ATOM      5  C   UNL     1      34.409 -21.371 -19.144  0.00  0.00    +0.156 C 
ATOM      6  C   UNL     1      33.841 -20.471 -20.229  0.00  0.00    +0.253 C 
ATOM      7  C   UNL     1      35.903 -21.196 -19.235  0.00  0.00    +0.247 C 
ATOM      8  H   UNL     1      37.008 -19.945 -20.497  0.00  0.00    +0.173 HD
ENDROOT
BRANCH   3   9
ATOM      9  C   UNL     1      34.905 -18.929 -21.875  0.00  0.00    +0.073 C 
ATOM     10  C   UNL     1      34.814 -19.383 -23.195  0.00  0.00    +0.017 C 
ATOM     11  C   UNL     1      34.964 -17.553 -21.626  0.00  0.00    +0.017 C 
ATOM     12  C   UNL     1      34.783 -18.474 -24.253  0.00  0.00    +0.001 C 
ATOM     13  C   UNL     1      34.934 -16.643 -22.683  0.00  0.00    +0.001 C 
ATOM     14  C   UNL     1      34.843 -17.104 -23.996  0.00  0.00    +0.000 C 
ENDBRANCH   3   9
BRANCH   5  15
ATOM     15  C   UNL     1      34.003 -22.819 -19.357  0.00  0.00    +0.018 C 
BRANCH  15  16
ATOM     16  C   UNL     1      33.624 -23.495 -18.040  0.00  0.00    +0.001 C 
BRANCH  16  17
ATOM     17  C   UNL     1      32.422 -22.811 -17.389  0.00  0.00    +0.000 C 
ATOM     18  C   UNL     1      32.172 -23.341 -15.985  0.00  0.00    +0.000 C 
ENDBRANCH  16  17
ENDBRANCH  15  16
ENDBRANCH   5  15
TORSDOF 4
ENDMDL
MODEL 4
REMARK VINA RESULT:      -8.2      1.426      5.610
REMARK  Name = 16639
REMARK  4 active torsions:
REMARK  status: ('A' for Active; 'I' for Inactive)
REMARK    1  A    between atoms: N_3  and  C_9
REMARK    2  A    between atoms: C_5  and  C_15
REMARK    3  A    between atoms: C_15  and  C_16
REMARK    4  A    between atoms: C_16  and  C_17
REMARK                            x       y       z     vdW  Elec       q    Type
REMARK                         _______ _______ _______ _____ _____    ______ ____
ROOT
ATOM      1  O   UNL     1      33.583 -16.466 -20.932  0.00  0.00    -0.272 OA
ATOM      2  O   UNL     1      34.868 -16.742 -25.486  0.00  0.00    -0.273 OA
ATOM      3  N   UNL     1      34.631 -18.094 -22.284  0.00  0.00    -0.186 N 
ATOM      4  N   UNL     1      34.994 -18.146 -23.623  0.00  0.00    -0.226 N 
ATOM      5  C   UNL     1      33.974 -16.100 -23.313  0.00  0.00    +0.156 C 
ATOM      6  C   UNL     1      34.013 -16.867 -22.003  0.00  0.00    +0.253 C 
ATOM      7  C   UNL     1      34.660 -16.996 -24.311  0.00  0.00    +0.247 C 
ATOM      8  H   UNL     1      35.441 -18.919 -24.036  0.00  0.00    +0.173 HD
ENDROOT
BRANCH   3   9
ATOM      9  C   UNL     1      34.898 -19.116 -21.386  0.00  0.00    +0.073 C 
ATOM     10  C   UNL     1      33.857 -19.896 -20.872  0.00  0.00    +0.017 C 
ATOM     11  C   UNL     1      36.213 -19.377 -20.984  0.00  0.00    +0.017 C 
ATOM     12  C   UNL     1      34.125 -20.923 -19.968  0.00  0.00    +0.001 C 
ATOM     13  C   UNL     1      36.483 -20.405 -20.079  0.00  0.00    +0.001 C 
ATOM     14  C   UNL     1      35.439 -21.178 -19.572  0.00  0.00    +0.000 C 
ENDBRANCH   3   9
BRANCH   5  15
ATOM     15  C   UNL     1      34.679 -14.759 -23.191  0.00  0.00    +0.018 C 
BRANCH  15  16
ATOM     16  C   UNL     1      33.788 -13.611 -23.664  0.00  0.00    +0.001 C 
BRANCH  16  17
ATOM     17  C   UNL     1      32.372 -13.739 -23.103  0.00  0.00    +0.000 C 
ATOM     18  C   UNL     1      32.289 -13.217 -21.677  0.00  0.00    +0.000 C 
ENDBRANCH  16  17
ENDBRANCH  15  16
ENDBRANCH   5  15
TORSDOF 4
ENDMDL
MODEL 5
REMARK VINA RESULT:      -8.1      1.122      1.865
REMARK  Name = 16639
REMARK  4 active torsions:
REMARK  status: ('A' for Active; 'I' for Inactive)
REMARK    1  A    between atoms: N_3  and  C_9
REMARK    2  A    between atoms: C_5  and  C_15
REMARK    3  A    between atoms: C_15  and  C_16
REMARK    4  A    between atoms: C_16  and  C_17
REMARK                            x       y       z     vdW  Elec       q    Type
REMARK                         _______ _______ _______ _____ _____    ______ ____
ROOT
ATOM      1  O   UNL     1      34.826 -16.377 -21.176  0.00  0.00    -0.272 OA
ATOM      2  O   UNL     1      34.722 -18.193 -25.553  0.00  0.00    -0.273 OA
ATOM      3  N   UNL     1      34.027 -15.649 -23.275  0.00  0.00    -0.186 N 
ATOM      4  N   UNL     1      34.013 -16.207 -24.546  0.00  0.00    -0.226 N 
ATOM      5  C   UNL     1      35.083 -17.734 -23.188  0.00  0.00    +0.156 C 
ATOM      6  C   UNL     1      34.650 -16.525 -22.375  0.00  0.00    +0.253 C 
ATOM      7  C   UNL     1      34.603 -17.455 -24.589  0.00  0.00    +0.247 C 
ATOM      8  H   UNL     1      33.624 -15.760 -25.333  0.00  0.00    +0.173 HD
ENDROOT
BRANCH   3   9
ATOM      9  C   UNL     1      33.458 -14.420 -22.981  0.00  0.00    +0.073 C 
ATOM     10  C   UNL     1      33.785 -13.290 -23.739  0.00  0.00    +0.017 C 
ATOM     11  C   UNL     1      32.553 -14.296 -21.921  0.00  0.00    +0.017 C 
ATOM     12  C   UNL     1      33.215 -12.052 -23.442  0.00  0.00    +0.001 C 
ATOM     13  C   UNL     1      31.982 -13.057 -21.623  0.00  0.00    +0.001 C 
ATOM     14  C   UNL     1      32.313 -11.937 -22.383  0.00  0.00    +0.000 C 
ENDBRANCH   3   9
BRANCH   5  15
ATOM     15  C   UNL     1      34.481 -19.016 -22.637  0.00  0.00    +0.018 C 
BRANCH  15  16
ATOM     16  C   UNL     1      35.297 -19.560 -21.465  0.00  0.00    +0.001 C 
BRANCH  16  17
ATOM     17  C   UNL     1      34.400 -20.245 -20.433  0.00  0.00    +0.000 C 
ATOM     18  C   UNL     1      32.942 -19.854 -20.616  0.00  0.00    +0.000 C 
ENDBRANCH  16  17
ENDBRANCH  15  16
ENDBRANCH   5  15
TORSDOF 4
ENDMDL
MODEL 6
REMARK VINA RESULT:      -8.0      1.321      6.116
REMARK  Name = 16639
REMARK  4 active torsions:
REMARK  status: ('A' for Active; 'I' for Inactive)
REMARK    1  A    between atoms: N_3  and  C_9
REMARK    2  A    between atoms: C_5  and  C_15
REMARK    3  A    between atoms: C_15  and  C_16
REMARK    4  A    between atoms: C_16  and  C_17
REMARK                            x       y       z     vdW  Elec       q    Type
REMARK                         _______ _______ _______ _____ _____    ______ ____
ROOT
ATOM      1  O   UNL     1      34.897 -18.763 -23.556  0.00  0.00    -0.272 OA
ATOM      2  O   UNL     1      34.969 -14.855 -20.874  0.00  0.00    -0.273 OA
ATOM      3  N   UNL     1      34.877 -18.320 -21.237  0.00  0.00    -0.186 N 
ATOM      4  N   UNL     1      34.900 -17.157 -20.479  0.00  0.00    -0.226 N 
ATOM      5  C   UNL     1      35.002 -16.486 -22.683  0.00  0.00    +0.156 C 
ATOM      6  C   UNL     1      34.920 -18.001 -22.602  0.00  0.00    +0.253 C 
ATOM      7  C   UNL     1      34.957 -16.015 -21.253  0.00  0.00    +0.247 C 
ATOM      8  H   UNL     1      34.880 -17.148 -19.495  0.00  0.00    +0.173 HD
ENDROOT
BRANCH   3   9
ATOM      9  C   UNL     1      34.783 -19.586 -20.681  0.00  0.00    +0.073 C 
ATOM     10  C   UNL     1      33.530 -20.150 -20.415  0.00  0.00    +0.017 C 
ATOM     11  C   UNL     1      35.940 -20.311 -20.376  0.00  0.00    +0.017 C 
ATOM     12  C   UNL     1      33.435 -21.423 -19.853  0.00  0.00    +0.001 C 
ATOM     13  C   UNL     1      35.846 -21.585 -19.813  0.00  0.00    +0.001 C 
ATOM     14  C   UNL     1      34.594 -22.140 -19.553  0.00  0.00    +0.000 C 
ENDBRANCH   3   9
BRANCH   5  15
ATOM     15  C   UNL     1      33.854 -15.912 -23.497  0.00  0.00    +0.018 C 
BRANCH  15  16
ATOM     16  C   UNL     1      34.147 -14.481 -23.948  0.00  0.00    +0.001 C 
BRANCH  16  17
ATOM     17  C   UNL     1      32.872 -13.638 -23.984  0.00  0.00    +0.000 C 
ATOM     18  C   UNL     1      32.330 -13.386 -22.585  0.00  0.00    +0.000 C 
ENDBRANCH  16  17
ENDBRANCH  15  16
ENDBRANCH   5  15
TORSDOF 4
ENDMDL
MODEL 7
REMARK VINA RESULT:      -8.0      2.510      6.380
REMARK  Name = 16639
REMARK  4 active torsions:
REMARK  status: ('A' for Active; 'I' for Inactive)
REMARK    1  A    between atoms: N_3  and  C_9
REMARK    2  A    between atoms: C_5  and  C_15
REMARK    3  A    between atoms: C_15  and  C_16
REMARK    4  A    between atoms: C_16  and  C_17
REMARK                            x       y       z     vdW  Elec       q    Type
REMARK                         _______ _______ _______ _____ _____    ______ ____
ROOT
ATOM      1  O   UNL     1      31.962 -15.599 -21.023  0.00  0.00    -0.272 OA
ATOM      2  O   UNL     1      33.455 -11.906 -23.593  0.00  0.00    -0.273 OA
ATOM      3  N   UNL     1      33.755 -15.203 -22.508  0.00  0.00    -0.186 N 
ATOM      4  N   UNL     1      34.167 -14.105 -23.250  0.00  0.00    -0.226 N 
ATOM      5  C   UNL     1      32.245 -13.454 -22.153  0.00  0.00    +0.156 C 
ATOM      6  C   UNL     1      32.593 -14.888 -21.791  0.00  0.00    +0.253 C 
ATOM      7  C   UNL     1      33.339 -13.011 -23.089  0.00  0.00    +0.247 C 
ATOM      8  H   UNL     1      34.962 -14.106 -23.830  0.00  0.00    +0.173 HD
ENDROOT
BRANCH   3   9
ATOM      9  C   UNL     1      34.450 -16.403 -22.481  0.00  0.00    +0.073 C 
ATOM     10  C   UNL     1      34.668 -17.120 -23.662  0.00  0.00    +0.017 C 
ATOM     11  C   UNL     1      34.939 -16.909 -21.271  0.00  0.00    +0.017 C 
ATOM     12  C   UNL     1      35.365 -18.328 -23.636  0.00  0.00    +0.001 C 
ATOM     13  C   UNL     1      35.637 -18.117 -21.244  0.00  0.00    +0.001 C 
ATOM     14  C   UNL     1      35.850 -18.825 -22.425  0.00  0.00    +0.000 C 
ENDBRANCH   3   9
BRANCH   5  15
ATOM     15  C   UNL     1      32.176 -12.572 -20.917  0.00  0.00    +0.018 C 
BRANCH  15  16
ATOM     16  C   UNL     1      31.105 -11.491 -21.058  0.00  0.00    +0.001 C 
BRANCH  16  17
ATOM     17  C   UNL     1      30.948 -10.691 -19.764  0.00  0.00    +0.000 C 
ATOM     18  C   UNL     1      31.931  -9.534 -19.702  0.00  0.00    +0.000 C 
ENDBRANCH  16  17
ENDBRANCH  15  16
ENDBRANCH   5  15
TORSDOF 4
ENDMDL
MODEL 8
REMARK VINA RESULT:      -7.8      4.549      8.077
REMARK  Name = 16639
REMARK  4 active torsions:
REMARK  status: ('A' for Active; 'I' for Inactive)
REMARK    1  A    between atoms: N_3  and  C_9
REMARK    2  A    between atoms: C_5  and  C_15
REMARK    3  A    between atoms: C_15  and  C_16
REMARK    4  A    between atoms: C_16  and  C_17
REMARK                            x       y       z     vdW  Elec       q    Type
REMARK                         _______ _______ _______ _____ _____    ______ ____
ROOT
ATOM      1  O   UNL     1      34.348 -11.036 -24.470  0.00  0.00    -0.272 OA
ATOM      2  O   UNL     1      30.811 -10.888 -21.318  0.00  0.00    -0.273 OA
ATOM      3  N   UNL     1      32.932 -12.634 -23.462  0.00  0.00    -0.186 N 
ATOM      4  N   UNL     1      31.901 -12.559 -22.535  0.00  0.00    -0.226 N 
ATOM      5  C   UNL     1      32.670 -10.402 -22.815  0.00  0.00    +0.156 C 
ATOM      6  C   UNL     1      33.451 -11.354 -23.705  0.00  0.00    +0.253 C 
ATOM      7  C   UNL     1      31.661 -11.268 -22.107  0.00  0.00    +0.247 C 
ATOM      8  H   UNL     1      31.396 -13.342 -22.218  0.00  0.00    +0.173 HD
ENDROOT
BRANCH   3   9
ATOM      9  C   UNL     1      33.327 -13.820 -24.061  0.00  0.00    +0.073 C 
ATOM     10  C   UNL     1      32.893 -14.138 -25.352  0.00  0.00    +0.017 C 
ATOM     11  C   UNL     1      34.161 -14.712 -23.378  0.00  0.00    +0.017 C 
ATOM     12  C   UNL     1      33.288 -15.332 -25.955  0.00  0.00    +0.001 C 
ATOM     13  C   UNL     1      34.557 -15.908 -23.980  0.00  0.00    +0.001 C 
ATOM     14  C   UNL     1      34.121 -16.217 -25.268  0.00  0.00    +0.000 C 
ENDBRANCH   3   9
BRANCH   5  15
ATOM     15  C   UNL     1      31.995  -9.311 -23.630  0.00  0.00    +0.018 C 
BRANCH  15  16
ATOM     16  C   UNL     1      32.303  -7.922 -23.072  0.00  0.00    +0.001 C 
BRANCH  16  17
ATOM     17  C   UNL     1      33.758  -7.817 -22.613  0.00  0.00    +0.000 C 
ATOM     18  C   UNL     1      34.675  -7.421 -23.760  0.00  0.00    +0.000 C 
ENDBRANCH  16  17
ENDBRANCH  15  16
ENDBRANCH   5  15
TORSDOF 4
ENDMDL
MODEL 9
REMARK VINA RESULT:      -7.6      9.243     11.208
REMARK  Name = 16639
REMARK  4 active torsions:
REMARK  status: ('A' for Active; 'I' for Inactive)
REMARK    1  A    between atoms: N_3  and  C_9
REMARK    2  A    between atoms: C_5  and  C_15
REMARK    3  A    between atoms: C_15  and  C_16
REMARK    4  A    between atoms: C_16  and  C_17
REMARK                            x       y       z     vdW  Elec       q    Type
REMARK                         _______ _______ _______ _____ _____    ______ ____
ROOT
ATOM      1  O   UNL     1      36.997 -22.845 -14.929  0.00  0.00    -0.272 OA
ATOM      2  O   UNL     1      37.744 -27.525 -14.847  0.00  0.00    -0.273 OA
ATOM      3  N   UNL     1      35.635 -24.764 -15.112  0.00  0.00    -0.186 N 
ATOM      4  N   UNL     1      35.885 -26.130 -15.085  0.00  0.00    -0.226 N 
ATOM      5  C   UNL     1      37.937 -25.097 -14.869  0.00  0.00    +0.156 C 
ATOM      6  C   UNL     1      36.835 -24.055 -14.969  0.00  0.00    +0.253 C 
ATOM      7  C   UNL     1      37.226 -26.424 -14.926  0.00  0.00    +0.247 C 
ATOM      8  H   UNL     1      35.183 -26.814 -15.171  0.00  0.00    +0.173 HD
ENDROOT
BRANCH   3   9
ATOM      9  C   UNL     1      34.360 -24.230 -15.224  0.00  0.00    +0.073 C 
ATOM     10  C   UNL     1      33.921 -23.700 -16.442  0.00  0.00    +0.017 C 
ATOM     11  C   UNL     1      33.501 -24.215 -14.119  0.00  0.00    +0.017 C 
ATOM     12  C   UNL     1      32.640 -23.161 -16.555  0.00  0.00    +0.001 C 
ATOM     13  C   UNL     1      32.219 -23.675 -14.231  0.00  0.00    +0.001 C 
ATOM     14  C   UNL     1      31.789 -23.149 -15.449  0.00  0.00    +0.000 C 
ENDBRANCH   3   9
BRANCH   5  15
ATOM     15  C   UNL     1      38.728 -24.944 -13.581  0.00  0.00    +0.018 C 
BRANCH  15  16
ATOM     16  C   UNL     1      37.888 -25.312 -12.359  0.00  0.00    +0.001 C 
BRANCH  16  17
ATOM     17  C   UNL     1      37.415 -24.064 -11.612  0.00  0.00    +0.000 C 
ATOM     18  C   UNL     1      35.927 -24.129 -11.305  0.00  0.00    +0.000 C 
ENDBRANCH  16  17
ENDBRANCH  15  16
ENDBRANCH   5  15
TORSDOF 4
ENDMDL
