MODEL 1
REMARK VINA RESULT:      -4.1      0.000      0.000
REMARK  Name = 273
REMARK  6 active torsions:
REMARK  status: ('A' for Active; 'I' for Inactive)
REMARK    1  A    between atoms: C_1  and  C_2
REMARK    2  A    between atoms: C_1  and  C_8
REMARK    3  A    between atoms: C_2  and  C_3
REMARK    4  A    between atoms: C_3  and  N_4
REMARK    5  A    between atoms: C_8  and  C_9
REMARK    6  A    between atoms: C_9  and  N_10
REMARK                            x       y       z     vdW  Elec       q    Type
REMARK                         _______ _______ _______ _____ _____    ______ ____
ROOT
ATOM      1  C   UNL     1      33.702 -19.545 -21.095  0.00  0.00    -0.004 C 
ENDROOT
BRANCH   1   2
ATOM      2  C   UNL     1      35.180 -19.934 -21.024  0.00  0.00    -0.024 C 
BRANCH   2   3
ATOM      3  C   UNL     1      36.081 -18.713 -21.186  0.00  0.00    -0.086 C 
BRANCH   3   4
ATOM      4  N   UNL     1      35.375 -17.503 -20.779  0.00  0.00    +0.380 N 
ATOM      5  H   UNL     1      35.768 -16.699 -21.268  0.00  0.00    -0.089 HD
ATOM      6  H   UNL     1      35.478 -17.374 -19.772  0.00  0.00    -0.089 HD
ATOM      7  H   UNL     1      34.386 -17.593 -21.011  0.00  0.00    -0.089 HD
ENDBRANCH   3   4
ENDBRANCH   2   3
ENDBRANCH   1   2
BRANCH   1   8
ATOM      8  C   UNL     1      32.849 -20.421 -20.175  0.00  0.00    -0.024 C 
BRANCH   8   9
ATOM      9  C   UNL     1      33.686 -21.519 -19.524  0.00  0.00    -0.086 C 
BRANCH   9  10
ATOM     10  N   UNL     1      32.857 -22.336 -18.646  0.00  0.00    +0.380 N 
ATOM     11  H   UNL     1      32.262 -22.944 -19.209  0.00  0.00    -0.089 HD
ATOM     12  H   UNL     1      32.274 -21.731 -18.069  0.00  0.00    -0.089 HD
ATOM     13  H   UNL     1      33.454 -22.905 -18.046  0.00  0.00    -0.089 HD
ENDBRANCH   9  10
ENDBRANCH   8   9
ENDBRANCH   1   8
TORSDOF 6
ENDMDL
MODEL 2
REMARK VINA RESULT:      -4.1      0.053      4.050
REMARK  Name = 273
REMARK  6 active torsions:
REMARK  status: ('A' for Active; 'I' for Inactive)
REMARK    1  A    between atoms: C_1  and  C_2
REMARK    2  A    between atoms: C_1  and  C_8
REMARK    3  A    between atoms: C_2  and  C_3
REMARK    4  A    between atoms: C_3  and  N_4
REMARK    5  A    between atoms: C_8  and  C_9
REMARK    6  A    between atoms: C_9  and  N_10
REMARK                            x       y       z     vdW  Elec       q    Type
REMARK                         _______ _______ _______ _____ _____    ______ ____
ROOT
ATOM      1  C   UNL     1      33.711 -19.598 -21.117  0.00  0.00    -0.004 C 
ENDROOT
BRANCH   1   2
ATOM      2  C   UNL     1      32.852 -20.410 -20.145  0.00  0.00    -0.024 C 
BRANCH   2   3
ATOM      3  C   UNL     1      33.644 -21.568 -19.542  0.00  0.00    -0.086 C 
BRANCH   3   4
ATOM      4  N   UNL     1      32.813 -22.319 -18.608  0.00  0.00    +0.380 N 
ATOM      5  H   UNL     1      33.065 -23.307 -18.648  0.00  0.00    -0.089 HD
ATOM      6  H   UNL     1      31.832 -22.207 -18.862  0.00  0.00    -0.089 HD
ATOM      7  H   UNL     1      32.962 -21.968 -17.662  0.00  0.00    -0.089 HD
ENDBRANCH   3   4
ENDBRANCH   2   3
ENDBRANCH   1   2
BRANCH   1   8
ATOM      8  C   UNL     1      35.196 -19.928 -20.960  0.00  0.00    -0.024 C 
BRANCH   8   9
ATOM      9  C   UNL     1      36.064 -18.693 -21.188  0.00  0.00    -0.086 C 
BRANCH   9  10
ATOM     10  N   UNL     1      35.341 -17.486 -20.802  0.00  0.00    +0.380 N 
ATOM     11  H   UNL     1      35.884 -16.972 -20.108  0.00  0.00    -0.089 HD
ATOM     12  H   UNL     1      34.439 -17.745 -20.404  0.00  0.00    -0.089 HD
ATOM     13  H   UNL     1      35.196 -16.899 -21.623  0.00  0.00    -0.089 HD
ENDBRANCH   9  10
ENDBRANCH   8   9
ENDBRANCH   1   8
TORSDOF 6
ENDMDL
MODEL 3
REMARK VINA RESULT:      -3.9      1.993      2.280
REMARK  Name = 273
REMARK  6 active torsions:
REMARK  status: ('A' for Active; 'I' for Inactive)
REMARK    1  A    between atoms: C_1  and  C_2
REMARK    2  A    between atoms: C_1  and  C_8
REMARK    3  A    between atoms: C_2  and  C_3
REMARK    4  A    between atoms: C_3  and  N_4
REMARK    5  A    between atoms: C_8  and  C_9
REMARK    6  A    between atoms: C_9  and  N_10
REMARK                            x       y       z     vdW  Elec       q    Type
REMARK                         _______ _______ _______ _____ _____    ______ ____
ROOT
ATOM      1  C   UNL     1      35.158 -18.892 -21.691  0.00  0.00    -0.004 C 
ENDROOT
BRANCH   1   2
ATOM      2  C   UNL     1      34.796 -19.226 -23.140  0.00  0.00    -0.024 C 
BRANCH   2   3
ATOM      3  C   UNL     1      34.851 -17.982 -24.024  0.00  0.00    -0.086 C 
BRANCH   3   4
ATOM      4  N   UNL     1      35.698 -16.963 -23.415  0.00  0.00    +0.380 N 
ATOM      5  H   UNL     1      36.677 -17.182 -23.597  0.00  0.00    -0.089 HD
ATOM      6  H   UNL     1      35.534 -16.943 -22.409  0.00  0.00    -0.089 HD
ATOM      7  H   UNL     1      35.474 -16.052 -23.814  0.00  0.00    -0.089 HD
ENDBRANCH   3   4
ENDBRANCH   2   3
ENDBRANCH   1   2
BRANCH   1   8
ATOM      8  C   UNL     1      34.657 -19.970 -20.728  0.00  0.00    -0.024 C 
BRANCH   8   9
ATOM      9  C   UNL     1      33.132 -20.038 -20.717  0.00  0.00    -0.086 C 
BRANCH   9  10
ATOM     10  N   UNL     1      32.667 -20.819 -19.577  0.00  0.00    +0.380 N 
ATOM     11  H   UNL     1      32.639 -20.226 -18.747  0.00  0.00    -0.089 HD
ATOM     12  H   UNL     1      33.305 -21.598 -19.416  0.00  0.00    -0.089 HD
ATOM     13  H   UNL     1      31.732 -21.179 -19.770  0.00  0.00    -0.089 HD
ENDBRANCH   9  10
ENDBRANCH   8   9
ENDBRANCH   1   8
TORSDOF 6
ENDMDL
MODEL 4
REMARK VINA RESULT:      -3.9      1.273      4.159
REMARK  Name = 273
REMARK  6 active torsions:
REMARK  status: ('A' for Active; 'I' for Inactive)
REMARK    1  A    between atoms: C_1  and  C_2
REMARK    2  A    between atoms: C_1  and  C_8
REMARK    3  A    between atoms: C_2  and  C_3
REMARK    4  A    between atoms: C_3  and  N_4
REMARK    5  A    between atoms: C_8  and  C_9
REMARK    6  A    between atoms: C_9  and  N_10
REMARK                            x       y       z     vdW  Elec       q    Type
REMARK                         _______ _______ _______ _____ _____    ______ ____
ROOT
ATOM      1  C   UNL     1      33.949 -20.051 -20.610  0.00  0.00    -0.004 C 
ENDROOT
BRANCH   1   2
ATOM      2  C   UNL     1      35.054 -20.904 -19.983  0.00  0.00    -0.024 C 
BRANCH   2   3
ATOM      3  C   UNL     1      34.470 -22.052 -19.164  0.00  0.00    -0.086 C 
BRANCH   3   4
ATOM      4  N   UNL     1      33.033 -22.156 -19.389  0.00  0.00    +0.380 N 
ATOM      5  H   UNL     1      32.652 -21.230 -19.585  0.00  0.00    -0.089 HD
ATOM      6  H   UNL     1      32.586 -22.539 -18.556  0.00  0.00    -0.089 HD
ATOM      7  H   UNL     1      32.856 -22.771 -20.183  0.00  0.00    -0.089 HD
ENDBRANCH   3   4
ENDBRANCH   2   3
ENDBRANCH   1   2
BRANCH   1   8
ATOM      8  C   UNL     1      34.436 -19.352 -21.881  0.00  0.00    -0.024 C 
BRANCH   8   9
ATOM      9  C   UNL     1      35.707 -18.548 -21.617  0.00  0.00    -0.086 C 
BRANCH   9  10
ATOM     10  N   UNL     1      36.285 -18.086 -22.875  0.00  0.00    +0.380 N 
ATOM     11  H   UNL     1      37.223 -17.723 -22.705  0.00  0.00    -0.089 HD
ATOM     12  H   UNL     1      35.700 -17.348 -23.265  0.00  0.00    -0.089 HD
ATOM     13  H   UNL     1      36.334 -18.865 -23.532  0.00  0.00    -0.089 HD
ENDBRANCH   9  10
ENDBRANCH   8   9
ENDBRANCH   1   8
TORSDOF 6
ENDMDL
MODEL 5
REMARK VINA RESULT:      -3.8      2.757      3.438
REMARK  Name = 273
REMARK  6 active torsions:
REMARK  status: ('A' for Active; 'I' for Inactive)
REMARK    1  A    between atoms: C_1  and  C_2
REMARK    2  A    between atoms: C_1  and  C_8
REMARK    3  A    between atoms: C_2  and  C_3
REMARK    4  A    between atoms: C_3  and  N_4
REMARK    5  A    between atoms: C_8  and  C_9
REMARK    6  A    between atoms: C_9  and  N_10
REMARK                            x       y       z     vdW  Elec       q    Type
REMARK                         _______ _______ _______ _____ _____    ______ ____
ROOT
ATOM      1  C   UNL     1      34.376 -19.301 -22.624  0.00  0.00    -0.004 C 
ENDROOT
BRANCH   1   2
ATOM      2  C   UNL     1      35.287 -18.767 -23.730  0.00  0.00    -0.024 C 
BRANCH   2   3
ATOM      3  C   UNL     1      34.714 -17.495 -24.353  0.00  0.00    -0.086 C 
BRANCH   3   4
ATOM      4  N   UNL     1      35.424 -16.323 -23.855  0.00  0.00    +0.380 N 
ATOM      5  H   UNL     1      35.241 -15.528 -24.468  0.00  0.00    -0.089 HD
ATOM      6  H   UNL     1      36.425 -16.515 -23.835  0.00  0.00    -0.089 HD
ATOM      7  H   UNL     1      35.101 -16.105 -22.912  0.00  0.00    -0.089 HD
ENDBRANCH   3   4
ENDBRANCH   2   3
ENDBRANCH   1   2
BRANCH   1   8
ATOM      8  C   UNL     1      34.795 -18.771 -21.251  0.00  0.00    -0.024 C 
BRANCH   8   9
ATOM      9  C   UNL     1      36.310 -18.834 -21.072  0.00  0.00    -0.086 C 
BRANCH   9  10
ATOM     10  N   UNL     1      36.660 -19.814 -20.050  0.00  0.00    +0.380 N 
ATOM     11  H   UNL     1      37.275 -20.521 -20.452  0.00  0.00    -0.089 HD
ATOM     12  H   UNL     1      35.811 -20.260 -19.703  0.00  0.00    -0.089 HD
ATOM     13  H   UNL     1      37.137 -19.346 -19.279  0.00  0.00    -0.089 HD
ENDBRANCH   9  10
ENDBRANCH   8   9
ENDBRANCH   1   8
TORSDOF 6
ENDMDL
MODEL 6
REMARK VINA RESULT:      -3.8      8.930      9.925
REMARK  Name = 273
REMARK  6 active torsions:
REMARK  status: ('A' for Active; 'I' for Inactive)
REMARK    1  A    between atoms: C_1  and  C_2
REMARK    2  A    between atoms: C_1  and  C_8
REMARK    3  A    between atoms: C_2  and  C_3
REMARK    4  A    between atoms: C_3  and  N_4
REMARK    5  A    between atoms: C_8  and  C_9
REMARK    6  A    between atoms: C_9  and  N_10
REMARK                            x       y       z     vdW  Elec       q    Type
REMARK                         _______ _______ _______ _____ _____    ______ ____
ROOT
ATOM      1  C   UNL     1      31.011 -10.855 -19.877  0.00  0.00    -0.004 C 
ENDROOT
BRANCH   1   2
ATOM      2  C   UNL     1      32.009  -9.825 -19.343  0.00  0.00    -0.024 C 
BRANCH   2   3
ATOM      3  C   UNL     1      32.185  -8.666 -20.322  0.00  0.00    -0.086 C 
BRANCH   3   4
ATOM      4  N   UNL     1      33.005  -7.618 -19.725  0.00  0.00    +0.380 N 
ATOM      5  H   UNL     1      33.427  -7.966 -18.864  0.00  0.00    -0.089 HD
ATOM      6  H   UNL     1      32.421  -6.809 -19.516  0.00  0.00    -0.089 HD
ATOM      7  H   UNL     1      33.740  -7.348 -20.379  0.00  0.00    -0.089 HD
ENDBRANCH   3   4
ENDBRANCH   2   3
ENDBRANCH   1   2
BRANCH   1   8
ATOM      8  C   UNL     1      31.727 -12.073 -20.466  0.00  0.00    -0.024 C 
BRANCH   8   9
ATOM      9  C   UNL     1      31.795 -11.990 -21.989  0.00  0.00    -0.086 C 
BRANCH   9  10
ATOM     10  N   UNL     1      32.002 -13.316 -22.560  0.00  0.00    +0.380 N 
ATOM     11  H   UNL     1      31.107 -13.699 -22.866  0.00  0.00    -0.089 HD
ATOM     12  H   UNL     1      32.410 -13.929 -21.855  0.00  0.00    -0.089 HD
ATOM     13  H   UNL     1      32.634 -13.248 -23.358  0.00  0.00    -0.089 HD
ENDBRANCH   9  10
ENDBRANCH   8   9
ENDBRANCH   1   8
TORSDOF 6
ENDMDL
MODEL 7
REMARK VINA RESULT:      -3.7     11.243     11.965
REMARK  Name = 273
REMARK  6 active torsions:
REMARK  status: ('A' for Active; 'I' for Inactive)
REMARK    1  A    between atoms: C_1  and  C_2
REMARK    2  A    between atoms: C_1  and  C_8
REMARK    3  A    between atoms: C_2  and  C_3
REMARK    4  A    between atoms: C_3  and  N_4
REMARK    5  A    between atoms: C_8  and  C_9
REMARK    6  A    between atoms: C_9  and  N_10
REMARK                            x       y       z     vdW  Elec       q    Type
REMARK                         _______ _______ _______ _____ _____    ______ ____
ROOT
ATOM      1  C   UNL     1      33.631  -7.259 -22.906  0.00  0.00    -0.004 C 
ENDROOT
BRANCH   1   2
ATOM      2  C   UNL     1      34.759  -8.009 -23.618  0.00  0.00    -0.024 C 
BRANCH   2   3
ATOM      3  C   UNL     1      34.347  -9.440 -23.952  0.00  0.00    -0.086 C 
BRANCH   3   4
ATOM      4  N   UNL     1      35.422 -10.125 -24.661  0.00  0.00    +0.380 N 
ATOM      5  H   UNL     1      35.933 -10.722 -24.010  0.00  0.00    -0.089 HD
ATOM      6  H   UNL     1      36.057  -9.435 -25.062  0.00  0.00    -0.089 HD
ATOM      7  H   UNL     1      35.027 -10.697 -25.408  0.00  0.00    -0.089 HD
ENDBRANCH   3   4
ENDBRANCH   2   3
ENDBRANCH   1   2
BRANCH   1   8
ATOM      8  C   UNL     1      32.817  -8.195 -22.010  0.00  0.00    -0.024 C 
BRANCH   8   9
ATOM      9  C   UNL     1      32.726  -7.655 -20.584  0.00  0.00    -0.086 C 
BRANCH   9  10
ATOM     10  N   UNL     1      32.618  -8.754 -19.632  0.00  0.00    +0.380 N 
ATOM     11  H   UNL     1      33.251  -8.588 -18.849  0.00  0.00    -0.089 HD
ATOM     12  H   UNL     1      32.869  -9.628 -20.093  0.00  0.00    -0.089 HD
ATOM     13  H   UNL     1      31.660  -8.812 -19.288  0.00  0.00    -0.089 HD
ENDBRANCH   9  10
ENDBRANCH   8   9
ENDBRANCH   1   8
TORSDOF 6
ENDMDL
MODEL 8
REMARK VINA RESULT:      -3.7      1.952      4.537
REMARK  Name = 273
REMARK  6 active torsions:
REMARK  status: ('A' for Active; 'I' for Inactive)
REMARK    1  A    between atoms: C_1  and  C_2
REMARK    2  A    between atoms: C_1  and  C_8
REMARK    3  A    between atoms: C_2  and  C_3
REMARK    4  A    between atoms: C_3  and  N_4
REMARK    5  A    between atoms: C_8  and  C_9
REMARK    6  A    between atoms: C_9  and  N_10
REMARK                            x       y       z     vdW  Elec       q    Type
REMARK                         _______ _______ _______ _____ _____    ______ ____
ROOT
ATOM      1  C   UNL     1      35.431 -18.666 -21.641  0.00  0.00    -0.004 C 
ENDROOT
BRANCH   1   2
ATOM      2  C   UNL     1      34.209 -19.587 -21.636  0.00  0.00    -0.024 C 
BRANCH   2   3
ATOM      3  C   UNL     1      34.115 -20.374 -20.331  0.00  0.00    -0.086 C 
BRANCH   3   4
ATOM      4  N   UNL     1      32.719 -20.618 -19.986  0.00  0.00    +0.380 N 
ATOM      5  H   UNL     1      32.609 -20.586 -18.972  0.00  0.00    -0.089 HD
ATOM      6  H   UNL     1      32.440 -21.537 -20.330  0.00  0.00    -0.089 HD
ATOM      7  H   UNL     1      32.132 -19.902 -20.415  0.00  0.00    -0.089 HD
ENDBRANCH   3   4
ENDBRANCH   2   3
ENDBRANCH   1   2
BRANCH   1   8
ATOM      8  C   UNL     1      35.084 -17.275 -21.107  0.00  0.00    -0.024 C 
BRANCH   8   9
ATOM      9  C   UNL     1      34.899 -16.275 -22.246  0.00  0.00    -0.086 C 
BRANCH   9  10
ATOM     10  N   UNL     1      35.573 -16.748 -23.450  0.00  0.00    +0.380 N 
ATOM     11  H   UNL     1      36.463 -16.261 -23.555  0.00  0.00    -0.089 HD
ATOM     12  H   UNL     1      34.986 -16.561 -24.263  0.00  0.00    -0.089 HD
ATOM     13  H   UNL     1      35.740 -17.751 -23.374  0.00  0.00    -0.089 HD
ENDBRANCH   9  10
ENDBRANCH   8   9
ENDBRANCH   1   8
TORSDOF 6
ENDMDL
MODEL 9
REMARK VINA RESULT:      -3.7      1.293      1.826
REMARK  Name = 273
REMARK  6 active torsions:
REMARK  status: ('A' for Active; 'I' for Inactive)
REMARK    1  A    between atoms: C_1  and  C_2
REMARK    2  A    between atoms: C_1  and  C_8
REMARK    3  A    between atoms: C_2  and  C_3
REMARK    4  A    between atoms: C_3  and  N_4
REMARK    5  A    between atoms: C_8  and  C_9
REMARK    6  A    between atoms: C_9  and  N_10
REMARK                            x       y       z     vdW  Elec       q    Type
REMARK                         _______ _______ _______ _____ _____    ______ ____
ROOT
ATOM      1  C   UNL     1      33.117 -20.879 -19.847  0.00  0.00    -0.004 C 
ENDROOT
BRANCH   1   2
ATOM      2  C   UNL     1      33.846 -19.857 -20.720  0.00  0.00    -0.024 C 
BRANCH   2   3
ATOM      3  C   UNL     1      35.353 -20.103 -20.719  0.00  0.00    -0.086 C 
BRANCH   3   4
ATOM      4  N   UNL     1      36.074 -18.837 -20.658  0.00  0.00    +0.380 N 
ATOM      5  H   UNL     1      35.422 -18.067 -20.808  0.00  0.00    -0.089 HD
ATOM      6  H   UNL     1      36.793 -18.821 -21.380  0.00  0.00    -0.089 HD
ATOM      7  H   UNL     1      36.511 -18.738 -19.741  0.00  0.00    -0.089 HD
ENDBRANCH   3   4
ENDBRANCH   2   3
ENDBRANCH   1   2
BRANCH   1   8
ATOM      8  C   UNL     1      34.081 -21.929 -19.292  0.00  0.00    -0.024 C 
BRANCH   8   9
ATOM      9  C   UNL     1      33.404 -22.797 -18.233  0.00  0.00    -0.086 C 
BRANCH   9  10
ATOM     10  N   UNL     1      34.277 -22.958 -17.076  0.00  0.00    +0.380 N 
ATOM     11  H   UNL     1      34.201 -22.137 -16.475  0.00  0.00    -0.089 HD
ATOM     12  H   UNL     1      35.242 -23.061 -17.390  0.00  0.00    -0.089 HD
ATOM     13  H   UNL     1      33.999 -23.789 -16.553  0.00  0.00    -0.089 HD
ENDBRANCH   9  10
ENDBRANCH   8   9
ENDBRANCH   1   8
TORSDOF 6
ENDMDL
