MODEL 1
REMARK VINA RESULT:     -10.9      0.000      0.000
REMARK  Name = 10253143
REMARK  5 active torsions:
REMARK  status: ('A' for Active; 'I' for Inactive)
REMARK    1  A    between atoms: N_3  and  C_11
REMARK    2  A    between atoms: C_4  and  C_23
REMARK    3  A    between atoms: C_5  and  C_20
REMARK    4  A    between atoms: N_22  and  C_25
REMARK    5  A    between atoms: C_25  and  C_27
REMARK                            x       y       z     vdW  Elec       q    Type
REMARK                         _______ _______ _______ _____ _____    ______ ____
ROOT
ATOM      1  N   UNL     1      34.521 -19.237 -21.110  0.00  0.00    -0.333 NA
ATOM      2  N   UNL     1      36.878 -19.598 -20.765  0.00  0.00    -0.170 NA
ATOM      3  N   UNL     1      36.114 -17.823 -22.094  0.00  0.00    -0.246 N 
ATOM      4  C   UNL     1      35.277 -21.042 -19.759  0.00  0.00    +0.108 C 
ATOM      5  C   UNL     1      34.279 -20.310 -20.329  0.00  0.00    +0.221 C 
ATOM      6  C   UNL     1      36.565 -20.661 -19.995  0.00  0.00    +0.119 C 
ATOM      7  C   UNL     1      35.823 -18.941 -21.283  0.00  0.00    +0.149 C 
ATOM      8  H   UNL     1      37.076 -17.645 -22.193  0.00  0.00    +0.165 HD
ENDROOT
BRANCH   3  11
ATOM      9 CL   UNL     1      34.824 -15.626 -20.431  0.00  0.00    -0.081 Cl
ATOM     10 CL   UNL     1      32.691 -14.044 -25.111  0.00  0.00    -0.082 Cl
ATOM     11  C   UNL     1      35.296 -16.912 -22.789  0.00  0.00    +0.068 C 
ATOM     12  C   UNL     1      34.650 -15.861 -22.133  0.00  0.00    +0.072 C 
ATOM     13  C   UNL     1      35.131 -17.071 -24.168  0.00  0.00    +0.017 C 
ATOM     14  C   UNL     1      33.846 -14.975 -22.850  0.00  0.00    +0.024 C 
ATOM     15  C   UNL     1      34.326 -16.185 -24.885  0.00  0.00    +0.013 C 
ATOM     16  C   UNL     1      33.683 -15.137 -24.226  0.00  0.00    +0.059 C 
ENDBRANCH   3  11
BRANCH   5  20
ATOM     17  F   UNL     1      32.435 -21.746 -20.842  0.00  0.00    -0.164 F 
ATOM     18  F   UNL     1      32.529 -20.944 -18.828  0.00  0.00    -0.164 F 
ATOM     19  F   UNL     1      32.003 -19.644 -20.490  0.00  0.00    -0.164 F 
ATOM     20  C   UNL     1      32.841 -20.656 -20.126  0.00  0.00    +0.447 C 
ENDBRANCH   5  20
BRANCH   4  23
ATOM     21  O   UNL     1      34.603 -23.263 -19.422  0.00  0.00    -0.270 OA
ATOM     22  N   UNL     1      35.244 -22.069 -17.539  0.00  0.00    -0.301 N 
ATOM     23  C   UNL     1      35.001 -22.224 -18.902  0.00  0.00    +0.250 C 
ATOM     24  H   UNL     1      35.563 -21.195 -17.214  0.00  0.00    +0.150 HD
BRANCH  22  25
ATOM     25  C   UNL     1      35.051 -23.123 -16.589  0.00  0.00    +0.090 C 
BRANCH  25  27
ATOM     26  O   UNL     1      31.362 -24.095 -14.678  0.00  0.00    -0.354 OA
ATOM     27  C   UNL     1      33.743 -22.939 -15.826  0.00  0.00    +0.025 C 
ATOM     28  C   UNL     1      32.541 -23.370 -16.675  0.00  0.00    +0.034 C 
ATOM     29  C   UNL     1      33.756 -23.724 -14.509  0.00  0.00    +0.034 C 
ATOM     30  C   UNL     1      31.255 -23.303 -15.860  0.00  0.00    +0.142 C 
ATOM     31  C   UNL     1      32.402 -23.637 -13.815  0.00  0.00    +0.142 C 
ENDBRANCH  25  27
ENDBRANCH  22  25
ENDBRANCH   4  23
TORSDOF 5
ENDMDL
MODEL 2
REMARK VINA RESULT:     -10.3      1.496      2.179
REMARK  Name = 10253143
REMARK  5 active torsions:
REMARK  status: ('A' for Active; 'I' for Inactive)
REMARK    1  A    between atoms: N_3  and  C_11
REMARK    2  A    between atoms: C_4  and  C_23
REMARK    3  A    between atoms: C_5  and  C_20
REMARK    4  A    between atoms: N_22  and  C_25
REMARK    5  A    between atoms: C_25  and  C_27
REMARK                            x       y       z     vdW  Elec       q    Type
REMARK                         _______ _______ _______ _____ _____    ______ ____
ROOT
ATOM      1  N   UNL     1      34.470 -19.245 -21.077  0.00  0.00    -0.333 NA
ATOM      2  N   UNL     1      36.810 -19.622 -20.643  0.00  0.00    -0.170 NA
ATOM      3  N   UNL     1      36.107 -17.831 -21.985  0.00  0.00    -0.246 N 
ATOM      4  C   UNL     1      35.163 -21.067 -19.714  0.00  0.00    +0.108 C 
ATOM      5  C   UNL     1      34.193 -20.325 -20.317  0.00  0.00    +0.221 C 
ATOM      6  C   UNL     1      36.462 -20.690 -19.896  0.00  0.00    +0.119 C 
ATOM      7  C   UNL     1      35.779 -18.954 -21.196  0.00  0.00    +0.149 C 
ATOM      8  H   UNL     1      37.074 -17.657 -22.045  0.00  0.00    +0.165 HD
ENDROOT
BRANCH   3  11
ATOM      9 CL   UNL     1      34.836 -15.590 -20.366  0.00  0.00    -0.081 Cl
ATOM     10 CL   UNL     1      32.822 -14.009 -25.099  0.00  0.00    -0.082 Cl
ATOM     11  C   UNL     1      35.322 -16.910 -22.703  0.00  0.00    +0.068 C 
ATOM     12  C   UNL     1      34.687 -15.838 -22.069  0.00  0.00    +0.072 C 
ATOM     13  C   UNL     1      35.178 -17.079 -24.084  0.00  0.00    +0.017 C 
ATOM     14  C   UNL     1      33.915 -14.943 -22.809  0.00  0.00    +0.024 C 
ATOM     15  C   UNL     1      34.405 -16.182 -24.823  0.00  0.00    +0.013 C 
ATOM     16  C   UNL     1      33.774 -15.114 -24.185  0.00  0.00    +0.059 C 
ENDBRANCH   3  11
BRANCH   5  20
ATOM     17  F   UNL     1      32.366 -20.899 -18.883  0.00  0.00    -0.164 F 
ATOM     18  F   UNL     1      31.909 -19.682 -20.619  0.00  0.00    -0.164 F 
ATOM     19  F   UNL     1      32.400 -21.786 -20.868  0.00  0.00    -0.164 F 
ATOM     20  C   UNL     1      32.746 -20.664 -20.173  0.00  0.00    +0.447 C 
ENDBRANCH   5  20
BRANCH   4  23
ATOM     21  O   UNL     1      34.514 -23.302 -19.427  0.00  0.00    -0.270 OA
ATOM     22  N   UNL     1      34.983 -22.095 -17.502  0.00  0.00    -0.301 N 
ATOM     23  C   UNL     1      34.848 -22.255 -18.880  0.00  0.00    +0.250 C 
ATOM     24  H   UNL     1      35.257 -21.215 -17.154  0.00  0.00    +0.150 HD
BRANCH  22  25
ATOM     25  C   UNL     1      34.740 -23.154 -16.569  0.00  0.00    +0.090 C 
BRANCH  25  27
ATOM     26  O   UNL     1      37.132 -24.166 -13.184  0.00  0.00    -0.354 OA
ATOM     27  C   UNL     1      35.586 -22.980 -15.311  0.00  0.00    +0.025 C 
ATOM     28  C   UNL     1      34.939 -23.678 -14.109  0.00  0.00    +0.034 C 
ATOM     29  C   UNL     1      37.006 -23.517 -15.522  0.00  0.00    +0.034 C 
ATOM     30  C   UNL     1      35.851 -23.608 -12.891  0.00  0.00    +0.142 C 
ATOM     31  C   UNL     1      37.803 -23.455 -14.224  0.00  0.00    +0.142 C 
ENDBRANCH  25  27
ENDBRANCH  22  25
ENDBRANCH   4  23
TORSDOF 5
ENDMDL
MODEL 3
REMARK VINA RESULT:     -10.2      3.963      8.409
REMARK  Name = 10253143
REMARK  5 active torsions:
REMARK  status: ('A' for Active; 'I' for Inactive)
REMARK    1  A    between atoms: N_3  and  C_11
REMARK    2  A    between atoms: C_4  and  C_23
REMARK    3  A    between atoms: C_5  and  C_20
REMARK    4  A    between atoms: N_22  and  C_25
REMARK    5  A    between atoms: C_25  and  C_27
REMARK                            x       y       z     vdW  Elec       q    Type
REMARK                         _______ _______ _______ _____ _____    ______ ____
ROOT
ATOM      1  N   UNL     1      34.627 -20.945 -19.275  0.00  0.00    -0.333 NA
ATOM      2  N   UNL     1      36.970 -20.881 -19.830  0.00  0.00    -0.170 NA
ATOM      3  N   UNL     1      36.206 -22.092 -17.973  0.00  0.00    -0.246 N 
ATOM      4  C   UNL     1      35.383 -19.711 -21.162  0.00  0.00    +0.108 C 
ATOM      5  C   UNL     1      34.389 -20.154 -20.341  0.00  0.00    +0.221 C 
ATOM      6  C   UNL     1      36.662 -20.091 -20.880  0.00  0.00    +0.119 C 
ATOM      7  C   UNL     1      35.920 -21.266 -19.080  0.00  0.00    +0.149 C 
ATOM      8  H   UNL     1      37.162 -22.299 -17.869  0.00  0.00    +0.165 HD
ENDROOT
BRANCH   3  11
ATOM      9 CL   UNL     1      37.534 -22.683 -15.299  0.00  0.00    -0.081 Cl
ATOM     10 CL   UNL     1      32.693 -24.562 -13.892  0.00  0.00    -0.082 Cl
ATOM     11  C   UNL     1      35.391 -22.679 -16.987  0.00  0.00    +0.068 C 
ATOM     12  C   UNL     1      35.888 -22.996 -15.719  0.00  0.00    +0.072 C 
ATOM     13  C   UNL     1      34.053 -22.948 -17.290  0.00  0.00    +0.017 C 
ATOM     14  C   UNL     1      35.055 -23.578 -14.764  0.00  0.00    +0.024 C 
ATOM     15  C   UNL     1      33.220 -23.530 -16.334  0.00  0.00    +0.013 C 
ATOM     16  C   UNL     1      33.721 -23.845 -15.071  0.00  0.00    +0.059 C 
ENDBRANCH   3  11
BRANCH   5  20
ATOM     17  F   UNL     1      32.761 -18.444 -20.726  0.00  0.00    -0.164 F 
ATOM     18  F   UNL     1      32.427 -20.357 -21.692  0.00  0.00    -0.164 F 
ATOM     19  F   UNL     1      32.149 -20.164 -19.544  0.00  0.00    -0.164 F 
ATOM     20  C   UNL     1      32.961 -19.786 -20.573  0.00  0.00    +0.447 C 
ENDBRANCH   5  20
BRANCH   4  23
ATOM     21  O   UNL     1      34.714 -19.343 -23.379  0.00  0.00    -0.270 OA
ATOM     22  N   UNL     1      35.313 -17.473 -22.145  0.00  0.00    -0.301 N 
ATOM     23  C   UNL     1      35.112 -18.838 -22.333  0.00  0.00    +0.250 C 
ATOM     24  H   UNL     1      35.635 -17.160 -21.268  0.00  0.00    +0.150 HD
BRANCH  22  25
ATOM     25  C   UNL     1      35.071 -16.502 -23.170  0.00  0.00    +0.090 C 
BRANCH  25  27
ATOM     26  O   UNL     1      32.135 -13.730 -21.796  0.00  0.00    -0.354 OA
ATOM     27  C   UNL     1      34.469 -15.228 -22.587  0.00  0.00    +0.025 C 
ATOM     28  C   UNL     1      33.546 -14.539 -23.600  0.00  0.00    +0.034 C 
ATOM     29  C   UNL     1      33.697 -15.521 -21.296  0.00  0.00    +0.034 C 
ATOM     30  C   UNL     1      32.852 -13.340 -22.966  0.00  0.00    +0.142 C 
ATOM     31  C   UNL     1      32.994 -14.267 -20.791  0.00  0.00    +0.142 C 
ENDBRANCH  25  27
ENDBRANCH  22  25
ENDBRANCH   4  23
TORSDOF 5
ENDMDL
MODEL 4
REMARK VINA RESULT:     -10.1      5.022      9.225
REMARK  Name = 10253143
REMARK  5 active torsions:
REMARK  status: ('A' for Active; 'I' for Inactive)
REMARK    1  A    between atoms: N_3  and  C_11
REMARK    2  A    between atoms: C_4  and  C_23
REMARK    3  A    between atoms: C_5  and  C_20
REMARK    4  A    between atoms: N_22  and  C_25
REMARK    5  A    between atoms: C_25  and  C_27
REMARK                            x       y       z     vdW  Elec       q    Type
REMARK                         _______ _______ _______ _____ _____    ______ ____
ROOT
ATOM      1  N   UNL     1      34.488 -17.016 -21.508  0.00  0.00    -0.333 NA
ATOM      2  N   UNL     1      34.359 -17.385 -23.886  0.00  0.00    -0.170 NA
ATOM      3  N   UNL     1      34.964 -19.121 -22.428  0.00  0.00    -0.246 N 
ATOM      4  C   UNL     1      33.873 -15.243 -22.970  0.00  0.00    +0.108 C 
ATOM      5  C   UNL     1      34.124 -15.735 -21.724  0.00  0.00    +0.221 C 
ATOM      6  C   UNL     1      34.000 -16.093 -24.029  0.00  0.00    +0.119 C 
ATOM      7  C   UNL     1      34.585 -17.774 -22.616  0.00  0.00    +0.149 C 
ATOM      8  H   UNL     1      35.023 -19.637 -23.264  0.00  0.00    +0.165 HD
ENDROOT
BRANCH   3  11
ATOM      9 CL   UNL     1      32.609 -20.342 -20.938  0.00  0.00    -0.081 Cl
ATOM     10 CL   UNL     1      36.373 -22.258 -17.605  0.00  0.00    -0.082 Cl
ATOM     11  C   UNL     1      35.274 -19.871 -21.278  0.00  0.00    +0.068 C 
ATOM     12  C   UNL     1      34.277 -20.480 -20.511  0.00  0.00    +0.072 C 
ATOM     13  C   UNL     1      36.614 -20.005 -20.901  0.00  0.00    +0.017 C 
ATOM     14  C   UNL     1      34.617 -21.217 -19.377  0.00  0.00    +0.024 C 
ATOM     15  C   UNL     1      36.952 -20.743 -19.766  0.00  0.00    +0.013 C 
ATOM     16  C   UNL     1      35.954 -21.349 -19.004  0.00  0.00    +0.059 C 
ENDBRANCH   3  11
BRANCH   5  20
ATOM     17  F   UNL     1      34.534 -13.625 -20.672  0.00  0.00    -0.164 F 
ATOM     18  F   UNL     1      32.725 -14.677 -20.099  0.00  0.00    -0.164 F 
ATOM     19  F   UNL     1      34.661 -15.406 -19.431  0.00  0.00    -0.164 F 
ATOM     20  C   UNL     1      34.012 -14.877 -20.507  0.00  0.00    +0.447 C 
ENDBRANCH   5  20
BRANCH   4  23
ATOM     21  O   UNL     1      34.218 -13.093 -23.839  0.00  0.00    -0.270 OA
ATOM     22  N   UNL     1      32.244 -13.444 -22.673  0.00  0.00    -0.301 N 
ATOM     23  C   UNL     1      33.475 -13.830 -23.198  0.00  0.00    +0.250 C 
ATOM     24  H   UNL     1      31.716 -14.108 -22.171  0.00  0.00    +0.150 HD
BRANCH  22  25
ATOM     25  C   UNL     1      31.711 -12.124 -22.831  0.00  0.00    +0.090 C 
BRANCH  25  27
ATOM     26  O   UNL     1      31.453  -9.258 -19.681  0.00  0.00    -0.354 OA
ATOM     27  C   UNL     1      32.142 -11.218 -21.682  0.00  0.00    +0.025 C 
ATOM     28  C   UNL     1      31.898  -9.743 -22.020  0.00  0.00    +0.034 C 
ATOM     29  C   UNL     1      31.411 -11.582 -20.385  0.00  0.00    +0.034 C 
ATOM     30  C   UNL     1      32.212  -8.857 -20.821  0.00  0.00    +0.142 C 
ATOM     31  C   UNL     1      31.754 -10.594 -19.277  0.00  0.00    +0.142 C 
ENDBRANCH  25  27
ENDBRANCH  22  25
ENDBRANCH   4  23
TORSDOF 5
ENDMDL
MODEL 5
REMARK VINA RESULT:     -10.1      7.428     12.145
REMARK  Name = 10253143
REMARK  5 active torsions:
REMARK  status: ('A' for Active; 'I' for Inactive)
REMARK    1  A    between atoms: N_3  and  C_11
REMARK    2  A    between atoms: C_4  and  C_23
REMARK    3  A    between atoms: C_5  and  C_20
REMARK    4  A    between atoms: N_22  and  C_25
REMARK    5  A    between atoms: C_25  and  C_27
REMARK                            x       y       z     vdW  Elec       q    Type
REMARK                         _______ _______ _______ _____ _____    ______ ____
ROOT
ATOM      1  N   UNL     1      33.111 -13.067 -22.320  0.00  0.00    -0.333 NA
ATOM      2  N   UNL     1      33.986 -12.117 -24.354  0.00  0.00    -0.170 NA
ATOM      3  N   UNL     1      34.501 -14.320 -23.734  0.00  0.00    -0.246 N 
ATOM      4  C   UNL     1      32.578 -10.831 -22.930  0.00  0.00    +0.108 C 
ATOM      5  C   UNL     1      32.486 -11.895 -22.084  0.00  0.00    +0.221 C 
ATOM      6  C   UNL     1      33.335 -10.973 -24.056  0.00  0.00    +0.119 C 
ATOM      7  C   UNL     1      33.833 -13.108 -23.456  0.00  0.00    +0.149 C 
ATOM      8  H   UNL     1      35.016 -14.305 -24.573  0.00  0.00    +0.165 HD
ENDROOT
BRANCH   3  11
ATOM      9 CL   UNL     1      34.676 -16.821 -25.459  0.00  0.00    -0.081 Cl
ATOM     10 CL   UNL     1      34.804 -19.431 -20.755  0.00  0.00    -0.082 Cl
ATOM     11  C   UNL     1      34.574 -15.547 -23.049  0.00  0.00    +0.068 C 
ATOM     12  C   UNL     1      34.658 -16.763 -23.732  0.00  0.00    +0.072 C 
ATOM     13  C   UNL     1      34.562 -15.540 -21.651  0.00  0.00    +0.017 C 
ATOM     14  C   UNL     1      34.729 -17.963 -23.024  0.00  0.00    +0.024 C 
ATOM     15  C   UNL     1      34.633 -16.741 -20.943  0.00  0.00    +0.013 C 
ATOM     16  C   UNL     1      34.716 -17.952 -21.630  0.00  0.00    +0.059 C 
ENDBRANCH   3  11
BRANCH   5  20
ATOM     17  F   UNL     1      31.988 -10.758 -20.039  0.00  0.00    -0.164 F 
ATOM     18  F   UNL     1      30.336 -11.736 -21.048  0.00  0.00    -0.164 F 
ATOM     19  F   UNL     1      31.850 -12.927 -20.039  0.00  0.00    -0.164 F 
ATOM     20  C   UNL     1      31.681 -11.828 -20.828  0.00  0.00    +0.447 C 
ENDBRANCH   5  20
BRANCH   4  23
ATOM     21  O   UNL     1      30.697  -9.431 -22.938  0.00  0.00    -0.270 OA
ATOM     22  N   UNL     1      32.659  -8.540 -22.078  0.00  0.00    -0.301 N 
ATOM     23  C   UNL     1      31.887  -9.543 -22.661  0.00  0.00    +0.250 C 
ATOM     24  H   UNL     1      33.609  -8.723 -21.893  0.00  0.00    +0.150 HD
BRANCH  22  25
ATOM     25  C   UNL     1      32.131  -7.253 -21.736  0.00  0.00    +0.090 C 
BRANCH  25  27
ATOM     26  O   UNL     1      32.159  -5.478 -25.615  0.00  0.00    -0.354 OA
ATOM     27  C   UNL     1      32.399  -6.239 -22.844  0.00  0.00    +0.025 C 
ATOM     28  C   UNL     1      33.278  -6.842 -23.945  0.00  0.00    +0.034 C 
ATOM     29  C   UNL     1      31.089  -5.721 -23.449  0.00  0.00    +0.034 C 
ATOM     30  C   UNL     1      33.433  -5.865 -25.105  0.00  0.00    +0.142 C 
ATOM     31  C   UNL     1      31.367  -4.807 -24.635  0.00  0.00    +0.142 C 
ENDBRANCH  25  27
ENDBRANCH  22  25
ENDBRANCH   4  23
TORSDOF 5
ENDMDL
MODEL 6
REMARK VINA RESULT:     -10.0      4.000      8.508
REMARK  Name = 10253143
REMARK  5 active torsions:
REMARK  status: ('A' for Active; 'I' for Inactive)
REMARK    1  A    between atoms: N_3  and  C_11
REMARK    2  A    between atoms: C_4  and  C_23
REMARK    3  A    between atoms: C_5  and  C_20
REMARK    4  A    between atoms: N_22  and  C_25
REMARK    5  A    between atoms: C_25  and  C_27
REMARK                            x       y       z     vdW  Elec       q    Type
REMARK                         _______ _______ _______ _____ _____    ______ ____
ROOT
ATOM      1  N   UNL     1      34.443 -21.136 -19.104  0.00  0.00    -0.333 NA
ATOM      2  N   UNL     1      36.811 -21.208 -19.548  0.00  0.00    -0.170 NA
ATOM      3  N   UNL     1      35.889 -22.378 -17.736  0.00  0.00    -0.246 N 
ATOM      4  C   UNL     1      35.359 -19.943 -20.946  0.00  0.00    +0.108 C 
ATOM      5  C   UNL     1      34.304 -20.329 -20.176  0.00  0.00    +0.221 C 
ATOM      6  C   UNL     1      36.599 -20.398 -20.607  0.00  0.00    +0.119 C 
ATOM      7  C   UNL     1      35.705 -21.533 -18.851  0.00  0.00    +0.149 C 
ATOM      8  H   UNL     1      36.826 -22.642 -17.588  0.00  0.00    +0.165 HD
ENDROOT
BRANCH   3  11
ATOM      9 CL   UNL     1      37.089 -23.230 -15.072  0.00  0.00    -0.081 Cl
ATOM     10 CL   UNL     1      32.046 -24.643 -13.838  0.00  0.00    -0.082 Cl
ATOM     11  C   UNL     1      34.995 -22.919 -16.793  0.00  0.00    +0.068 C 
ATOM     12  C   UNL     1      35.428 -23.346 -15.534  0.00  0.00    +0.072 C 
ATOM     13  C   UNL     1      33.643 -23.028 -17.131  0.00  0.00    +0.017 C 
ATOM     14  C   UNL     1      34.517 -23.878 -14.622  0.00  0.00    +0.024 C 
ATOM     15  C   UNL     1      32.732 -23.561 -16.218  0.00  0.00    +0.013 C 
ATOM     16  C   UNL     1      33.170 -23.986 -14.963  0.00  0.00    +0.059 C 
ENDBRANCH   3  11
BRANCH   5  20
ATOM     17  F   UNL     1      32.802 -18.528 -20.651  0.00  0.00    -0.164 F 
ATOM     18  F   UNL     1      32.390 -20.432 -21.606  0.00  0.00    -0.164 F 
ATOM     19  F   UNL     1      32.036 -20.188 -19.475  0.00  0.00    -0.164 F 
ATOM     20  C   UNL     1      32.912 -19.877 -20.473  0.00  0.00    +0.447 C 
ENDBRANCH   5  20
BRANCH   4  23
ATOM     21  O   UNL     1      34.865 -19.537 -23.202  0.00  0.00    -0.270 OA
ATOM     22  N   UNL     1      35.414 -17.694 -21.905  0.00  0.00    -0.301 N 
ATOM     23  C   UNL     1      35.196 -19.052 -22.124  0.00  0.00    +0.250 C 
ATOM     24  H   UNL     1      35.678 -17.398 -21.003  0.00  0.00    +0.150 HD
BRANCH  22  25
ATOM     25  C   UNL     1      35.272 -16.707 -22.934  0.00  0.00    +0.090 C 
BRANCH  25  27
ATOM     26  O   UNL     1      32.818 -13.394 -21.839  0.00  0.00    -0.354 OA
ATOM     27  C   UNL     1      34.018 -15.865 -22.716  0.00  0.00    +0.025 C 
ATOM     28  C   UNL     1      33.839 -15.514 -21.235  0.00  0.00    +0.034 C 
ATOM     29  C   UNL     1      34.062 -14.582 -23.553  0.00  0.00    +0.034 C 
ATOM     30  C   UNL     1      32.658 -14.569 -21.045  0.00  0.00    +0.142 C 
ATOM     31  C   UNL     1      32.869 -13.689 -23.234  0.00  0.00    +0.142 C 
ENDBRANCH  25  27
ENDBRANCH  22  25
ENDBRANCH   4  23
TORSDOF 5
ENDMDL
MODEL 7
REMARK VINA RESULT:      -9.7      5.201     10.025
REMARK  Name = 10253143
REMARK  5 active torsions:
REMARK  status: ('A' for Active; 'I' for Inactive)
REMARK    1  A    between atoms: N_3  and  C_11
REMARK    2  A    between atoms: C_4  and  C_23
REMARK    3  A    between atoms: C_5  and  C_20
REMARK    4  A    between atoms: N_22  and  C_25
REMARK    5  A    between atoms: C_25  and  C_27
REMARK                            x       y       z     vdW  Elec       q    Type
REMARK                         _______ _______ _______ _____ _____    ______ ____
ROOT
ATOM      1  N   UNL     1      34.238 -16.610 -22.407  0.00  0.00    -0.333 NA
ATOM      2  N   UNL     1      34.619 -16.967 -24.759  0.00  0.00    -0.170 NA
ATOM      3  N   UNL     1      35.150 -18.625 -23.187  0.00  0.00    -0.246 N 
ATOM      4  C   UNL     1      33.693 -14.916 -23.985  0.00  0.00    +0.108 C 
ATOM      5  C   UNL     1      33.760 -15.384 -22.707  0.00  0.00    +0.221 C 
ATOM      6  C   UNL     1      34.130 -15.730 -24.988  0.00  0.00    +0.119 C 
ATOM      7  C   UNL     1      34.644 -17.337 -23.464  0.00  0.00    +0.149 C 
ATOM      8  H   UNL     1      35.435 -19.120 -23.989  0.00  0.00    +0.165 HD
ENDROOT
BRANCH   3  11
ATOM      9 CL   UNL     1      37.968 -18.664 -22.040  0.00  0.00    -0.081 Cl
ATOM     10 CL   UNL     1      35.788 -21.668 -18.144  0.00  0.00    -0.082 Cl
ATOM     11  C   UNL     1      35.327 -19.342 -21.989  0.00  0.00    +0.068 C 
ATOM     12  C   UNL     1      36.575 -19.431 -21.366  0.00  0.00    +0.072 C 
ATOM     13  C   UNL     1      34.222 -19.977 -21.414  0.00  0.00    +0.017 C 
ATOM     14  C   UNL     1      36.717 -20.150 -20.179  0.00  0.00    +0.024 C 
ATOM     15  C   UNL     1      34.365 -20.695 -20.226  0.00  0.00    +0.013 C 
ATOM     16  C   UNL     1      35.613 -20.781 -19.609  0.00  0.00    +0.059 C 
ENDBRANCH   3  11
BRANCH   5  20
ATOM     17  F   UNL     1      33.705 -13.257 -21.614  0.00  0.00    -0.164 F 
ATOM     18  F   UNL     1      31.948 -14.513 -21.413  0.00  0.00    -0.164 F 
ATOM     19  F   UNL     1      33.777 -15.029 -20.357  0.00  0.00    -0.164 F 
ATOM     20  C   UNL     1      33.306 -14.561 -21.548  0.00  0.00    +0.447 C 
ENDBRANCH   5  20
BRANCH   4  23
ATOM     21  O   UNL     1      31.958 -13.360 -24.245  0.00  0.00    -0.270 OA
ATOM     22  N   UNL     1      34.113 -12.598 -24.640  0.00  0.00    -0.301 N 
ATOM     23  C   UNL     1      33.167 -13.564 -24.307  0.00  0.00    +0.250 C 
ATOM     24  H   UNL     1      35.064 -12.856 -24.663  0.00  0.00    +0.150 HD
BRANCH  22  25
ATOM     25  C   UNL     1      33.766 -11.243 -24.950  0.00  0.00    +0.090 C 
BRANCH  25  27
ATOM     26  O   UNL     1      33.016  -7.966 -22.324  0.00  0.00    -0.354 OA
ATOM     27  C   UNL     1      33.832 -10.362 -23.707  0.00  0.00    +0.025 C 
ATOM     28  C   UNL     1      34.407  -8.980 -24.039  0.00  0.00    +0.034 C 
ATOM     29  C   UNL     1      32.449 -10.209 -23.063  0.00  0.00    +0.034 C 
ATOM     30  C   UNL     1      34.350  -8.067 -22.820  0.00  0.00    +0.142 C 
ATOM     31  C   UNL     1      32.503  -9.227 -21.898  0.00  0.00    +0.142 C 
ENDBRANCH  25  27
ENDBRANCH  22  25
ENDBRANCH   4  23
TORSDOF 5
ENDMDL
MODEL 8
REMARK VINA RESULT:      -9.7      6.404      9.315
REMARK  Name = 10253143
REMARK  5 active torsions:
REMARK  status: ('A' for Active; 'I' for Inactive)
REMARK    1  A    between atoms: N_3  and  C_11
REMARK    2  A    between atoms: C_4  and  C_23
REMARK    3  A    between atoms: C_5  and  C_20
REMARK    4  A    between atoms: N_22  and  C_25
REMARK    5  A    between atoms: C_25  and  C_27
REMARK                            x       y       z     vdW  Elec       q    Type
REMARK                         _______ _______ _______ _____ _____    ______ ____
ROOT
ATOM      1  N   UNL     1      32.332 -11.031 -22.294  0.00  0.00    -0.333 NA
ATOM      2  N   UNL     1      31.594 -11.258 -20.012  0.00  0.00    -0.170 NA
ATOM      3  N   UNL     1      31.459  -9.196 -21.121  0.00  0.00    -0.246 N 
ATOM      4  C   UNL     1      32.478 -13.130 -21.186  0.00  0.00    +0.108 C 
ATOM      5  C   UNL     1      32.659 -12.339 -22.281  0.00  0.00    +0.221 C 
ATOM      6  C   UNL     1      31.943 -12.561 -20.068  0.00  0.00    +0.119 C 
ATOM      7  C   UNL     1      31.812 -10.562 -21.144  0.00  0.00    +0.149 C 
ATOM      8  H   UNL     1      31.084  -8.898 -20.262  0.00  0.00    +0.165 HD
ENDROOT
BRANCH   3  11
ATOM      9 CL   UNL     1      32.600  -6.534 -20.187  0.00  0.00    -0.081 Cl
ATOM     10 CL   UNL     1      31.743  -4.969 -25.262  0.00  0.00    -0.082 Cl
ATOM     11  C   UNL     1      31.537  -8.176 -22.088  0.00  0.00    +0.068 C 
ATOM     12  C   UNL     1      32.043  -6.910 -21.778  0.00  0.00    +0.072 C 
ATOM     13  C   UNL     1      31.095  -8.443 -23.387  0.00  0.00    +0.017 C 
ATOM     14  C   UNL     1      32.106  -5.921 -22.758  0.00  0.00    +0.024 C 
ATOM     15  C   UNL     1      31.158  -7.452 -24.367  0.00  0.00    +0.013 C 
ATOM     16  C   UNL     1      31.664  -6.191 -24.053  0.00  0.00    +0.059 C 
ENDBRANCH   3  11
BRANCH   5  20
ATOM     17  F   UNL     1      34.523 -13.322 -23.414  0.00  0.00    -0.164 F 
ATOM     18  F   UNL     1      32.545 -13.938 -24.055  0.00  0.00    -0.164 F 
ATOM     19  F   UNL     1      33.272 -11.948 -24.544  0.00  0.00    -0.164 F 
ATOM     20  C   UNL     1      33.239 -12.878 -23.547  0.00  0.00    +0.447 C 
ENDBRANCH   5  20
BRANCH   4  23
ATOM     21  O   UNL     1      31.981 -15.409 -21.428  0.00  0.00    -0.270 OA
ATOM     22  N   UNL     1      34.176 -14.868 -20.909  0.00  0.00    -0.301 N 
ATOM     23  C   UNL     1      32.842 -14.570 -21.180  0.00  0.00    +0.250 C 
ATOM     24  H   UNL     1      34.795 -14.126 -20.721  0.00  0.00    +0.150 HD
BRANCH  22  25
ATOM     25  C   UNL     1      34.686 -16.206 -20.892  0.00  0.00    +0.090 C 
BRANCH  25  27
ATOM     26  O   UNL     1      35.281 -18.439 -24.478  0.00  0.00    -0.354 OA
ATOM     27  C   UNL     1      34.367 -16.931 -22.196  0.00  0.00    +0.025 C 
ATOM     28  C   UNL     1      35.088 -16.280 -23.382  0.00  0.00    +0.034 C 
ATOM     29  C   UNL     1      34.743 -18.415 -22.110  0.00  0.00    +0.034 C 
ATOM     30  C   UNL     1      34.864 -17.086 -24.655  0.00  0.00    +0.142 C 
ATOM     31  C   UNL     1      34.538 -19.101 -23.455  0.00  0.00    +0.142 C 
ENDBRANCH  25  27
ENDBRANCH  22  25
ENDBRANCH   4  23
TORSDOF 5
ENDMDL
MODEL 9
REMARK VINA RESULT:      -9.6      3.937      6.343
REMARK  Name = 10253143
REMARK  5 active torsions:
REMARK  status: ('A' for Active; 'I' for Inactive)
REMARK    1  A    between atoms: N_3  and  C_11
REMARK    2  A    between atoms: C_4  and  C_23
REMARK    3  A    between atoms: C_5  and  C_20
REMARK    4  A    between atoms: N_22  and  C_25
REMARK    5  A    between atoms: C_25  and  C_27
REMARK                            x       y       z     vdW  Elec       q    Type
REMARK                         _______ _______ _______ _____ _____    ______ ____
ROOT
ATOM      1  N   UNL     1      33.665 -13.999 -22.775  0.00  0.00    -0.333 NA
ATOM      2  N   UNL     1      34.021 -14.389 -25.126  0.00  0.00    -0.170 NA
ATOM      3  N   UNL     1      33.418 -12.264 -24.335  0.00  0.00    -0.246 N 
ATOM      4  C   UNL     1      34.276 -16.160 -23.558  0.00  0.00    +0.108 C 
ATOM      5  C   UNL     1      33.955 -15.298 -22.553  0.00  0.00    +0.221 C 
ATOM      6  C   UNL     1      34.300 -15.676 -24.833  0.00  0.00    +0.119 C 
ATOM      7  C   UNL     1      33.716 -13.617 -24.065  0.00  0.00    +0.149 C 
ATOM      8  H   UNL     1      33.467 -12.030 -25.290  0.00  0.00    +0.165 HD
ENDROOT
BRANCH   3  11
ATOM      9 CL   UNL     1      34.956  -9.674 -24.766  0.00  0.00    -0.081 Cl
ATOM     10 CL   UNL     1      31.858  -7.776 -20.797  0.00  0.00    -0.082 Cl
ATOM     11  C   UNL     1      33.065 -11.183 -23.506  0.00  0.00    +0.068 C 
ATOM     12  C   UNL     1      33.701  -9.943 -23.610  0.00  0.00    +0.072 C 
ATOM     13  C   UNL     1      32.053 -11.362 -22.558  0.00  0.00    +0.017 C 
ATOM     14  C   UNL     1      33.328  -8.891 -22.773  0.00  0.00    +0.024 C 
ATOM     15  C   UNL     1      31.681 -10.310 -21.722  0.00  0.00    +0.013 C 
ATOM     16  C   UNL     1      32.318  -9.074 -21.830  0.00  0.00    +0.059 C 
ENDBRANCH   3  11
BRANCH   5  20
ATOM     17  F   UNL     1      33.405 -14.794 -20.280  0.00  0.00    -0.164 F 
ATOM     18  F   UNL     1      33.122 -16.844 -20.931  0.00  0.00    -0.164 F 
ATOM     19  F   UNL     1      35.131 -16.067 -20.636  0.00  0.00    -0.164 F 
ATOM     20  C   UNL     1      33.902 -15.741 -21.129  0.00  0.00    +0.447 C 
ENDBRANCH   5  20
BRANCH   4  23
ATOM     21  O   UNL     1      34.011 -18.457 -23.949  0.00  0.00    -0.270 OA
ATOM     22  N   UNL     1      35.568 -17.844 -22.343  0.00  0.00    -0.301 N 
ATOM     23  C   UNL     1      34.592 -17.589 -23.304  0.00  0.00    +0.250 C 
ATOM     24  H   UNL     1      35.979 -17.080 -21.876  0.00  0.00    +0.150 HD
BRANCH  22  25
ATOM     25  C   UNL     1      35.999 -19.167 -22.004  0.00  0.00    +0.090 C 
BRANCH  25  27
ATOM     26  O   UNL     1      33.734 -21.784 -19.511  0.00  0.00    -0.354 OA
ATOM     27  C   UNL     1      35.257 -19.688 -20.778  0.00  0.00    +0.025 C 
ATOM     28  C   UNL     1      33.778 -19.940 -21.092  0.00  0.00    +0.034 C 
ATOM     29  C   UNL     1      35.902 -20.973 -20.246  0.00  0.00    +0.034 C 
ATOM     30  C   UNL     1      33.076 -20.580 -19.900  0.00  0.00    +0.142 C 
ATOM     31  C   UNL     1      35.082 -21.554 -19.101  0.00  0.00    +0.142 C 
ENDBRANCH  25  27
ENDBRANCH  22  25
ENDBRANCH   4  23
TORSDOF 5
ENDMDL
