MODEL 1
REMARK VINA RESULT:      -9.7      0.000      0.000
REMARK  Name = 5773
REMARK  6 active torsions:
REMARK  status: ('A' for Active; 'I' for Inactive)
REMARK    1  A    between atoms: CA_5  and  N_11
REMARK    2  A    between atoms: CA_7  and  C_22
REMARK    3  A    between atoms: C_8  and  C_23
REMARK    4  A    between atoms: C_12  and  C_14
REMARK    5  A    between atoms: C_14  and  C_16
REMARK    6  A    between atoms: C_23  and  N_24
REMARK                            x       y       z     vdW  Elec       q    Type
REMARK                         _______ _______ _______ _____ _____    ______ ____
ROOT
ATOM      1  S   UNL     1      34.495 -15.653 -21.047  0.00  0.00    -0.114 S 
ATOM      2  O   UNL     1      33.392 -14.903 -25.503  0.00  0.00    -0.273 OA
ATOM      3  N   UNL     1      34.541 -15.874 -23.690  0.00  0.00    -0.242 N 
ATOM      4  C   UNL     1      35.052 -15.012 -22.643  0.00  0.00    +0.155 C 
ATOM      5  CA  UNL     1      34.191 -13.896 -23.277  0.00  0.00    +0.178 C 
ATOM      6  C   UNL     1      33.947 -14.914 -24.429  0.00  0.00    +0.251 C 
ATOM      7  CA  UNL     1      34.711 -17.220 -23.725  0.00  0.00    +0.129 C 
ATOM      8  C   UNL     1      35.130 -17.900 -22.633  0.00  0.00    +0.007 C 
ATOM      9  C   UNL     1      35.346 -17.252 -21.268  0.00  0.00    +0.084 C 
ENDROOT
BRANCH   5  11
ATOM     10  O   UNL     1      32.881 -11.330 -23.453  0.00  0.00    -0.275 OA
ATOM     11  N   UNL     1      32.967 -13.483 -22.593  0.00  0.00    -0.296 N 
ATOM     12  C   UNL     1      32.408 -12.215 -22.742  0.00  0.00    +0.228 C 
ATOM     13  H   UNL     1      32.517 -14.129 -22.001  0.00  0.00    +0.150 HD
BRANCH  12  14
ATOM     14  C   UNL     1      31.131 -12.016 -21.952  0.00  0.00    +0.118 C 
BRANCH  14  16
ATOM     15  S   UNL     1      31.774  -9.450 -21.165  0.00  0.00    -0.090 S 
ATOM     16  C   UNL     1      31.400 -11.071 -20.813  0.00  0.00    +0.016 C 
ATOM     17  C   UNL     1      31.384 -11.348 -19.479  0.00  0.00    +0.003 C 
ATOM     18  C   UNL     1      31.690 -10.190 -18.707  0.00  0.00    +0.007 C 
ATOM     19  C   UNL     1      31.924  -9.088 -19.499  0.00  0.00    +0.035 C 
ENDBRANCH  14  16
ENDBRANCH  12  14
ENDBRANCH   5  11
BRANCH   7  22
ATOM     20  O   UNL     1      35.040 -17.573 -26.022  0.00  0.00    -0.239 OA
ATOM     21  OXT UNL     1      33.507 -18.853 -24.905  0.00  0.00    -0.239 OA
ATOM     22  C   UNL     1      34.385 -17.959 -25.018  0.00  0.00    +0.401 C 
ENDBRANCH   7  22
BRANCH   8  23
ATOM     23  C   UNL     1      35.371 -19.392 -22.586  0.00  0.00    +0.116 C 
BRANCH  23  24
ATOM     24  N   UNL     1      34.635 -19.981 -21.457  0.00  0.00    -0.299 N 
ATOM     25  C   UNL     1      33.337 -19.699 -21.329  0.00  0.00    +0.118 C 
ATOM     26  C   UNL     1      35.298 -20.773 -20.610  0.00  0.00    +0.062 C 
ATOM     27  C   UNL     1      32.617 -20.241 -20.274  0.00  0.00    -0.005 C 
ATOM     28  C   UNL     1      34.628 -21.343 -19.537  0.00  0.00    +0.016 C 
ATOM     29  C   UNL     1      33.274 -21.072 -19.371  0.00  0.00    -0.002 C 
ENDBRANCH  23  24
ENDBRANCH   8  23
TORSDOF 6
ENDMDL
MODEL 2
REMARK VINA RESULT:      -9.5      6.742     11.709
REMARK  Name = 5773
REMARK  6 active torsions:
REMARK  status: ('A' for Active; 'I' for Inactive)
REMARK    1  A    between atoms: CA_5  and  N_11
REMARK    2  A    between atoms: CA_7  and  C_22
REMARK    3  A    between atoms: C_8  and  C_23
REMARK    4  A    between atoms: C_12  and  C_14
REMARK    5  A    between atoms: C_14  and  C_16
REMARK    6  A    between atoms: C_23  and  N_24
REMARK                            x       y       z     vdW  Elec       q    Type
REMARK                         _______ _______ _______ _____ _____    ______ ____
ROOT
ATOM      1  S   UNL     1      37.300 -22.443 -16.166  0.00  0.00    -0.114 S 
ATOM      2  O   UNL     1      32.925 -23.968 -15.762  0.00  0.00    -0.273 OA
ATOM      3  N   UNL     1      34.696 -22.670 -16.615  0.00  0.00    -0.242 N 
ATOM      4  C   UNL     1      35.607 -22.032 -15.686  0.00  0.00    +0.155 C 
ATOM      5  CA  UNL     1      34.963 -22.921 -14.597  0.00  0.00    +0.178 C 
ATOM      6  C   UNL     1      33.935 -23.308 -15.701  0.00  0.00    +0.251 C 
ATOM      7  CA  UNL     1      34.764 -22.541 -17.965  0.00  0.00    +0.129 C 
ATOM      8  C   UNL     1      35.866 -22.034 -18.563  0.00  0.00    +0.007 C 
ATOM      9  C   UNL     1      37.141 -21.664 -17.809  0.00  0.00    +0.084 C 
ENDROOT
BRANCH   5  11
ATOM     10  O   UNL     1      35.403 -23.608 -11.828  0.00  0.00    -0.275 OA
ATOM     11  N   UNL     1      35.724 -24.057 -14.082  0.00  0.00    -0.296 N 
ATOM     12  C   UNL     1      35.881 -24.307 -12.720  0.00  0.00    +0.228 C 
ATOM     13  H   UNL     1      36.143 -24.673 -14.725  0.00  0.00    +0.150 HD
BRANCH  12  14
ATOM     14  C   UNL     1      36.694 -25.550 -12.419  0.00  0.00    +0.118 C 
BRANCH  14  16
ATOM     15  S   UNL     1      38.005 -26.494 -14.656  0.00  0.00    -0.090 S 
ATOM     16  C   UNL     1      37.944 -25.533 -13.255  0.00  0.00    +0.016 C 
ATOM     17  C   UNL     1      39.086 -24.823 -13.032  0.00  0.00    +0.003 C 
ATOM     18  C   UNL     1      40.055 -25.070 -14.046  0.00  0.00    +0.007 C 
ATOM     19  C   UNL     1      39.597 -25.960 -14.993  0.00  0.00    +0.035 C 
ENDBRANCH  14  16
ENDBRANCH  12  14
ENDBRANCH   5  11
BRANCH   7  22
ATOM     20  O   UNL     1      32.552 -22.298 -18.708  0.00  0.00    -0.239 OA
ATOM     21  OXT UNL     1      33.794 -24.063 -19.466  0.00  0.00    -0.239 OA
ATOM     22  C   UNL     1      33.581 -23.017 -18.800  0.00  0.00    +0.401 C 
ENDBRANCH   7  22
BRANCH   8  23
ATOM     23  C   UNL     1      36.023 -21.832 -20.053  0.00  0.00    +0.116 C 
BRANCH  23  24
ATOM     24  N   UNL     1      35.518 -20.503 -20.432  0.00  0.00    -0.299 N 
ATOM     25  C   UNL     1      36.399 -19.518 -20.615  0.00  0.00    +0.118 C 
ATOM     26  C   UNL     1      34.201 -20.342 -20.578  0.00  0.00    +0.062 C 
ATOM     27  C   UNL     1      35.952 -18.254 -20.975  0.00  0.00    -0.005 C 
ATOM     28  C   UNL     1      33.697 -19.099 -20.936  0.00  0.00    +0.016 C 
ATOM     29  C   UNL     1      34.586 -18.048 -21.136  0.00  0.00    -0.002 C 
ENDBRANCH  23  24
ENDBRANCH   8  23
TORSDOF 6
ENDMDL
MODEL 3
REMARK VINA RESULT:      -9.0      5.117      8.437
REMARK  Name = 5773
REMARK  6 active torsions:
REMARK  status: ('A' for Active; 'I' for Inactive)
REMARK    1  A    between atoms: CA_5  and  N_11
REMARK    2  A    between atoms: CA_7  and  C_22
REMARK    3  A    between atoms: C_8  and  C_23
REMARK    4  A    between atoms: C_12  and  C_14
REMARK    5  A    between atoms: C_14  and  C_16
REMARK    6  A    between atoms: C_23  and  N_24
REMARK                            x       y       z     vdW  Elec       q    Type
REMARK                         _______ _______ _______ _____ _____    ______ ____
ROOT
ATOM      1  S   UNL     1      37.152 -20.877 -17.784  0.00  0.00    -0.114 S 
ATOM      2  O   UNL     1      33.008 -21.941 -19.609  0.00  0.00    -0.273 OA
ATOM      3  N   UNL     1      34.942 -22.251 -18.300  0.00  0.00    -0.242 N 
ATOM      4  C   UNL     1      36.237 -21.977 -18.889  0.00  0.00    +0.155 C 
ATOM      5  CA  UNL     1      35.460 -21.304 -20.044  0.00  0.00    +0.178 C 
ATOM      6  C   UNL     1      34.190 -21.891 -19.360  0.00  0.00    +0.251 C 
ATOM      7  CA  UNL     1      34.759 -22.719 -17.039  0.00  0.00    +0.129 C 
ATOM      8  C   UNL     1      35.762 -22.697 -16.132  0.00  0.00    +0.007 C 
ATOM      9  C   UNL     1      37.127 -22.067 -16.400  0.00  0.00    +0.084 C 
ENDROOT
BRANCH   5  11
ATOM     10  O   UNL     1      34.135 -19.678 -22.027  0.00  0.00    -0.275 OA
ATOM     11  N   UNL     1      35.458 -19.845 -20.128  0.00  0.00    -0.296 N 
ATOM     12  C   UNL     1      34.785 -19.146 -21.129  0.00  0.00    +0.228 C 
ATOM     13  H   UNL     1      35.953 -19.333 -19.448  0.00  0.00    +0.150 HD
BRANCH  12  14
ATOM     14  C   UNL     1      34.907 -17.641 -21.007  0.00  0.00    +0.118 C 
BRANCH  14  16
ATOM     15  S   UNL     1      33.843 -15.562 -22.477  0.00  0.00    -0.090 S 
ATOM     16  C   UNL     1      34.709 -17.021 -22.363  0.00  0.00    +0.016 C 
ATOM     17  C   UNL     1      35.147 -17.489 -23.565  0.00  0.00    +0.003 C 
ATOM     18  C   UNL     1      34.761 -16.623 -24.629  0.00  0.00    +0.007 C 
ATOM     19  C   UNL     1      34.047 -15.536 -24.177  0.00  0.00    +0.035 C 
ENDBRANCH  14  16
ENDBRANCH  12  14
ENDBRANCH   5  11
BRANCH   7  22
ATOM     20  O   UNL     1      32.975 -24.213 -17.342  0.00  0.00    -0.239 OA
ATOM     21  OXT UNL     1      32.833 -22.627 -15.699  0.00  0.00    -0.239 OA
ATOM     22  C   UNL     1      33.379 -23.240 -16.653  0.00  0.00    +0.401 C 
ENDBRANCH   7  22
BRANCH   8  23
ATOM     23  C   UNL     1      35.657 -23.217 -14.717  0.00  0.00    +0.116 C 
BRANCH  23  24
ATOM     24  N   UNL     1      36.440 -24.455 -14.581  0.00  0.00    -0.299 N 
ATOM     25  C   UNL     1      37.515 -24.442 -13.791  0.00  0.00    +0.118 C 
ATOM     26  C   UNL     1      36.039 -25.537 -15.252  0.00  0.00    +0.062 C 
ATOM     27  C   UNL     1      38.272 -25.596 -13.643  0.00  0.00    -0.005 C 
ATOM     28  C   UNL     1      36.758 -26.719 -15.142  0.00  0.00    +0.016 C 
ATOM     29  C   UNL     1      37.885 -26.744 -14.327  0.00  0.00    -0.002 C 
ENDBRANCH  23  24
ENDBRANCH   8  23
TORSDOF 6
ENDMDL
MODEL 4
REMARK VINA RESULT:      -8.9      5.781      9.369
REMARK  Name = 5773
REMARK  6 active torsions:
REMARK  status: ('A' for Active; 'I' for Inactive)
REMARK    1  A    between atoms: CA_5  and  N_11
REMARK    2  A    between atoms: CA_7  and  C_22
REMARK    3  A    between atoms: C_8  and  C_23
REMARK    4  A    between atoms: C_12  and  C_14
REMARK    5  A    between atoms: C_14  and  C_16
REMARK    6  A    between atoms: C_23  and  N_24
REMARK                            x       y       z     vdW  Elec       q    Type
REMARK                         _______ _______ _______ _____ _____    ______ ____
ROOT
ATOM      1  S   UNL     1      36.517 -21.580 -17.823  0.00  0.00    -0.114 S 
ATOM      2  O   UNL     1      31.964 -22.513 -18.000  0.00  0.00    -0.273 OA
ATOM      3  N   UNL     1      34.212 -22.807 -17.358  0.00  0.00    -0.242 N 
ATOM      4  C   UNL     1      35.244 -22.739 -18.373  0.00  0.00    +0.155 C 
ATOM      5  CA  UNL     1      34.150 -22.170 -19.306  0.00  0.00    +0.178 C 
ATOM      6  C   UNL     1      33.162 -22.535 -18.161  0.00  0.00    +0.251 C 
ATOM      7  CA  UNL     1      34.443 -23.071 -16.047  0.00  0.00    +0.129 C 
ATOM      8  C   UNL     1      35.693 -23.010 -15.532  0.00  0.00    +0.007 C 
ATOM      9  C   UNL     1      36.912 -22.552 -16.329  0.00  0.00    +0.084 C 
ENDROOT
BRANCH   5  11
ATOM     10  O   UNL     1      32.334 -20.742 -21.037  0.00  0.00    -0.275 OA
ATOM     11  N   UNL     1      34.175 -20.744 -19.626  0.00  0.00    -0.296 N 
ATOM     12  C   UNL     1      33.250 -20.143 -20.477  0.00  0.00    +0.228 C 
ATOM     13  H   UNL     1      34.876 -20.183 -19.221  0.00  0.00    +0.150 HD
BRANCH  12  14
ATOM     14  C   UNL     1      33.459 -18.652 -20.648  0.00  0.00    +0.118 C 
BRANCH  14  16
ATOM     15  S   UNL     1      34.497 -16.799 -22.409  0.00  0.00    -0.090 S 
ATOM     16  C   UNL     1      34.188 -18.403 -21.939  0.00  0.00    +0.016 C 
ATOM     17  C   UNL     1      34.655 -19.329 -22.824  0.00  0.00    +0.003 C 
ATOM     18  C   UNL     1      35.294 -18.706 -23.935  0.00  0.00    +0.007 C 
ATOM     19  C   UNL     1      35.279 -17.332 -23.836  0.00  0.00    +0.035 C 
ENDBRANCH  14  16
ENDBRANCH  12  14
ENDBRANCH   5  11
BRANCH   7  22
ATOM     20  O   UNL     1      32.576 -22.408 -14.789  0.00  0.00    -0.239 OA
ATOM     21  OXT UNL     1      33.112 -24.629 -14.902  0.00  0.00    -0.239 OA
ATOM     22  C   UNL     1      33.254 -23.404 -15.153  0.00  0.00    +0.401 C 
ENDBRANCH   7  22
BRANCH   8  23
ATOM     23  C   UNL     1      36.049 -23.311 -14.094  0.00  0.00    +0.116 C 
BRANCH  23  24
ATOM     24  N   UNL     1      37.017 -24.417 -14.040  0.00  0.00    -0.299 N 
ATOM     25  C   UNL     1      38.161 -24.227 -13.381  0.00  0.00    +0.118 C 
ATOM     26  C   UNL     1      36.706 -25.563 -14.652  0.00  0.00    +0.062 C 
ATOM     27  C   UNL     1      39.093 -25.253 -13.313  0.00  0.00    -0.005 C 
ATOM     28  C   UNL     1      37.600 -26.623 -14.616  0.00  0.00    +0.016 C 
ATOM     29  C   UNL     1      38.804 -26.463 -13.938  0.00  0.00    -0.002 C 
ENDBRANCH  23  24
ENDBRANCH   8  23
TORSDOF 6
ENDMDL
MODEL 5
REMARK VINA RESULT:      -8.7      2.890      8.820
REMARK  Name = 5773
REMARK  6 active torsions:
REMARK  status: ('A' for Active; 'I' for Inactive)
REMARK    1  A    between atoms: CA_5  and  N_11
REMARK    2  A    between atoms: CA_7  and  C_22
REMARK    3  A    between atoms: C_8  and  C_23
REMARK    4  A    between atoms: C_12  and  C_14
REMARK    5  A    between atoms: C_14  and  C_16
REMARK    6  A    between atoms: C_23  and  N_24
REMARK                            x       y       z     vdW  Elec       q    Type
REMARK                         _______ _______ _______ _____ _____    ______ ____
ROOT
ATOM      1  S   UNL     1      34.341 -14.855 -23.603  0.00  0.00    -0.114 S 
ATOM      2  O   UNL     1      32.402 -14.708 -19.379  0.00  0.00    -0.273 OA
ATOM      3  N   UNL     1      33.332 -13.850 -21.366  0.00  0.00    -0.242 N 
ATOM      4  C   UNL     1      34.567 -14.421 -21.863  0.00  0.00    +0.155 C 
ATOM      5  CA  UNL     1      34.343 -15.554 -20.835  0.00  0.00    +0.178 C 
ATOM      6  C   UNL     1      33.181 -14.666 -20.301  0.00  0.00    +0.251 C 
ATOM      7  CA  UNL     1      32.679 -12.812 -21.948  0.00  0.00    +0.129 C 
ATOM      8  C   UNL     1      32.982 -12.413 -23.205  0.00  0.00    +0.007 C 
ATOM      9  C   UNL     1      33.986 -13.135 -24.100  0.00  0.00    +0.084 C 
ENDROOT
BRANCH   5  11
ATOM     10  O   UNL     1      35.793 -18.045 -20.670  0.00  0.00    -0.275 OA
ATOM     11  N   UNL     1      33.905 -16.861 -21.319  0.00  0.00    -0.296 N 
ATOM     12  C   UNL     1      34.680 -18.013 -21.193  0.00  0.00    +0.228 C 
ATOM     13  H   UNL     1      33.024 -16.932 -21.753  0.00  0.00    +0.150 HD
BRANCH  12  14
ATOM     14  C   UNL     1      34.017 -19.256 -21.750  0.00  0.00    +0.118 C 
BRANCH  14  16
ATOM     15  S   UNL     1      35.500 -21.054 -20.272  0.00  0.00    -0.090 S 
ATOM     16  C   UNL     1      34.022 -20.330 -20.698  0.00  0.00    +0.016 C 
ATOM     17  C   UNL     1      32.955 -20.824 -20.008  0.00  0.00    +0.003 C 
ATOM     18  C   UNL     1      33.358 -21.838 -19.091  0.00  0.00    +0.007 C 
ATOM     19  C   UNL     1      34.716 -22.063 -19.132  0.00  0.00    +0.035 C 
ENDBRANCH  14  16
ENDBRANCH  12  14
ENDBRANCH   5  11
BRANCH   7  22
ATOM     20  O   UNL     1      31.880 -11.787 -19.994  0.00  0.00    -0.239 OA
ATOM     21  OXT UNL     1      30.486 -11.989 -21.797  0.00  0.00    -0.239 OA
ATOM     22  C   UNL     1      31.566 -12.125 -21.165  0.00  0.00    +0.401 C 
ENDBRANCH   7  22
BRANCH   8  23
ATOM     23  C   UNL     1      32.327 -11.256 -23.923  0.00  0.00    +0.116 C 
BRANCH  23  24
ATOM     24  N   UNL     1      33.063 -10.013 -23.644  0.00  0.00    -0.299 N 
ATOM     25  C   UNL     1      34.234  -9.820 -24.253  0.00  0.00    +0.118 C 
ATOM     26  C   UNL     1      32.526  -9.134 -22.795  0.00  0.00    +0.062 C 
ATOM     27  C   UNL     1      34.951  -8.656 -24.009  0.00  0.00    -0.005 C 
ATOM     28  C   UNL     1      33.198  -7.953 -22.514  0.00  0.00    +0.016 C 
ATOM     29  C   UNL     1      34.422  -7.715 -23.130  0.00  0.00    -0.002 C 
ENDBRANCH  23  24
ENDBRANCH   8  23
TORSDOF 6
ENDMDL
MODEL 6
REMARK VINA RESULT:      -8.6      1.897      2.567
REMARK  Name = 5773
REMARK  6 active torsions:
REMARK  status: ('A' for Active; 'I' for Inactive)
REMARK    1  A    between atoms: CA_5  and  N_11
REMARK    2  A    between atoms: CA_7  and  C_22
REMARK    3  A    between atoms: C_8  and  C_23
REMARK    4  A    between atoms: C_12  and  C_14
REMARK    5  A    between atoms: C_14  and  C_16
REMARK    6  A    between atoms: C_23  and  N_24
REMARK                            x       y       z     vdW  Elec       q    Type
REMARK                         _______ _______ _______ _____ _____    ______ ____
ROOT
ATOM      1  S   UNL     1      33.434 -14.376 -21.477  0.00  0.00    -0.114 S 
ATOM      2  O   UNL     1      33.756 -13.150 -25.952  0.00  0.00    -0.273 OA
ATOM      3  N   UNL     1      34.130 -14.468 -24.035  0.00  0.00    -0.242 N 
ATOM      4  C   UNL     1      34.526 -13.814 -22.803  0.00  0.00    +0.155 C 
ATOM      5  CA  UNL     1      34.141 -12.488 -23.498  0.00  0.00    +0.178 C 
ATOM      6  C   UNL     1      33.989 -13.354 -24.783  0.00  0.00    +0.251 C 
ATOM      7  CA  UNL     1      33.995 -15.810 -24.180  0.00  0.00    +0.129 C 
ATOM      8  C   UNL     1      33.943 -16.628 -23.103  0.00  0.00    +0.007 C 
ATOM      9  C   UNL     1      33.928 -16.124 -21.662  0.00  0.00    +0.084 C 
ENDROOT
BRANCH   5  11
ATOM     10  O   UNL     1      33.538  -9.672 -23.705  0.00  0.00    -0.275 OA
ATOM     11  N   UNL     1      32.906 -11.819 -23.094  0.00  0.00    -0.296 N 
ATOM     12  C   UNL     1      32.707 -10.447 -23.234  0.00  0.00    +0.228 C 
ATOM     13  H   UNL     1      32.182 -12.362 -22.705  0.00  0.00    +0.150 HD
BRANCH  12  14
ATOM     14  C   UNL     1      31.346  -9.978 -22.764  0.00  0.00    +0.118 C 
BRANCH  14  16
ATOM     15  S   UNL     1      32.157  -8.283 -20.743  0.00  0.00    -0.090 S 
ATOM     16  C   UNL     1      31.458  -8.563 -22.268  0.00  0.00    +0.016 C 
ATOM     17  C   UNL     1      31.057  -7.424 -22.900  0.00  0.00    +0.003 C 
ATOM     18  C   UNL     1      31.332  -6.270 -22.110  0.00  0.00    +0.007 C 
ATOM     19  C   UNL     1      31.929  -6.594 -20.912  0.00  0.00    +0.035 C 
ENDBRANCH  14  16
ENDBRANCH  12  14
ENDBRANCH   5  11
BRANCH   7  22
ATOM     20  O   UNL     1      32.745 -16.188 -26.130  0.00  0.00    -0.239 OA
ATOM     21  OXT UNL     1      34.897 -16.958 -26.018  0.00  0.00    -0.239 OA
ATOM     22  C   UNL     1      33.866 -16.378 -25.589  0.00  0.00    +0.401 C 
ENDBRANCH   7  22
BRANCH   8  23
ATOM     23  C   UNL     1      33.818 -18.133 -23.168  0.00  0.00    +0.116 C 
BRANCH  23  24
ATOM     24  N   UNL     1      34.757 -18.753 -22.220  0.00  0.00    -0.299 N 
ATOM     25  C   UNL     1      36.037 -18.380 -22.259  0.00  0.00    +0.118 C 
ATOM     26  C   UNL     1      34.285 -19.660 -21.362  0.00  0.00    +0.062 C 
ATOM     27  C   UNL     1      36.945 -18.947 -21.376  0.00  0.00    -0.005 C 
ATOM     28  C   UNL     1      35.148 -20.260 -20.456  0.00  0.00    +0.016 C 
ATOM     29  C   UNL     1      36.490 -19.897 -20.466  0.00  0.00    -0.002 C 
ENDBRANCH  23  24
ENDBRANCH   8  23
TORSDOF 6
ENDMDL
MODEL 7
REMARK VINA RESULT:      -8.5      3.470      9.921
REMARK  Name = 5773
REMARK  6 active torsions:
REMARK  status: ('A' for Active; 'I' for Inactive)
REMARK    1  A    between atoms: CA_5  and  N_11
REMARK    2  A    between atoms: CA_7  and  C_22
REMARK    3  A    between atoms: C_8  and  C_23
REMARK    4  A    between atoms: C_12  and  C_14
REMARK    5  A    between atoms: C_14  and  C_16
REMARK    6  A    between atoms: C_23  and  N_24
REMARK                            x       y       z     vdW  Elec       q    Type
REMARK                         _______ _______ _______ _____ _____    ______ ____
ROOT
ATOM      1  S   UNL     1      32.043 -11.799 -21.830  0.00  0.00    -0.114 S 
ATOM      2  O   UNL     1      35.311 -10.735 -24.963  0.00  0.00    -0.273 OA
ATOM      3  N   UNL     1      33.361 -10.426 -23.677  0.00  0.00    -0.242 N 
ATOM      4  C   UNL     1      32.411 -11.515 -23.576  0.00  0.00    +0.155 C 
ATOM      5  CA  UNL     1      33.510 -12.403 -24.203  0.00  0.00    +0.178 C 
ATOM      6  C   UNL     1      34.281 -11.069 -24.426  0.00  0.00    +0.251 C 
ATOM      7  CA  UNL     1      33.191  -9.206 -23.108  0.00  0.00    +0.129 C 
ATOM      8  C   UNL     1      32.248  -9.002 -22.160  0.00  0.00    +0.007 C 
ATOM      9  C   UNL     1      31.379 -10.117 -21.583  0.00  0.00    +0.084 C 
ENDROOT
BRANCH   5  11
ATOM     10  O   UNL     1      33.453 -15.284 -24.378  0.00  0.00    -0.275 OA
ATOM     11  N   UNL     1      34.216 -13.351 -23.345  0.00  0.00    -0.296 N 
ATOM     12  C   UNL     1      34.126 -14.732 -23.509  0.00  0.00    +0.228 C 
ATOM     13  H   UNL     1      34.782 -12.999 -22.620  0.00  0.00    +0.150 HD
BRANCH  12  14
ATOM     14  C   UNL     1      34.958 -15.519 -22.516  0.00  0.00    +0.118 C 
BRANCH  14  16
ATOM     15  S   UNL     1      34.511 -18.086 -21.608  0.00  0.00    -0.090 S 
ATOM     16  C   UNL     1      34.870 -16.982 -22.850  0.00  0.00    +0.016 C 
ATOM     17  C   UNL     1      35.046 -17.570 -24.066  0.00  0.00    +0.003 C 
ATOM     18  C   UNL     1      34.882 -18.983 -23.986  0.00  0.00    +0.007 C 
ATOM     19  C   UNL     1      34.588 -19.397 -22.706  0.00  0.00    +0.035 C 
ENDBRANCH  14  16
ENDBRANCH  12  14
ENDBRANCH   5  11
BRANCH   7  22
ATOM     20  O   UNL     1      34.983  -7.752 -22.682  0.00  0.00    -0.239 OA
ATOM     21  OXT UNL     1      33.885  -7.610 -24.684  0.00  0.00    -0.239 OA
ATOM     22  C   UNL     1      34.116  -8.071 -23.536  0.00  0.00    +0.401 C 
ENDBRANCH   7  22
BRANCH   8  23
ATOM     23  C   UNL     1      31.971  -7.676 -21.490  0.00  0.00    +0.116 C 
BRANCH  23  24
ATOM     24  N   UNL     1      31.584  -6.678 -22.499  0.00  0.00    -0.299 N 
ATOM     25  C   UNL     1      31.960  -5.411 -22.316  0.00  0.00    +0.118 C 
ATOM     26  C   UNL     1      30.874  -7.085 -23.555  0.00  0.00    +0.062 C 
ATOM     27  C   UNL     1      31.609  -4.448 -23.252  0.00  0.00    -0.005 C 
ATOM     28  C   UNL     1      30.496  -6.165 -24.522  0.00  0.00    +0.016 C 
ATOM     29  C   UNL     1      30.870  -4.834 -24.366  0.00  0.00    -0.002 C 
ENDBRANCH  23  24
ENDBRANCH   8  23
TORSDOF 6
ENDMDL
MODEL 8
REMARK VINA RESULT:      -8.5      3.541      8.530
REMARK  Name = 5773
REMARK  6 active torsions:
REMARK  status: ('A' for Active; 'I' for Inactive)
REMARK    1  A    between atoms: CA_5  and  N_11
REMARK    2  A    between atoms: CA_7  and  C_22
REMARK    3  A    between atoms: C_8  and  C_23
REMARK    4  A    between atoms: C_12  and  C_14
REMARK    5  A    between atoms: C_14  and  C_16
REMARK    6  A    between atoms: C_23  and  N_24
REMARK                            x       y       z     vdW  Elec       q    Type
REMARK                         _______ _______ _______ _____ _____    ______ ____
ROOT
ATOM      1  S   UNL     1      34.695 -17.878 -24.277  0.00  0.00    -0.114 S 
ATOM      2  O   UNL     1      34.665 -16.168 -19.952  0.00  0.00    -0.273 OA
ATOM      3  N   UNL     1      34.673 -16.102 -22.307  0.00  0.00    -0.242 N 
ATOM      4  C   UNL     1      35.607 -16.943 -23.028  0.00  0.00    +0.155 C 
ATOM      5  CA  UNL     1      35.855 -17.655 -21.678  0.00  0.00    +0.178 C 
ATOM      6  C   UNL     1      34.994 -16.513 -21.063  0.00  0.00    +0.251 C 
ATOM      7  CA  UNL     1      33.812 -15.234 -22.897  0.00  0.00    +0.129 C 
ATOM      8  C   UNL     1      33.560 -15.293 -24.225  0.00  0.00    +0.007 C 
ATOM      9  C   UNL     1      34.124 -16.376 -25.143  0.00  0.00    +0.084 C 
ENDROOT
BRANCH   5  11
ATOM     10  O   UNL     1      36.894 -19.748 -19.983  0.00  0.00    -0.275 OA
ATOM     11  N   UNL     1      35.289 -18.988 -21.476  0.00  0.00    -0.296 N 
ATOM     12  C   UNL     1      35.866 -19.935 -20.632  0.00  0.00    +0.228 C 
ATOM     13  H   UNL     1      34.463 -19.227 -21.957  0.00  0.00    +0.150 HD
BRANCH  12  14
ATOM     14  C   UNL     1      35.098 -21.239 -20.565  0.00  0.00    +0.118 C 
BRANCH  14  16
ATOM     15  S   UNL     1      33.799 -22.514 -18.491  0.00  0.00    -0.090 S 
ATOM     16  C   UNL     1      35.179 -21.786 -19.167  0.00  0.00    +0.016 C 
ATOM     17  C   UNL     1      36.254 -21.776 -18.330  0.00  0.00    +0.003 C 
ATOM     18  C   UNL     1      35.944 -22.390 -17.082  0.00  0.00    +0.007 C 
ATOM     19  C   UNL     1      34.642 -22.835 -17.035  0.00  0.00    +0.035 C 
ENDBRANCH  14  16
ENDBRANCH  12  14
ENDBRANCH   5  11
BRANCH   7  22
ATOM     20  O   UNL     1      31.945 -14.538 -21.658  0.00  0.00    -0.239 OA
ATOM     21  OXT UNL     1      33.775 -13.170 -21.779  0.00  0.00    -0.239 OA
ATOM     22  C   UNL     1      33.104 -14.207 -22.021  0.00  0.00    +0.401 C 
ENDBRANCH   7  22
BRANCH   8  23
ATOM     23  C   UNL     1      32.638 -14.355 -24.971  0.00  0.00    +0.116 C 
BRANCH  23  24
ATOM     24  N   UNL     1      33.409 -13.227 -25.517  0.00  0.00    -0.299 N 
ATOM     25  C   UNL     1      33.745 -12.232 -24.695  0.00  0.00    +0.118 C 
ATOM     26  C   UNL     1      33.740 -13.251 -26.810  0.00  0.00    +0.062 C 
ATOM     27  C   UNL     1      34.473 -11.155 -25.182  0.00  0.00    -0.005 C 
ATOM     28  C   UNL     1      34.468 -12.201 -27.352  0.00  0.00    +0.016 C 
ATOM     29  C   UNL     1      34.836 -11.145 -26.525  0.00  0.00    -0.002 C 
ENDBRANCH  23  24
ENDBRANCH   8  23
TORSDOF 6
ENDMDL
MODEL 9
REMARK VINA RESULT:      -8.4      2.900      8.826
REMARK  Name = 5773
REMARK  6 active torsions:
REMARK  status: ('A' for Active; 'I' for Inactive)
REMARK    1  A    between atoms: CA_5  and  N_11
REMARK    2  A    between atoms: CA_7  and  C_22
REMARK    3  A    between atoms: C_8  and  C_23
REMARK    4  A    between atoms: C_12  and  C_14
REMARK    5  A    between atoms: C_14  and  C_16
REMARK    6  A    between atoms: C_23  and  N_24
REMARK                            x       y       z     vdW  Elec       q    Type
REMARK                         _______ _______ _______ _____ _____    ______ ____
ROOT
ATOM      1  S   UNL     1      34.339 -14.837 -23.603  0.00  0.00    -0.114 S 
ATOM      2  O   UNL     1      32.384 -14.642 -19.388  0.00  0.00    -0.273 OA
ATOM      3  N   UNL     1      33.320 -13.807 -21.382  0.00  0.00    -0.242 N 
ATOM      4  C   UNL     1      34.558 -14.381 -21.868  0.00  0.00    +0.155 C 
ATOM      5  CA  UNL     1      34.333 -15.501 -20.827  0.00  0.00    +0.178 C 
ATOM      6  C   UNL     1      33.167 -14.609 -20.308  0.00  0.00    +0.251 C 
ATOM      7  CA  UNL     1      32.666 -12.777 -21.979  0.00  0.00    +0.129 C 
ATOM      8  C   UNL     1      32.973 -12.393 -23.239  0.00  0.00    +0.007 C 
ATOM      9  C   UNL     1      33.982 -13.124 -24.122  0.00  0.00    +0.084 C 
ENDROOT
BRANCH   5  11
ATOM     10  O   UNL     1      35.796 -17.983 -20.645  0.00  0.00    -0.275 OA
ATOM     11  N   UNL     1      33.900 -16.815 -21.296  0.00  0.00    -0.296 N 
ATOM     12  C   UNL     1      34.681 -17.962 -21.162  0.00  0.00    +0.228 C 
ATOM     13  H   UNL     1      33.017 -16.895 -21.725  0.00  0.00    +0.150 HD
BRANCH  12  14
ATOM     14  C   UNL     1      34.022 -19.214 -21.705  0.00  0.00    +0.118 C 
BRANCH  14  16
ATOM     15  S   UNL     1      32.854 -20.876 -19.838  0.00  0.00    -0.090 S 
ATOM     16  C   UNL     1      34.204 -20.333 -20.717  0.00  0.00    +0.016 C 
ATOM     17  C   UNL     1      35.354 -20.999 -20.415  0.00  0.00    +0.003 C 
ATOM     18  C   UNL     1      35.128 -21.998 -19.425  0.00  0.00    +0.007 C 
ATOM     19  C   UNL     1      33.811 -22.039 -19.023  0.00  0.00    +0.035 C 
ENDBRANCH  14  16
ENDBRANCH  12  14
ENDBRANCH   5  11
BRANCH   7  22
ATOM     20  O   UNL     1      30.480 -11.934 -21.857  0.00  0.00    -0.239 OA
ATOM     21  OXT UNL     1      31.847 -11.756 -20.031  0.00  0.00    -0.239 OA
ATOM     22  C   UNL     1      31.549 -12.083 -21.209  0.00  0.00    +0.401 C 
ENDBRANCH   7  22
BRANCH   8  23
ATOM     23  C   UNL     1      32.317 -11.246 -23.975  0.00  0.00    +0.116 C 
BRANCH  23  24
ATOM     24  N   UNL     1      33.036  -9.995 -23.689  0.00  0.00    -0.299 N 
ATOM     25  C   UNL     1      32.438  -9.081 -22.923  0.00  0.00    +0.118 C 
ATOM     26  C   UNL     1      34.255  -9.830 -24.208  0.00  0.00    +0.062 C 
ATOM     27  C   UNL     1      33.093  -7.891 -22.636  0.00  0.00    -0.005 C 
ATOM     28  C   UNL     1      34.956  -8.660 -23.954  0.00  0.00    +0.016 C 
ATOM     29  C   UNL     1      34.365  -7.683 -23.158  0.00  0.00    -0.002 C 
ENDBRANCH  23  24
ENDBRANCH   8  23
TORSDOF 6
ENDMDL
