MODEL 1
REMARK VINA RESULT:      -7.7      0.000      0.000
REMARK  Name = 446394
REMARK  6 active torsions:
REMARK  status: ('A' for Active; 'I' for Inactive)
REMARK    1  A    between atoms: C_2  and  O_7
REMARK    2  A    between atoms: C_3  and  O_13
REMARK    3  A    between atoms: C_4  and  O_9
REMARK    4  A    between atoms: C_5  and  O_11
REMARK    5  A    between atoms: O_13  and  C_16
REMARK    6  A    between atoms: C_18  and  O_22
REMARK                            x       y       z     vdW  Elec       q    Type
REMARK                         _______ _______ _______ _____ _____    ______ ____
ROOT
ATOM      1  O   UNL     1      34.501 -23.664 -16.912  0.00  0.00    -0.326 OA
ATOM      2  C   UNL     1      36.179 -22.150 -17.799  0.00  0.00    +0.196 C 
ATOM      3  C   UNL     1      35.479 -22.691 -16.552  0.00  0.00    +0.266 C 
ATOM      4  C   UNL     1      35.174 -21.624 -18.824  0.00  0.00    +0.172 C 
ATOM      5  C   UNL     1      34.054 -22.635 -19.061  0.00  0.00    +0.169 C 
ATOM      6  C   UNL     1      33.478 -23.118 -17.738  0.00  0.00    +0.176 C 
ENDROOT
BRANCH   2   7
ATOM      7  O   UNL     1      37.047 -21.078 -17.429  0.00  0.00    -0.378 OA
ATOM      8  H   UNL     1      37.648 -21.376 -16.729  0.00  0.00    +0.211 HD
ENDBRANCH   2   7
BRANCH   4   9
ATOM      9  O   UNL     1      35.870 -21.388 -20.048  0.00  0.00    -0.379 OA
ATOM     10  H   UNL     1      35.242 -21.409 -20.787  0.00  0.00    +0.211 HD
ENDBRANCH   4   9
BRANCH   5  11
ATOM     11  O   UNL     1      33.004 -22.040 -19.816  0.00  0.00    -0.379 OA
ATOM     12  H   UNL     1      33.382 -21.540 -20.557  0.00  0.00    +0.211 HD
ENDBRANCH   5  11
BRANCH   3  13
ATOM     13  O   UNL     1      36.471 -23.287 -15.717  0.00  0.00    -0.328 OA
BRANCH  13  16
ATOM     14  O   UNL     1      38.825 -26.640 -14.690  0.00  0.00    -0.272 OA
ATOM     15  N   UNL     1      38.202 -24.927 -13.315  0.00  0.00    -0.302 N 
ATOM     16  C   UNL     1      35.918 -24.334 -14.923  0.00  0.00    +0.155 C 
ATOM     17  C   UNL     1      35.945 -23.939 -13.450  0.00  0.00    +0.054 C 
ATOM     18  C   UNL     1      36.718 -25.608 -15.176  0.00  0.00    +0.214 C 
ATOM     19  C   UNL     1      37.381 -23.780 -12.987  0.00  0.00    +0.092 C 
ATOM     20  C   UNL     1      38.015 -25.757 -14.397  0.00  0.00    +0.252 C 
ATOM     21  H   UNL     1      38.954 -25.131 -12.714  0.00  0.00    +0.150 HD
BRANCH  18  22
ATOM     22  O   UNL     1      35.942 -26.752 -14.836  0.00  0.00    -0.374 OA
ATOM     23  H   UNL     1      35.525 -26.615 -13.972  0.00  0.00    +0.211 HD
ENDBRANCH  18  22
ENDBRANCH  13  16
ENDBRANCH   3  13
TORSDOF 6
ENDMDL
MODEL 2
REMARK VINA RESULT:      -7.7      2.517      3.876
REMARK  Name = 446394
REMARK  6 active torsions:
REMARK  status: ('A' for Active; 'I' for Inactive)
REMARK    1  A    between atoms: C_2  and  O_7
REMARK    2  A    between atoms: C_3  and  O_13
REMARK    3  A    between atoms: C_4  and  O_9
REMARK    4  A    between atoms: C_5  and  O_11
REMARK    5  A    between atoms: O_13  and  C_16
REMARK    6  A    between atoms: C_18  and  O_22
REMARK                            x       y       z     vdW  Elec       q    Type
REMARK                         _______ _______ _______ _____ _____    ______ ____
ROOT
ATOM      1  O   UNL     1      34.342 -23.499 -16.096  0.00  0.00    -0.326 OA
ATOM      2  C   UNL     1      33.022 -24.061 -14.137  0.00  0.00    +0.196 C 
ATOM      3  C   UNL     1      34.160 -24.475 -15.071  0.00  0.00    +0.266 C 
ATOM      4  C   UNL     1      31.736 -23.772 -14.911  0.00  0.00    +0.172 C 
ATOM      5  C   UNL     1      32.008 -22.848 -16.098  0.00  0.00    +0.169 C 
ATOM      6  C   UNL     1      33.187 -23.356 -16.914  0.00  0.00    +0.176 C 
ENDROOT
BRANCH   2   7
ATOM      7  O   UNL     1      32.761 -25.116 -13.211  0.00  0.00    -0.378 OA
ATOM      8  H   UNL     1      33.339 -25.019 -12.439  0.00  0.00    +0.211 HD
ENDBRANCH   2   7
BRANCH   4   9
ATOM      9  O   UNL     1      30.812 -23.145 -14.021  0.00  0.00    -0.379 OA
ATOM     10  H   UNL     1      30.180 -23.804 -13.694  0.00  0.00    +0.211 HD
ENDBRANCH   4   9
BRANCH   5  11
ATOM     11  O   UNL     1      30.868 -22.788 -16.948  0.00  0.00    -0.379 OA
ATOM     12  H   UNL     1      30.355 -21.989 -16.746  0.00  0.00    +0.211 HD
ENDBRANCH   5  11
BRANCH   3  13
ATOM     13  O   UNL     1      35.348 -24.586 -14.290  0.00  0.00    -0.328 OA
BRANCH  13  16
ATOM     14  O   UNL     1      39.240 -24.141 -12.709  0.00  0.00    -0.272 OA
ATOM     15  N   UNL     1      38.167 -26.100 -13.186  0.00  0.00    -0.302 N 
ATOM     16  C   UNL     1      36.488 -24.828 -15.113  0.00  0.00    +0.155 C 
ATOM     17  C   UNL     1      36.758 -26.326 -15.199  0.00  0.00    +0.054 C 
ATOM     18  C   UNL     1      37.678 -24.076 -14.525  0.00  0.00    +0.214 C 
ATOM     19  C   UNL     1      37.115 -26.863 -13.826  0.00  0.00    +0.092 C 
ATOM     20  C   UNL     1      38.410 -24.759 -13.380  0.00  0.00    +0.252 C 
ATOM     21  H   UNL     1      38.757 -26.580 -12.561  0.00  0.00    +0.150 HD
BRANCH  18  22
ATOM     22  O   UNL     1      38.666 -23.859 -15.526  0.00  0.00    -0.374 OA
ATOM     23  H   UNL     1      38.392 -23.124 -16.097  0.00  0.00    +0.211 HD
ENDBRANCH  18  22
ENDBRANCH  13  16
ENDBRANCH   3  13
TORSDOF 6
ENDMDL
MODEL 3
REMARK VINA RESULT:      -7.5      3.988      6.138
REMARK  Name = 446394
REMARK  6 active torsions:
REMARK  status: ('A' for Active; 'I' for Inactive)
REMARK    1  A    between atoms: C_2  and  O_7
REMARK    2  A    between atoms: C_3  and  O_13
REMARK    3  A    between atoms: C_4  and  O_9
REMARK    4  A    between atoms: C_5  and  O_11
REMARK    5  A    between atoms: O_13  and  C_16
REMARK    6  A    between atoms: C_18  and  O_22
REMARK                            x       y       z     vdW  Elec       q    Type
REMARK                         _______ _______ _______ _____ _____    ______ ____
ROOT
ATOM      1  O   UNL     1      32.719 -22.820 -18.381  0.00  0.00    -0.326 OA
ATOM      2  C   UNL     1      34.111 -23.189 -16.426  0.00  0.00    +0.196 C 
ATOM      3  C   UNL     1      32.749 -22.740 -16.957  0.00  0.00    +0.266 C 
ATOM      4  C   UNL     1      35.254 -22.417 -17.084  0.00  0.00    +0.172 C 
ATOM      5  C   UNL     1      35.095 -22.393 -18.603  0.00  0.00    +0.169 C 
ATOM      6  C   UNL     1      33.685 -21.969 -18.988  0.00  0.00    +0.176 C 
ENDROOT
BRANCH   2   7
ATOM      7  O   UNL     1      34.167 -22.963 -15.017  0.00  0.00    -0.378 OA
ATOM      8  H   UNL     1      34.363 -22.028 -14.848  0.00  0.00    +0.211 HD
ENDBRANCH   2   7
BRANCH   4   9
ATOM      9  O   UNL     1      36.481 -23.063 -16.743  0.00  0.00    -0.379 OA
ATOM     10  H   UNL     1      36.332 -24.018 -16.659  0.00  0.00    +0.211 HD
ENDBRANCH   4   9
BRANCH   5  11
ATOM     11  O   UNL     1      36.013 -21.471 -19.181  0.00  0.00    -0.379 OA
ATOM     12  H   UNL     1      36.025 -21.588 -20.144  0.00  0.00    +0.211 HD
ENDBRANCH   5  11
BRANCH   3  13
ATOM     13  O   UNL     1      31.757 -23.600 -16.403  0.00  0.00    -0.328 OA
BRANCH  13  16
ATOM     14  O   UNL     1      27.738 -24.500 -17.343  0.00  0.00    -0.272 OA
ATOM     15  N   UNL     1      28.832 -24.977 -15.396  0.00  0.00    -0.302 N 
ATOM     16  C   UNL     1      30.697 -22.854 -15.807  0.00  0.00    +0.155 C 
ATOM     17  C   UNL     1      30.422 -23.374 -14.401  0.00  0.00    +0.054 C 
ATOM     18  C   UNL     1      29.464 -22.969 -16.699  0.00  0.00    +0.214 C 
ATOM     19  C   UNL     1      29.932 -24.808 -14.469  0.00  0.00    +0.092 C 
ATOM     20  C   UNL     1      28.622 -24.223 -16.528  0.00  0.00    +0.252 C 
ATOM     21  H   UNL     1      28.182 -25.689 -15.200  0.00  0.00    +0.150 HD
BRANCH  18  22
ATOM     22  O   UNL     1      28.576 -21.884 -16.452  0.00  0.00    -0.374 OA
ATOM     23  H   UNL     1      29.075 -21.052 -16.444  0.00  0.00    +0.211 HD
ENDBRANCH  18  22
ENDBRANCH  13  16
ENDBRANCH   3  13
TORSDOF 6
ENDMDL
MODEL 4
REMARK VINA RESULT:      -7.5      5.672      9.464
REMARK  Name = 446394
REMARK  6 active torsions:
REMARK  status: ('A' for Active; 'I' for Inactive)
REMARK    1  A    between atoms: C_2  and  O_7
REMARK    2  A    between atoms: C_3  and  O_13
REMARK    3  A    between atoms: C_4  and  O_9
REMARK    4  A    between atoms: C_5  and  O_11
REMARK    5  A    between atoms: O_13  and  C_16
REMARK    6  A    between atoms: C_18  and  O_22
REMARK                            x       y       z     vdW  Elec       q    Type
REMARK                         _______ _______ _______ _____ _____    ______ ____
ROOT
ATOM      1  O   UNL     1      35.777 -19.750 -20.996  0.00  0.00    -0.326 OA
ATOM      2  C   UNL     1      33.425 -20.267 -20.684  0.00  0.00    +0.196 C 
ATOM      3  C   UNL     1      34.484 -19.173 -20.824  0.00  0.00    +0.266 C 
ATOM      4  C   UNL     1      33.781 -21.255 -19.573  0.00  0.00    +0.172 C 
ATOM      5  C   UNL     1      35.229 -21.726 -19.703  0.00  0.00    +0.169 C 
ATOM      6  C   UNL     1      36.166 -20.540 -19.878  0.00  0.00    +0.176 C 
ENDROOT
BRANCH   2   7
ATOM      7  O   UNL     1      32.167 -19.670 -20.369  0.00  0.00    -0.378 OA
ATOM      8  H   UNL     1      32.127 -19.484 -19.418  0.00  0.00    +0.211 HD
ENDBRANCH   2   7
BRANCH   4   9
ATOM      9  O   UNL     1      32.903 -22.376 -19.677  0.00  0.00    -0.379 OA
ATOM     10  H   UNL     1      33.213 -23.085 -19.092  0.00  0.00    +0.211 HD
ENDBRANCH   4   9
BRANCH   5  11
ATOM     11  O   UNL     1      35.622 -22.440 -18.537  0.00  0.00    -0.379 OA
ATOM     12  H   UNL     1      35.787 -21.813 -17.814  0.00  0.00    +0.211 HD
ENDBRANCH   5  11
BRANCH   3  13
ATOM     13  O   UNL     1      34.151 -18.384 -21.965  0.00  0.00    -0.328 OA
BRANCH  13  16
ATOM     14  O   UNL     1      33.174 -15.205 -24.569  0.00  0.00    -0.272 OA
ATOM     15  N   UNL     1      33.104 -15.181 -22.286  0.00  0.00    -0.302 N 
ATOM     16  C   UNL     1      35.037 -17.275 -22.106  0.00  0.00    +0.155 C 
ATOM     17  C   UNL     1      34.844 -16.306 -20.945  0.00  0.00    +0.054 C 
ATOM     18  C   UNL     1      34.764 -16.604 -23.449  0.00  0.00    +0.214 C 
ATOM     19  C   UNL     1      33.442 -15.726 -20.987  0.00  0.00    +0.092 C 
ATOM     20  C   UNL     1      33.599 -15.628 -23.490  0.00  0.00    +0.252 C 
ATOM     21  H   UNL     1      32.470 -14.429 -22.309  0.00  0.00    +0.150 HD
BRANCH  18  22
ATOM     22  O   UNL     1      35.899 -15.853 -23.863  0.00  0.00    -0.374 OA
ATOM     23  H   UNL     1      35.635 -14.937 -24.038  0.00  0.00    +0.211 HD
ENDBRANCH  18  22
ENDBRANCH  13  16
ENDBRANCH   3  13
TORSDOF 6
ENDMDL
MODEL 5
REMARK VINA RESULT:      -7.4      1.633      2.090
REMARK  Name = 446394
REMARK  6 active torsions:
REMARK  status: ('A' for Active; 'I' for Inactive)
REMARK    1  A    between atoms: C_2  and  O_7
REMARK    2  A    between atoms: C_3  and  O_13
REMARK    3  A    between atoms: C_4  and  O_9
REMARK    4  A    between atoms: C_5  and  O_11
REMARK    5  A    between atoms: O_13  and  C_16
REMARK    6  A    between atoms: C_18  and  O_22
REMARK                            x       y       z     vdW  Elec       q    Type
REMARK                         _______ _______ _______ _____ _____    ______ ____
ROOT
ATOM      1  O   UNL     1      33.753 -23.634 -14.353  0.00  0.00    -0.326 OA
ATOM      2  C   UNL     1      34.955 -23.413 -16.451  0.00  0.00    +0.196 C 
ATOM      3  C   UNL     1      34.912 -23.067 -14.962  0.00  0.00    +0.266 C 
ATOM      4  C   UNL     1      33.661 -23.012 -17.159  0.00  0.00    +0.172 C 
ATOM      5  C   UNL     1      32.439 -23.504 -16.385  0.00  0.00    +0.169 C 
ATOM      6  C   UNL     1      32.548 -23.128 -14.915  0.00  0.00    +0.176 C 
ENDROOT
BRANCH   2   7
ATOM      7  O   UNL     1      36.039 -22.717 -17.067  0.00  0.00    -0.378 OA
ATOM      8  H   UNL     1      35.774 -21.801 -17.247  0.00  0.00    +0.211 HD
ENDBRANCH   2   7
BRANCH   4   9
ATOM      9  O   UNL     1      33.667 -23.597 -18.462  0.00  0.00    -0.379 OA
ATOM     10  H   UNL     1      34.395 -23.221 -18.982  0.00  0.00    +0.211 HD
ENDBRANCH   4   9
BRANCH   5  11
ATOM     11  O   UNL     1      31.253 -22.918 -16.911  0.00  0.00    -0.379 OA
ATOM     12  H   UNL     1      30.479 -23.307 -16.473  0.00  0.00    +0.211 HD
ENDBRANCH   5  11
BRANCH   3  13
ATOM     13  O   UNL     1      36.087 -23.598 -14.355  0.00  0.00    -0.328 OA
BRANCH  13  16
ATOM     14  O   UNL     1      39.032 -26.576 -14.904  0.00  0.00    -0.272 OA
ATOM     15  N   UNL     1      38.509 -25.506 -12.956  0.00  0.00    -0.302 N 
ATOM     16  C   UNL     1      35.868 -24.921 -13.870  0.00  0.00    +0.155 C 
ATOM     17  C   UNL     1      36.168 -24.984 -12.376  0.00  0.00    +0.054 C 
ATOM     18  C   UNL     1      36.753 -25.880 -14.661  0.00  0.00    +0.214 C 
ATOM     19  C   UNL     1      37.637 -24.691 -12.135  0.00  0.00    +0.092 C 
ATOM     20  C   UNL     1      38.199 -25.996 -14.204  0.00  0.00    +0.252 C 
ATOM     21  H   UNL     1      39.396 -25.727 -12.592  0.00  0.00    +0.150 HD
BRANCH  18  22
ATOM     22  O   UNL     1      36.230 -27.202 -14.592  0.00  0.00    -0.374 OA
ATOM     23  H   UNL     1      36.643 -27.676 -13.854  0.00  0.00    +0.211 HD
ENDBRANCH  18  22
ENDBRANCH  13  16
ENDBRANCH   3  13
TORSDOF 6
ENDMDL
MODEL 6
REMARK VINA RESULT:      -7.4      2.397      3.511
REMARK  Name = 446394
REMARK  6 active torsions:
REMARK  status: ('A' for Active; 'I' for Inactive)
REMARK    1  A    between atoms: C_2  and  O_7
REMARK    2  A    between atoms: C_3  and  O_13
REMARK    3  A    between atoms: C_4  and  O_9
REMARK    4  A    between atoms: C_5  and  O_11
REMARK    5  A    between atoms: O_13  and  C_16
REMARK    6  A    between atoms: C_18  and  O_22
REMARK                            x       y       z     vdW  Elec       q    Type
REMARK                         _______ _______ _______ _____ _____    ______ ____
ROOT
ATOM      1  O   UNL     1      35.037 -23.732 -16.129  0.00  0.00    -0.326 OA
ATOM      2  C   UNL     1      34.139 -23.849 -13.876  0.00  0.00    +0.196 C 
ATOM      3  C   UNL     1      35.088 -24.464 -14.905  0.00  0.00    +0.266 C 
ATOM      4  C   UNL     1      32.719 -23.720 -14.427  0.00  0.00    +0.172 C 
ATOM      5  C   UNL     1      32.726 -23.074 -15.812  0.00  0.00    +0.169 C 
ATOM      6  C   UNL     1      33.742 -23.756 -16.717  0.00  0.00    +0.176 C 
ENDROOT
BRANCH   2   7
ATOM      7  O   UNL     1      34.097 -24.680 -12.715  0.00  0.00    -0.378 OA
ATOM      8  H   UNL     1      34.909 -24.557 -12.200  0.00  0.00    +0.211 HD
ENDBRANCH   2   7
BRANCH   4   9
ATOM      9  O   UNL     1      31.965 -22.908 -13.527  0.00  0.00    -0.379 OA
ATOM     10  H   UNL     1      31.036 -23.189 -13.539  0.00  0.00    +0.211 HD
ENDBRANCH   4   9
BRANCH   5  11
ATOM     11  O   UNL     1      31.442 -23.187 -16.415  0.00  0.00    -0.379 OA
ATOM     12  H   UNL     1      31.097 -24.083 -16.277  0.00  0.00    +0.211 HD
ENDBRANCH   5  11
BRANCH   3  13
ATOM     13  O   UNL     1      36.408 -24.417 -14.367  0.00  0.00    -0.328 OA
BRANCH  13  16
ATOM     14  O   UNL     1      40.238 -25.806 -15.483  0.00  0.00    -0.272 OA
ATOM     15  N   UNL     1      39.583 -25.100 -13.412  0.00  0.00    -0.302 N 
ATOM     16  C   UNL     1      36.848 -25.711 -13.959  0.00  0.00    +0.155 C 
ATOM     17  C   UNL     1      37.351 -25.660 -12.521  0.00  0.00    +0.054 C 
ATOM     18  C   UNL     1      37.939 -26.177 -14.919  0.00  0.00    +0.214 C 
ATOM     19  C   UNL     1      38.570 -24.760 -12.435  0.00  0.00    +0.092 C 
ATOM     20  C   UNL     1      39.342 -25.658 -14.648  0.00  0.00    +0.252 C 
ATOM     21  H   UNL     1      40.520 -24.919 -13.173  0.00  0.00    +0.150 HD
BRANCH  18  22
ATOM     22  O   UNL     1      38.049 -27.595 -14.887  0.00  0.00    -0.374 OA
ATOM     23  H   UNL     1      38.911 -27.845 -14.519  0.00  0.00    +0.211 HD
ENDBRANCH  18  22
ENDBRANCH  13  16
ENDBRANCH   3  13
TORSDOF 6
ENDMDL
MODEL 7
REMARK VINA RESULT:      -7.4      2.367      3.132
REMARK  Name = 446394
REMARK  6 active torsions:
REMARK  status: ('A' for Active; 'I' for Inactive)
REMARK    1  A    between atoms: C_2  and  O_7
REMARK    2  A    between atoms: C_3  and  O_13
REMARK    3  A    between atoms: C_4  and  O_9
REMARK    4  A    between atoms: C_5  and  O_11
REMARK    5  A    between atoms: O_13  and  C_16
REMARK    6  A    between atoms: C_18  and  O_22
REMARK                            x       y       z     vdW  Elec       q    Type
REMARK                         _______ _______ _______ _____ _____    ______ ____
ROOT
ATOM      1  O   UNL     1      32.986 -24.694 -14.071  0.00  0.00    -0.326 OA
ATOM      2  C   UNL     1      33.678 -23.778 -16.211  0.00  0.00    +0.196 C 
ATOM      3  C   UNL     1      34.076 -24.091 -14.768  0.00  0.00    +0.266 C 
ATOM      4  C   UNL     1      32.402 -22.939 -16.274  0.00  0.00    +0.172 C 
ATOM      5  C   UNL     1      31.311 -23.536 -15.386  0.00  0.00    +0.169 C 
ATOM      6  C   UNL     1      31.855 -23.835 -13.996  0.00  0.00    +0.176 C 
ENDROOT
BRANCH   2   7
ATOM      7  O   UNL     1      34.729 -23.046 -16.843  0.00  0.00    -0.378 OA
ATOM      8  H   UNL     1      34.459 -22.121 -16.951  0.00  0.00    +0.211 HD
ENDBRANCH   2   7
BRANCH   4   9
ATOM      9  O   UNL     1      31.953 -22.914 -17.629  0.00  0.00    -0.379 OA
ATOM     10  H   UNL     1      32.318 -22.134 -18.076  0.00  0.00    +0.211 HD
ENDBRANCH   4   9
BRANCH   5  11
ATOM     11  O   UNL     1      30.227 -22.623 -15.256  0.00  0.00    -0.379 OA
ATOM     12  H   UNL     1      29.539 -23.016 -14.695  0.00  0.00    +0.211 HD
ENDBRANCH   5  11
BRANCH   3  13
ATOM     13  O   UNL     1      35.184 -24.988 -14.803  0.00  0.00    -0.328 OA
BRANCH  13  16
ATOM     14  O   UNL     1      38.869 -27.042 -14.601  0.00  0.00    -0.272 OA
ATOM     15  N   UNL     1      38.549 -24.848 -15.147  0.00  0.00    -0.302 N 
ATOM     16  C   UNL     1      36.079 -24.749 -13.718  0.00  0.00    +0.155 C 
ATOM     17  C   UNL     1      36.872 -23.472 -13.970  0.00  0.00    +0.054 C 
ATOM     18  C   UNL     1      36.996 -25.960 -13.572  0.00  0.00    +0.214 C 
ATOM     19  C   UNL     1      37.746 -23.644 -15.199  0.00  0.00    +0.092 C 
ATOM     20  C   UNL     1      38.199 -26.012 -14.500  0.00  0.00    +0.252 C 
ATOM     21  H   UNL     1      39.416 -24.833 -15.612  0.00  0.00    +0.150 HD
BRANCH  18  22
ATOM     22  O   UNL     1      37.534 -26.013 -12.255  0.00  0.00    -0.374 OA
ATOM     23  H   UNL     1      38.500 -26.075 -12.302  0.00  0.00    +0.211 HD
ENDBRANCH  18  22
ENDBRANCH  13  16
ENDBRANCH   3  13
TORSDOF 6
ENDMDL
MODEL 8
REMARK VINA RESULT:      -7.3      3.937      6.616
REMARK  Name = 446394
REMARK  6 active torsions:
REMARK  status: ('A' for Active; 'I' for Inactive)
REMARK    1  A    between atoms: C_2  and  O_7
REMARK    2  A    between atoms: C_3  and  O_13
REMARK    3  A    between atoms: C_4  and  O_9
REMARK    4  A    between atoms: C_5  and  O_11
REMARK    5  A    between atoms: O_13  and  C_16
REMARK    6  A    between atoms: C_18  and  O_22
REMARK                            x       y       z     vdW  Elec       q    Type
REMARK                         _______ _______ _______ _____ _____    ______ ____
ROOT
ATOM      1  O   UNL     1      34.316 -23.151 -16.374  0.00  0.00    -0.326 OA
ATOM      2  C   UNL     1      34.087 -24.617 -14.452  0.00  0.00    +0.196 C 
ATOM      3  C   UNL     1      33.470 -23.485 -15.275  0.00  0.00    +0.266 C 
ATOM      4  C   UNL     1      35.513 -24.283 -14.016  0.00  0.00    +0.172 C 
ATOM      5  C   UNL     1      36.341 -23.776 -15.197  0.00  0.00    +0.169 C 
ATOM      6  C   UNL     1      35.592 -22.686 -15.948  0.00  0.00    +0.176 C 
ENDROOT
BRANCH   2   7
ATOM      7  O   UNL     1      33.299 -24.834 -13.281  0.00  0.00    -0.378 OA
ATOM      8  H   UNL     1      33.876 -25.095 -12.547  0.00  0.00    +0.211 HD
ENDBRANCH   2   7
BRANCH   4   9
ATOM      9  O   UNL     1      36.108 -25.470 -13.492  0.00  0.00    -0.379 OA
ATOM     10  H   UNL     1      36.388 -26.042 -14.224  0.00  0.00    +0.211 HD
ENDBRANCH   4   9
BRANCH   5  11
ATOM     11  O   UNL     1      37.575 -23.237 -14.738  0.00  0.00    -0.379 OA
ATOM     12  H   UNL     1      37.407 -22.608 -14.019  0.00  0.00    +0.211 HD
ENDBRANCH   5  11
BRANCH   3  13
ATOM     13  O   UNL     1      32.205 -23.933 -15.757  0.00  0.00    -0.328 OA
BRANCH  13  16
ATOM     14  O   UNL     1      28.281 -24.585 -17.179  0.00  0.00    -0.272 OA
ATOM     15  N   UNL     1      28.996 -24.715 -15.014  0.00  0.00    -0.302 N 
ATOM     16  C   UNL     1      31.188 -22.959 -15.528  0.00  0.00    +0.155 C 
ATOM     17  C   UNL     1      30.636 -23.107 -14.114  0.00  0.00    +0.054 C 
ATOM     18  C   UNL     1      30.097 -23.142 -16.578  0.00  0.00    +0.214 C 
ATOM     19  C   UNL     1      29.960 -24.456 -13.964  0.00  0.00    +0.092 C 
ATOM     20  C   UNL     1      29.066 -24.225 -16.299  0.00  0.00    +0.252 C 
ATOM     21  H   UNL     1      28.227 -25.287 -14.791  0.00  0.00    +0.150 HD
BRANCH  18  22
ATOM     22  O   UNL     1      29.349 -21.940 -16.725  0.00  0.00    -0.374 OA
ATOM     23  H   UNL     1      28.405 -22.152 -16.790  0.00  0.00    +0.211 HD
ENDBRANCH  18  22
ENDBRANCH  13  16
ENDBRANCH   3  13
TORSDOF 6
ENDMDL
MODEL 9
REMARK VINA RESULT:      -7.2      2.254      3.250
REMARK  Name = 446394
REMARK  6 active torsions:
REMARK  status: ('A' for Active; 'I' for Inactive)
REMARK    1  A    between atoms: C_2  and  O_7
REMARK    2  A    between atoms: C_3  and  O_13
REMARK    3  A    between atoms: C_4  and  O_9
REMARK    4  A    between atoms: C_5  and  O_11
REMARK    5  A    between atoms: O_13  and  C_16
REMARK    6  A    between atoms: C_18  and  O_22
REMARK                            x       y       z     vdW  Elec       q    Type
REMARK                         _______ _______ _______ _____ _____    ______ ____
ROOT
ATOM      1  O   UNL     1      33.752 -24.701 -14.540  0.00  0.00    -0.326 OA
ATOM      2  C   UNL     1      34.146 -23.617 -16.677  0.00  0.00    +0.196 C 
ATOM      3  C   UNL     1      34.718 -23.983 -15.307  0.00  0.00    +0.266 C 
ATOM      4  C   UNL     1      32.820 -22.868 -16.550  0.00  0.00    +0.172 C 
ATOM      5  C   UNL     1      31.873 -23.589 -15.593  0.00  0.00    +0.169 C 
ATOM      6  C   UNL     1      32.583 -23.929 -14.291  0.00  0.00    +0.176 C 
ENDROOT
BRANCH   2   7
ATOM      7  O   UNL     1      35.072 -22.777 -17.367  0.00  0.00    -0.378 OA
ATOM      8  H   UNL     1      35.512 -22.191 -16.733  0.00  0.00    +0.211 HD
ENDBRANCH   2   7
BRANCH   4   9
ATOM      9  O   UNL     1      32.224 -22.796 -17.846  0.00  0.00    -0.379 OA
ATOM     10  H   UNL     1      32.909 -22.907 -18.524  0.00  0.00    +0.211 HD
ENDBRANCH   4   9
BRANCH   5  11
ATOM     11  O   UNL     1      30.753 -22.764 -15.290  0.00  0.00    -0.379 OA
ATOM     12  H   UNL     1      30.211 -22.650 -16.087  0.00  0.00    +0.211 HD
ENDBRANCH   5  11
BRANCH   3  13
ATOM     13  O   UNL     1      35.871 -24.796 -15.517  0.00  0.00    -0.328 OA
BRANCH  13  16
ATOM     14  O   UNL     1      36.324 -25.394 -11.360  0.00  0.00    -0.272 OA
ATOM     15  N   UNL     1      37.488 -26.428 -13.031  0.00  0.00    -0.302 N 
ATOM     16  C   UNL     1      37.008 -24.269 -14.837  0.00  0.00    +0.155 C 
ATOM     17  C   UNL     1      38.207 -25.189 -15.040  0.00  0.00    +0.054 C 
ATOM     18  C   UNL     1      36.661 -24.117 -13.359  0.00  0.00    +0.214 C 
ATOM     19  C   UNL     1      37.933 -26.539 -14.405  0.00  0.00    +0.092 C 
ATOM     20  C   UNL     1      36.782 -25.370 -12.505  0.00  0.00    +0.252 C 
ATOM     21  H   UNL     1      37.710 -27.169 -12.423  0.00  0.00    +0.150 HD
BRANCH  18  22
ATOM     22  O   UNL     1      37.521 -23.161 -12.748  0.00  0.00    -0.374 OA
ATOM     23  H   UNL     1      38.245 -23.620 -12.294  0.00  0.00    +0.211 HD
ENDBRANCH  18  22
ENDBRANCH  13  16
ENDBRANCH   3  13
TORSDOF 6
ENDMDL
