MODEL 1
REMARK VINA RESULT:     -10.4      0.000      0.000
REMARK  Name = 5289373
REMARK  7 active torsions:
REMARK  status: ('A' for Active; 'I' for Inactive)
REMARK    1  A    between atoms: C_8  and  O_24
REMARK    2  A    between atoms: C_9  and  C_22
REMARK    3  A    between atoms: O_24  and  C_26
REMARK    4  A    between atoms: C_26  and  C_27
REMARK    5  A    between atoms: C_27  and  C_28
REMARK    6  A    between atoms: C_28  and  C_30
REMARK    7  A    between atoms: C_30  and  O_31
REMARK                            x       y       z     vdW  Elec       q    Type
REMARK                         _______ _______ _______ _____ _____    ______ ____
ROOT
ATOM      1  O   UNL     1      33.487 -19.039 -21.614  0.00  0.00    -0.291 OA
ATOM      2  C   UNL     1      35.384 -23.723 -14.786  0.00  0.00    +0.010 C 
ATOM      3  C   UNL     1      36.276 -22.680 -15.488  0.00  0.00    +0.001 C 
ATOM      4  C   UNL     1      36.036 -22.617 -16.999  0.00  0.00    +0.004 C 
ATOM      5  C   UNL     1      34.544 -22.228 -17.278  0.00  0.00    +0.044 C 
ATOM      6  C   UNL     1      34.242 -22.117 -18.838  0.00  0.00    +0.019 C 
ATOM      7  C   UNL     1      33.932 -23.284 -14.978  0.00  0.00    +0.044 C 
ATOM      8  C   UNL     1      33.558 -23.133 -16.468  0.00  0.00    +0.169 C 
ATOM      9  C   UNL     1      35.916 -23.578 -13.342  0.00  0.00    +0.058 C 
ATOM     10  C   UNL     1      37.674 -23.009 -14.975  0.00  0.00    +0.000 C 
ATOM     11  C   UNL     1      36.984 -21.613 -17.667  0.00  0.00    +0.004 C 
ATOM     12  C   UNL     1      37.442 -23.429 -13.513  0.00  0.00    +0.007 C 
ATOM     13  C   UNL     1      35.323 -21.253 -19.512  0.00  0.00    -0.042 C 
ATOM     14  C   UNL     1      35.571 -25.170 -15.308  0.00  0.00    +0.001 C 
ATOM     15  C   UNL     1      36.758 -21.569 -19.169  0.00  0.00    +0.022 C 
ATOM     16  C   UNL     1      32.845 -21.463 -19.056  0.00  0.00    +0.012 C 
ATOM     17  C   UNL     1      34.244 -23.507 -19.516  0.00  0.00    +0.004 C 
ATOM     18  C   UNL     1      32.610 -20.949 -20.467  0.00  0.00    +0.069 C 
ATOM     19  C   UNL     1      35.070 -20.264 -20.386  0.00  0.00    +0.029 C 
ATOM     20  C   UNL     1      33.697 -19.987 -20.861  0.00  0.00    +0.173 C 
ENDROOT
BRANCH   9  22
ATOM     21  O   UNL     1      34.412 -24.838 -11.985  0.00  0.00    -0.296 OA
ATOM     22  C   UNL     1      35.551 -24.710 -12.433  0.00  0.00    +0.151 C 
ATOM     23  C   UNL     1      36.645 -25.686 -12.096  0.00  0.00    +0.072 C 
ENDBRANCH   9  22
BRANCH   8  24
ATOM     24  O   UNL     1      32.243 -22.582 -16.497  0.00  0.00    -0.452 OA
BRANCH  24  26
ATOM     25  O   UNL     1      31.257 -24.631 -16.110  0.00  0.00    -0.250 OA
ATOM     26  C   UNL     1      31.243 -23.409 -16.060  0.00  0.00    +0.317 C 
BRANCH  26  27
ATOM     27  C   UNL     1      30.115 -22.566 -15.506  0.00  0.00    +0.121 C 
BRANCH  27  28
ATOM     28  C   UNL     1      28.772 -23.286 -15.509  0.00  0.00    +0.121 C 
BRANCH  28  30
ATOM     29  O   UNL     1      27.709 -23.928 -17.581  0.00  0.00    -0.250 OA
ATOM     30  C   UNL     1      28.024 -23.044 -16.796  0.00  0.00    +0.314 C 
BRANCH  30  31
ATOM     31  O   UNL     1      27.713 -21.737 -16.981  0.00  0.00    -0.480 OA
ATOM     32  H   UNL     1      28.252 -21.199 -17.528  0.00  0.00    +0.295 HD
ENDBRANCH  30  31
ENDBRANCH  28  30
ENDBRANCH  27  28
ENDBRANCH  26  27
ENDBRANCH  24  26
ENDBRANCH   8  24
TORSDOF 7
ENDMDL
MODEL 2
REMARK VINA RESULT:      -9.4      9.918     15.129
REMARK  Name = 5289373
REMARK  7 active torsions:
REMARK  status: ('A' for Active; 'I' for Inactive)
REMARK    1  A    between atoms: C_8  and  O_24
REMARK    2  A    between atoms: C_9  and  C_22
REMARK    3  A    between atoms: O_24  and  C_26
REMARK    4  A    between atoms: C_26  and  C_27
REMARK    5  A    between atoms: C_27  and  C_28
REMARK    6  A    between atoms: C_28  and  C_30
REMARK    7  A    between atoms: C_30  and  O_31
REMARK                            x       y       z     vdW  Elec       q    Type
REMARK                         _______ _______ _______ _____ _____    ______ ____
ROOT
ATOM      1  O   UNL     1      34.396 -16.143 -20.654  0.00  0.00    -0.291 OA
ATOM      2  C   UNL     1      32.594  -8.257 -23.247  0.00  0.00    +0.010 C 
ATOM      3  C   UNL     1      32.506  -8.819 -21.814  0.00  0.00    +0.001 C 
ATOM      4  C   UNL     1      32.118 -10.301 -21.782  0.00  0.00    +0.004 C 
ATOM      5  C   UNL     1      33.193 -11.141 -22.554  0.00  0.00    +0.044 C 
ATOM      6  C   UNL     1      32.859 -12.697 -22.528  0.00  0.00    +0.019 C 
ATOM      7  C   UNL     1      33.711  -9.015 -23.965  0.00  0.00    +0.044 C 
ATOM      8  C   UNL     1      33.476 -10.540 -23.971  0.00  0.00    +0.169 C 
ATOM      9  C   UNL     1      32.921  -6.783 -22.920  0.00  0.00    +0.058 C 
ATOM     10  C   UNL     1      31.620  -7.808 -21.093  0.00  0.00    +0.000 C 
ATOM     11  C   UNL     1      31.983 -10.804 -20.340  0.00  0.00    +0.004 C 
ATOM     12  C   UNL     1      32.028  -6.456 -21.705  0.00  0.00    +0.007 C 
ATOM     13  C   UNL     1      32.542 -13.132 -21.087  0.00  0.00    -0.042 C 
ATOM     14  C   UNL     1      31.276  -8.372 -24.054  0.00  0.00    +0.001 C 
ATOM     15  C   UNL     1      31.577 -12.268 -20.311  0.00  0.00    +0.022 C 
ATOM     16  C   UNL     1      34.082 -13.505 -23.057  0.00  0.00    +0.012 C 
ATOM     17  C   UNL     1      31.634 -13.029 -23.412  0.00  0.00    +0.004 C 
ATOM     18  C   UNL     1      34.044 -14.987 -22.720  0.00  0.00    +0.069 C 
ATOM     19  C   UNL     1      33.049 -14.227 -20.494  0.00  0.00    +0.029 C 
ATOM     20  C   UNL     1      33.898 -15.182 -21.237  0.00  0.00    +0.173 C 
ENDROOT
BRANCH   9  22
ATOM     21  O   UNL     1      33.397  -5.876 -25.074  0.00  0.00    -0.296 OA
ATOM     22  C   UNL     1      32.705  -5.834 -24.057  0.00  0.00    +0.151 C 
ATOM     23  C   UNL     1      31.595  -4.830 -23.899  0.00  0.00    +0.072 C 
ENDBRANCH   9  22
BRANCH   8  24
ATOM     24  O   UNL     1      34.649 -11.124 -24.532  0.00  0.00    -0.452 OA
BRANCH  24  26
ATOM     25  O   UNL     1      35.520 -10.686 -26.622  0.00  0.00    -0.250 OA
ATOM     26  C   UNL     1      34.680 -11.202 -25.898  0.00  0.00    +0.317 C 
BRANCH  26  27
ATOM     27  C   UNL     1      33.503 -12.029 -26.370  0.00  0.00    +0.121 C 
BRANCH  27  28
ATOM     28  C   UNL     1      33.916 -13.242 -27.195  0.00  0.00    +0.121 C 
BRANCH  28  30
ATOM     29  O   UNL     1      33.911 -15.494 -26.319  0.00  0.00    -0.250 OA
ATOM     30  C   UNL     1      33.280 -14.505 -26.669  0.00  0.00    +0.314 C 
BRANCH  30  31
ATOM     31  O   UNL     1      31.929 -14.420 -26.602  0.00  0.00    -0.480 OA
ATOM     32  H   UNL     1      31.498 -14.449 -25.771  0.00  0.00    +0.295 HD
ENDBRANCH  30  31
ENDBRANCH  28  30
ENDBRANCH  27  28
ENDBRANCH  26  27
ENDBRANCH  24  26
ENDBRANCH   8  24
TORSDOF 7
ENDMDL
MODEL 3
REMARK VINA RESULT:      -8.4      1.903      6.903
REMARK  Name = 5289373
REMARK  7 active torsions:
REMARK  status: ('A' for Active; 'I' for Inactive)
REMARK    1  A    between atoms: C_8  and  O_24
REMARK    2  A    between atoms: C_9  and  C_22
REMARK    3  A    between atoms: O_24  and  C_26
REMARK    4  A    between atoms: C_26  and  C_27
REMARK    5  A    between atoms: C_27  and  C_28
REMARK    6  A    between atoms: C_28  and  C_30
REMARK    7  A    between atoms: C_30  and  O_31
REMARK                            x       y       z     vdW  Elec       q    Type
REMARK                         _______ _______ _______ _____ _____    ______ ____
ROOT
ATOM      1  O   UNL     1      40.005 -24.144 -13.166  0.00  0.00    -0.291 OA
ATOM      2  C   UNL     1      31.809 -23.480 -15.293  0.00  0.00    +0.010 C 
ATOM      3  C   UNL     1      32.425 -23.386 -13.883  0.00  0.00    +0.001 C 
ATOM      4  C   UNL     1      33.659 -24.277 -13.716  0.00  0.00    +0.004 C 
ATOM      5  C   UNL     1      34.761 -23.844 -14.743  0.00  0.00    +0.044 C 
ATOM      6  C   UNL     1      36.085 -24.717 -14.596  0.00  0.00    +0.019 C 
ATOM      7  C   UNL     1      32.854 -22.964 -16.282  0.00  0.00    +0.044 C 
ATOM      8  C   UNL     1      34.181 -23.746 -16.194  0.00  0.00    +0.169 C 
ATOM      9  C   UNL     1      30.590 -22.549 -15.099  0.00  0.00    +0.058 C 
ATOM     10  C   UNL     1      31.228 -23.601 -12.961  0.00  0.00    +0.000 C 
ATOM     11  C   UNL     1      34.204 -24.201 -12.285  0.00  0.00    +0.004 C 
ATOM     12  C   UNL     1      30.070 -22.895 -13.688  0.00  0.00    +0.007 C 
ATOM     13  C   UNL     1      36.500 -24.777 -13.116  0.00  0.00    -0.042 C 
ATOM     14  C   UNL     1      31.362 -24.908 -15.695  0.00  0.00    +0.001 C 
ATOM     15  C   UNL     1      35.417 -25.102 -12.117  0.00  0.00    +0.022 C 
ATOM     16  C   UNL     1      37.232 -24.075 -15.432  0.00  0.00    +0.012 C 
ATOM     17  C   UNL     1      35.867 -26.165 -15.094  0.00  0.00    +0.004 C 
ATOM     18  C   UNL     1      38.621 -24.575 -15.071  0.00  0.00    +0.069 C 
ATOM     19  C   UNL     1      37.752 -24.579 -12.669  0.00  0.00    +0.029 C 
ATOM     20  C   UNL     1      38.882 -24.382 -13.603  0.00  0.00    +0.173 C 
ENDROOT
BRANCH   9  22
ATOM     21  O   UNL     1      29.716 -22.319 -17.306  0.00  0.00    -0.296 OA
ATOM     22  C   UNL     1      29.531 -22.689 -16.147  0.00  0.00    +0.151 C 
ATOM     23  C   UNL     1      28.230 -23.309 -15.715  0.00  0.00    +0.072 C 
ENDBRANCH   9  22
BRANCH   8  24
ATOM     24  O   UNL     1      35.101 -23.073 -17.051  0.00  0.00    -0.452 OA
BRANCH  24  26
ATOM     25  O   UNL     1      33.902 -23.597 -18.950  0.00  0.00    -0.250 OA
ATOM     26  C   UNL     1      34.680 -22.877 -18.338  0.00  0.00    +0.317 C 
BRANCH  26  27
ATOM     27  C   UNL     1      35.332 -21.626 -18.884  0.00  0.00    +0.121 C 
BRANCH  27  28
ATOM     28  C   UNL     1      34.518 -20.957 -19.985  0.00  0.00    +0.121 C 
BRANCH  28  30
ATOM     29  O   UNL     1      36.371 -19.442 -20.313  0.00  0.00    -0.250 OA
ATOM     30  C   UNL     1      35.347 -19.953 -20.747  0.00  0.00    +0.314 C 
BRANCH  30  31
ATOM     31  O   UNL     1      34.848 -19.693 -21.980  0.00  0.00    -0.480 OA
ATOM     32  H   UNL     1      34.093 -19.146 -22.075  0.00  0.00    +0.295 HD
ENDBRANCH  30  31
ENDBRANCH  28  30
ENDBRANCH  27  28
ENDBRANCH  26  27
ENDBRANCH  24  26
ENDBRANCH   8  24
TORSDOF 7
ENDMDL
MODEL 4
REMARK VINA RESULT:      -7.6      2.008      5.622
REMARK  Name = 5289373
REMARK  7 active torsions:
REMARK  status: ('A' for Active; 'I' for Inactive)
REMARK    1  A    between atoms: C_8  and  O_24
REMARK    2  A    between atoms: C_9  and  C_22
REMARK    3  A    between atoms: O_24  and  C_26
REMARK    4  A    between atoms: C_26  and  C_27
REMARK    5  A    between atoms: C_27  and  C_28
REMARK    6  A    between atoms: C_28  and  C_30
REMARK    7  A    between atoms: C_30  and  O_31
REMARK                            x       y       z     vdW  Elec       q    Type
REMARK                         _______ _______ _______ _____ _____    ______ ____
ROOT
ATOM      1  O   UNL     1      27.820 -24.158 -16.296  0.00  0.00    -0.291 OA
ATOM      2  C   UNL     1      36.165 -24.195 -14.714  0.00  0.00    +0.010 C 
ATOM      3  C   UNL     1      35.072 -25.026 -14.015  0.00  0.00    +0.001 C 
ATOM      4  C   UNL     1      33.732 -24.288 -13.927  0.00  0.00    +0.004 C 
ATOM      5  C   UNL     1      33.222 -23.956 -15.370  0.00  0.00    +0.044 C 
ATOM      6  C   UNL     1      31.813 -23.214 -15.344  0.00  0.00    +0.019 C 
ATOM      7  C   UNL     1      35.705 -23.956 -16.153  0.00  0.00    +0.044 C 
ATOM      8  C   UNL     1      34.333 -23.254 -16.220  0.00  0.00    +0.169 C 
ATOM      9  C   UNL     1      37.355 -25.171 -14.571  0.00  0.00    +0.058 C 
ATOM     10  C   UNL     1      35.748 -25.485 -12.726  0.00  0.00    +0.000 C 
ATOM     11  C   UNL     1      32.692 -25.124 -13.171  0.00  0.00    +0.004 C 
ATOM     12  C   UNL     1      37.206 -25.744 -13.146  0.00  0.00    +0.007 C 
ATOM     13  C   UNL     1      30.845 -23.978 -14.424  0.00  0.00    -0.042 C 
ATOM     14  C   UNL     1      36.468 -22.840 -14.026  0.00  0.00    +0.001 C 
ATOM     15  C   UNL     1      31.370 -24.380 -13.068  0.00  0.00    +0.022 C 
ATOM     16  C   UNL     1      31.224 -23.157 -16.785  0.00  0.00    +0.012 C 
ATOM     17  C   UNL     1      31.944 -21.768 -14.811  0.00  0.00    +0.004 C 
ATOM     18  C   UNL     1      29.739 -22.835 -16.839  0.00  0.00    +0.069 C 
ATOM     19  C   UNL     1      29.576 -24.286 -14.743  0.00  0.00    +0.029 C 
ATOM     20  C   UNL     1      28.961 -23.812 -16.001  0.00  0.00    +0.173 C 
ENDROOT
BRANCH   9  22
ATOM     21  O   UNL     1      38.859 -23.644 -15.617  0.00  0.00    -0.296 OA
ATOM     22  C   UNL     1      38.697 -24.548 -14.798  0.00  0.00    +0.151 C 
ATOM     23  C   UNL     1      39.837 -25.079 -13.971  0.00  0.00    +0.072 C 
ENDBRANCH   9  22
BRANCH   8  24
ATOM     24  O   UNL     1      33.962 -23.230 -17.597  0.00  0.00    -0.452 OA
BRANCH  24  26
ATOM     25  O   UNL     1      35.640 -21.722 -18.075  0.00  0.00    -0.250 OA
ATOM     26  C   UNL     1      34.600 -22.297 -18.368  0.00  0.00    +0.317 C 
BRANCH  26  27
ATOM     27  C   UNL     1      33.812 -22.088 -19.642  0.00  0.00    +0.121 C 
BRANCH  27  28
ATOM     28  C   UNL     1      33.382 -20.641 -19.851  0.00  0.00    +0.121 C 
BRANCH  28  30
ATOM     29  O   UNL     1      33.958 -19.599 -21.954  0.00  0.00    -0.250 OA
ATOM     30  C   UNL     1      34.292 -19.935 -20.825  0.00  0.00    +0.314 C 
BRANCH  30  31
ATOM     31  O   UNL     1      35.521 -19.688 -20.307  0.00  0.00    -0.480 OA
ATOM     32  H   UNL     1      35.646 -19.684 -19.378  0.00  0.00    +0.295 HD
ENDBRANCH  30  31
ENDBRANCH  28  30
ENDBRANCH  27  28
ENDBRANCH  26  27
ENDBRANCH  24  26
ENDBRANCH   8  24
TORSDOF 7
ENDMDL
