MODEL 1
REMARK VINA RESULT:      -8.1      0.000      0.000
REMARK  Name = 9878109
REMARK  3 active torsions:
REMARK  status: ('A' for Active; 'I' for Inactive)
REMARK    1  A    between atoms: N_3  and  C_13
REMARK    2  A    between atoms: C_16  and  C_17
REMARK    3  A    between atoms: C_17  and  O_18
REMARK                            x       y       z     vdW  Elec       q    Type
REMARK                         _______ _______ _______ _____ _____    ______ ____
ROOT
ATOM      1  O   UNL     1      34.222 -23.140 -18.362  0.00  0.00    -0.252 OA
ATOM      2  O   UNL     1      29.890 -22.449 -16.980  0.00  0.00    -0.270 OA
ATOM      3  N   UNL     1      33.696 -23.512 -16.120  0.00  0.00    -0.219 N 
ATOM      4  N   UNL     1      32.066 -22.799 -17.659  0.00  0.00    -0.236 N 
ATOM      5  C   UNL     1      32.731 -23.507 -15.133  0.00  0.00    +0.071 C 
ATOM      6  C   UNL     1      33.402 -23.153 -17.441  0.00  0.00    +0.315 C 
ATOM      7  C   UNL     1      31.454 -23.167 -15.345  0.00  0.00    +0.047 C 
ATOM      8  C   UNL     1      31.046 -22.771 -16.720  0.00  0.00    +0.250 C 
ATOM      9  C   UNL     1      30.411 -23.163 -14.274  0.00  0.00    +0.037 C 
ATOM     10  H   UNL     1      31.823 -22.541 -18.578  0.00  0.00    +0.159 HD
ENDROOT
BRANCH   3  13
ATOM     11  F   UNL     1      37.796 -24.020 -15.068  0.00  0.00    -0.234 F 
ATOM     12  O   UNL     1      34.967 -24.813 -14.645  0.00  0.00    -0.334 OA
ATOM     13  C   UNL     1      35.026 -23.899 -15.751  0.00  0.00    +0.202 C 
ATOM     14  C   UNL     1      35.881 -22.726 -15.310  0.00  0.00    +0.089 C 
ATOM     15  C   UNL     1      36.830 -23.386 -14.344  0.00  0.00    +0.195 C 
ATOM     16  C   UNL     1      35.968 -24.442 -13.677  0.00  0.00    +0.179 C 
BRANCH  16  17
ATOM     17  C   UNL     1      35.252 -23.929 -12.435  0.00  0.00    +0.170 C 
BRANCH  17  18
ATOM     18  O   UNL     1      34.869 -25.039 -11.642  0.00  0.00    -0.379 OA
ATOM     19  H   UNL     1      34.590 -24.730 -10.766  0.00  0.00    +0.211 HD
ENDBRANCH  17  18
ENDBRANCH  16  17
ENDBRANCH   3  13
TORSDOF 3
ENDMDL
MODEL 2
REMARK VINA RESULT:      -7.9      8.464     10.079
REMARK  Name = 9878109
REMARK  3 active torsions:
REMARK  status: ('A' for Active; 'I' for Inactive)
REMARK    1  A    between atoms: N_3  and  C_13
REMARK    2  A    between atoms: C_16  and  C_17
REMARK    3  A    between atoms: C_17  and  O_18
REMARK                            x       y       z     vdW  Elec       q    Type
REMARK                         _______ _______ _______ _____ _____    ______ ____
ROOT
ATOM      1  O   UNL     1      34.807 -17.922 -25.642  0.00  0.00    -0.252 OA
ATOM      2  O   UNL     1      32.770 -13.815 -25.283  0.00  0.00    -0.270 OA
ATOM      3  N   UNL     1      34.586 -16.970 -23.523  0.00  0.00    -0.219 N 
ATOM      4  N   UNL     1      33.794 -15.874 -25.448  0.00  0.00    -0.236 N 
ATOM      5  C   UNL     1      34.141 -15.907 -22.764  0.00  0.00    +0.071 C 
ATOM      6  C   UNL     1      34.430 -17.000 -24.915  0.00  0.00    +0.315 C 
ATOM      7  C   UNL     1      33.532 -14.831 -23.278  0.00  0.00    +0.047 C 
ATOM      8  C   UNL     1      33.322 -14.773 -24.749  0.00  0.00    +0.250 C 
ATOM      9  C   UNL     1      33.051 -13.681 -22.453  0.00  0.00    +0.037 C 
ATOM     10  H   UNL     1      33.667 -15.861 -26.424  0.00  0.00    +0.159 HD
ENDROOT
BRANCH   3  13
ATOM     11  F   UNL     1      36.642 -19.756 -21.036  0.00  0.00    -0.234 F 
ATOM     12  O   UNL     1      34.337 -19.189 -22.818  0.00  0.00    -0.334 OA
ATOM     13  C   UNL     1      35.221 -18.059 -22.840  0.00  0.00    +0.202 C 
ATOM     14  C   UNL     1      35.557 -17.733 -21.396  0.00  0.00    +0.089 C 
ATOM     15  C   UNL     1      35.485 -19.092 -20.752  0.00  0.00    +0.195 C 
ATOM     16  C   UNL     1      34.353 -19.772 -21.500  0.00  0.00    +0.179 C 
BRANCH  16  17
ATOM     17  C   UNL     1      32.991 -19.532 -20.865  0.00  0.00    +0.170 C 
BRANCH  17  18
ATOM     18  O   UNL     1      32.670 -20.642 -20.046  0.00  0.00    -0.379 OA
ATOM     19  H   UNL     1      31.868 -20.448 -19.535  0.00  0.00    +0.211 HD
ENDBRANCH  17  18
ENDBRANCH  16  17
ENDBRANCH   3  13
TORSDOF 3
ENDMDL
MODEL 3
REMARK VINA RESULT:      -7.9      6.992      9.060
REMARK  Name = 9878109
REMARK  3 active torsions:
REMARK  status: ('A' for Active; 'I' for Inactive)
REMARK    1  A    between atoms: N_3  and  C_13
REMARK    2  A    between atoms: C_16  and  C_17
REMARK    3  A    between atoms: C_17  and  O_18
REMARK                            x       y       z     vdW  Elec       q    Type
REMARK                         _______ _______ _______ _____ _____    ______ ____
ROOT
ATOM      1  O   UNL     1      37.899 -19.182 -21.049  0.00  0.00    -0.252 OA
ATOM      2  O   UNL     1      35.255 -22.395 -19.090  0.00  0.00    -0.270 OA
ATOM      3  N   UNL     1      35.583 -18.913 -21.120  0.00  0.00    -0.219 N 
ATOM      4  N   UNL     1      36.568 -20.777 -20.077  0.00  0.00    -0.236 N 
ATOM      5  C   UNL     1      34.341 -19.413 -20.785  0.00  0.00    +0.071 C 
ATOM      6  C   UNL     1      36.764 -19.581 -20.777  0.00  0.00    +0.315 C 
ATOM      7  C   UNL     1      34.157 -20.557 -20.115  0.00  0.00    +0.047 C 
ATOM      8  C   UNL     1      35.356 -21.338 -19.707  0.00  0.00    +0.250 C 
ATOM      9  C   UNL     1      32.810 -21.097 -19.754  0.00  0.00    +0.037 C 
ATOM     10  H   UNL     1      37.379 -21.274 -19.819  0.00  0.00    +0.159 HD
ENDROOT
BRANCH   3  13
ATOM     11  F   UNL     1      35.398 -15.549 -23.733  0.00  0.00    -0.234 F 
ATOM     12  O   UNL     1      35.275 -16.597 -20.958  0.00  0.00    -0.334 OA
ATOM     13  C   UNL     1      35.631 -17.674 -21.839  0.00  0.00    +0.202 C 
ATOM     14  C   UNL     1      34.662 -17.630 -23.006  0.00  0.00    +0.089 C 
ATOM     15  C   UNL     1      34.358 -16.158 -23.095  0.00  0.00    +0.195 C 
ATOM     16  C   UNL     1      34.367 -15.713 -21.644  0.00  0.00    +0.179 C 
BRANCH  16  17
ATOM     17  C   UNL     1      33.004 -15.830 -20.976  0.00  0.00    +0.170 C 
BRANCH  17  18
ATOM     18  O   UNL     1      32.109 -14.935 -21.611  0.00  0.00    -0.379 OA
ATOM     19  H   UNL     1      31.739 -15.354 -22.404  0.00  0.00    +0.211 HD
ENDBRANCH  17  18
ENDBRANCH  16  17
ENDBRANCH   3  13
TORSDOF 3
ENDMDL
MODEL 4
REMARK VINA RESULT:      -7.8      1.922      3.142
REMARK  Name = 9878109
REMARK  3 active torsions:
REMARK  status: ('A' for Active; 'I' for Inactive)
REMARK    1  A    between atoms: N_3  and  C_13
REMARK    2  A    between atoms: C_16  and  C_17
REMARK    3  A    between atoms: C_17  and  O_18
REMARK                            x       y       z     vdW  Elec       q    Type
REMARK                         _______ _______ _______ _____ _____    ______ ____
ROOT
ATOM      1  O   UNL     1      32.371 -24.658 -13.227  0.00  0.00    -0.252 OA
ATOM      2  O   UNL     1      30.706 -22.709 -17.045  0.00  0.00    -0.270 OA
ATOM      3  N   UNL     1      33.858 -24.121 -14.941  0.00  0.00    -0.219 N 
ATOM      4  N   UNL     1      31.554 -23.687 -15.137  0.00  0.00    -0.236 N 
ATOM      5  C   UNL     1      34.041 -23.588 -16.201  0.00  0.00    +0.071 C 
ATOM      6  C   UNL     1      32.592 -24.194 -14.347  0.00  0.00    +0.315 C 
ATOM      7  C   UNL     1      33.045 -23.103 -16.954  0.00  0.00    +0.047 C 
ATOM      8  C   UNL     1      31.663 -23.139 -16.406  0.00  0.00    +0.250 C 
ATOM      9  C   UNL     1      33.246 -22.527 -18.319  0.00  0.00    +0.037 C 
ATOM     10  H   UNL     1      30.649 -23.722 -14.750  0.00  0.00    +0.159 HD
ENDROOT
BRANCH   3  13
ATOM     11  F   UNL     1      37.309 -26.037 -13.330  0.00  0.00    -0.234 F 
ATOM     12  O   UNL     1      35.898 -23.505 -13.969  0.00  0.00    -0.334 OA
ATOM     13  C   UNL     1      35.016 -24.603 -14.247  0.00  0.00    +0.202 C 
ATOM     14  C   UNL     1      35.809 -25.614 -15.055  0.00  0.00    +0.089 C 
ATOM     15  C   UNL     1      37.204 -25.396 -14.530  0.00  0.00    +0.195 C 
ATOM     16  C   UNL     1      37.249 -23.901 -14.273  0.00  0.00    +0.179 C 
BRANCH  16  17
ATOM     17  C   UNL     1      37.711 -23.102 -15.484  0.00  0.00    +0.170 C 
BRANCH  17  18
ATOM     18  O   UNL     1      38.956 -23.619 -15.920  0.00  0.00    -0.379 OA
ATOM     19  H   UNL     1      38.937 -24.588 -15.878  0.00  0.00    +0.211 HD
ENDBRANCH  17  18
ENDBRANCH  16  17
ENDBRANCH   3  13
TORSDOF 3
ENDMDL
MODEL 5
REMARK VINA RESULT:      -7.7      1.741      2.308
REMARK  Name = 9878109
REMARK  3 active torsions:
REMARK  status: ('A' for Active; 'I' for Inactive)
REMARK    1  A    between atoms: N_3  and  C_13
REMARK    2  A    between atoms: C_16  and  C_17
REMARK    3  A    between atoms: C_17  and  O_18
REMARK                            x       y       z     vdW  Elec       q    Type
REMARK                         _______ _______ _______ _____ _____    ______ ____
ROOT
ATOM      1  O   UNL     1      34.881 -22.865 -17.219  0.00  0.00    -0.252 OA
ATOM      2  O   UNL     1      30.473 -23.672 -16.187  0.00  0.00    -0.270 OA
ATOM      3  N   UNL     1      34.376 -23.770 -15.130  0.00  0.00    -0.219 N 
ATOM      4  N   UNL     1      32.687 -23.272 -16.690  0.00  0.00    -0.236 N 
ATOM      5  C   UNL     1      33.403 -24.215 -14.257  0.00  0.00    +0.071 C 
ATOM      6  C   UNL     1      34.056 -23.273 -16.399  0.00  0.00    +0.315 C 
ATOM      7  C   UNL     1      32.094 -24.211 -14.539  0.00  0.00    +0.047 C 
ATOM      8  C   UNL     1      31.659 -23.701 -15.866  0.00  0.00    +0.250 C 
ATOM      9  C   UNL     1      31.043 -24.693 -13.591  0.00  0.00    +0.037 C 
ATOM     10  H   UNL     1      32.426 -22.929 -17.576  0.00  0.00    +0.159 HD
ENDROOT
BRANCH   3  13
ATOM     11  F   UNL     1      38.184 -24.050 -13.234  0.00  0.00    -0.234 F 
ATOM     12  O   UNL     1      36.488 -24.669 -15.591  0.00  0.00    -0.334 OA
ATOM     13  C   UNL     1      35.740 -23.832 -14.695  0.00  0.00    +0.202 C 
ATOM     14  C   UNL     1      35.891 -24.424 -13.306  0.00  0.00    +0.089 C 
ATOM     15  C   UNL     1      37.262 -25.043 -13.386  0.00  0.00    +0.195 C 
ATOM     16  C   UNL     1      37.335 -25.542 -14.818  0.00  0.00    +0.179 C 
BRANCH  16  17
ATOM     17  C   UNL     1      36.815 -26.964 -14.980  0.00  0.00    +0.170 C 
BRANCH  17  18
ATOM     18  O   UNL     1      36.803 -27.287 -16.359  0.00  0.00    -0.379 OA
ATOM     19  H   UNL     1      36.099 -27.931 -16.535  0.00  0.00    +0.211 HD
ENDBRANCH  17  18
ENDBRANCH  16  17
ENDBRANCH   3  13
TORSDOF 3
ENDMDL
MODEL 6
REMARK VINA RESULT:      -7.5      2.111      3.465
REMARK  Name = 9878109
REMARK  3 active torsions:
REMARK  status: ('A' for Active; 'I' for Inactive)
REMARK    1  A    between atoms: N_3  and  C_13
REMARK    2  A    between atoms: C_16  and  C_17
REMARK    3  A    between atoms: C_17  and  O_18
REMARK                            x       y       z     vdW  Elec       q    Type
REMARK                         _______ _______ _______ _____ _____    ______ ____
ROOT
ATOM      1  O   UNL     1      31.993 -23.640 -15.904  0.00  0.00    -0.252 OA
ATOM      2  O   UNL     1      32.953 -21.801 -20.008  0.00  0.00    -0.270 OA
ATOM      3  N   UNL     1      34.212 -23.116 -16.397  0.00  0.00    -0.219 N 
ATOM      4  N   UNL     1      32.487 -22.723 -17.947  0.00  0.00    -0.236 N 
ATOM      5  C   UNL     1      35.114 -22.607 -17.309  0.00  0.00    +0.071 C 
ATOM      6  C   UNL     1      32.843 -23.197 -16.679  0.00  0.00    +0.315 C 
ATOM      7  C   UNL     1      34.769 -22.155 -18.521  0.00  0.00    +0.047 C 
ATOM      8  C   UNL     1      33.335 -22.201 -18.911  0.00  0.00    +0.250 C 
ATOM      9  C   UNL     1      35.749 -21.605 -19.508  0.00  0.00    +0.037 C 
ATOM     10  H   UNL     1      31.530 -22.765 -18.180  0.00  0.00    +0.159 HD
ENDROOT
BRANCH   3  13
ATOM     11  F   UNL     1      35.654 -25.060 -12.888  0.00  0.00    -0.234 F 
ATOM     12  O   UNL     1      35.872 -22.782 -14.779  0.00  0.00    -0.334 OA
ATOM     13  C   UNL     1      34.722 -23.564 -15.134  0.00  0.00    +0.202 C 
ATOM     14  C   UNL     1      35.164 -25.016 -15.159  0.00  0.00    +0.089 C 
ATOM     15  C   UNL     1      36.249 -25.021 -14.114  0.00  0.00    +0.195 C 
ATOM     16  C   UNL     1      36.900 -23.661 -14.282  0.00  0.00    +0.179 C 
BRANCH  16  17
ATOM     17  C   UNL     1      38.040 -23.666 -15.292  0.00  0.00    +0.170 C 
BRANCH  17  18
ATOM     18  O   UNL     1      38.673 -24.933 -15.255  0.00  0.00    -0.379 OA
ATOM     19  H   UNL     1      38.000 -25.632 -15.273  0.00  0.00    +0.211 HD
ENDBRANCH  17  18
ENDBRANCH  16  17
ENDBRANCH   3  13
TORSDOF 3
ENDMDL
MODEL 7
REMARK VINA RESULT:      -7.4      2.179      2.812
REMARK  Name = 9878109
REMARK  3 active torsions:
REMARK  status: ('A' for Active; 'I' for Inactive)
REMARK    1  A    between atoms: N_3  and  C_13
REMARK    2  A    between atoms: C_16  and  C_17
REMARK    3  A    between atoms: C_17  and  O_18
REMARK                            x       y       z     vdW  Elec       q    Type
REMARK                         _______ _______ _______ _____ _____    ______ ____
ROOT
ATOM      1  O   UNL     1      37.190 -22.039 -17.437  0.00  0.00    -0.252 OA
ATOM      2  O   UNL     1      32.830 -22.456 -18.840  0.00  0.00    -0.270 OA
ATOM      3  N   UNL     1      35.627 -22.944 -15.961  0.00  0.00    -0.219 N 
ATOM      4  N   UNL     1      35.012 -22.252 -18.123  0.00  0.00    -0.236 N 
ATOM      5  C   UNL     1      34.318 -23.317 -15.734  0.00  0.00    +0.071 C 
ATOM      6  C   UNL     1      36.036 -22.389 -17.179  0.00  0.00    +0.315 C 
ATOM      7  C   UNL     1      33.341 -23.184 -16.640  0.00  0.00    +0.047 C 
ATOM      8  C   UNL     1      33.680 -22.603 -17.966  0.00  0.00    +0.250 C 
ATOM      9  C   UNL     1      31.923 -23.589 -16.391  0.00  0.00    +0.037 C 
ATOM     10  H   UNL     1      35.264 -21.865 -18.993  0.00  0.00    +0.159 HD
ENDROOT
BRANCH   3  13
ATOM     11  F   UNL     1      37.909 -23.511 -12.404  0.00  0.00    -0.234 F 
ATOM     12  O   UNL     1      37.477 -24.198 -15.260  0.00  0.00    -0.334 OA
ATOM     13  C   UNL     1      36.571 -23.144 -14.900  0.00  0.00    +0.202 C 
ATOM     14  C   UNL     1      35.913 -23.552 -13.595  0.00  0.00    +0.089 C 
ATOM     15  C   UNL     1      37.000 -24.370 -12.948  0.00  0.00    +0.195 C 
ATOM     16  C   UNL     1      37.655 -25.069 -14.126  0.00  0.00    +0.179 C 
BRANCH  16  17
ATOM     17  C   UNL     1      37.011 -26.408 -14.457  0.00  0.00    +0.170 C 
BRANCH  17  18
ATOM     18  O   UNL     1      37.164 -26.655 -15.844  0.00  0.00    -0.379 OA
ATOM     19  H   UNL     1      36.935 -25.855 -16.342  0.00  0.00    +0.211 HD
ENDBRANCH  17  18
ENDBRANCH  16  17
ENDBRANCH   3  13
TORSDOF 3
ENDMDL
MODEL 8
REMARK VINA RESULT:      -7.4      9.133     11.084
REMARK  Name = 9878109
REMARK  3 active torsions:
REMARK  status: ('A' for Active; 'I' for Inactive)
REMARK    1  A    between atoms: N_3  and  C_13
REMARK    2  A    between atoms: C_16  and  C_17
REMARK    3  A    between atoms: C_17  and  O_18
REMARK                            x       y       z     vdW  Elec       q    Type
REMARK                         _______ _______ _______ _____ _____    ______ ____
ROOT
ATOM      1  O   UNL     1      34.695 -15.175 -20.090  0.00  0.00    -0.252 OA
ATOM      2  O   UNL     1      32.587 -12.342 -23.037  0.00  0.00    -0.270 OA
ATOM      3  N   UNL     1      34.476 -15.844 -22.314  0.00  0.00    -0.219 N 
ATOM      4  N   UNL     1      33.645 -13.772 -21.570  0.00  0.00    -0.236 N 
ATOM      5  C   UNL     1      34.019 -15.544 -23.581  0.00  0.00    +0.071 C 
ATOM      6  C   UNL     1      34.307 -14.961 -21.241  0.00  0.00    +0.315 C 
ATOM      7  C   UNL     1      33.386 -14.407 -23.893  0.00  0.00    +0.047 C 
ATOM      8  C   UNL     1      33.161 -13.406 -22.816  0.00  0.00    +0.250 C 
ATOM      9  C   UNL     1      32.892 -14.085 -25.267  0.00  0.00    +0.037 C 
ATOM     10  H   UNL     1      33.509 -13.127 -20.839  0.00  0.00    +0.159 HD
ENDROOT
BRANCH   3  13
ATOM     11  F   UNL     1      35.909 -19.754 -21.401  0.00  0.00    -0.234 F 
ATOM     12  O   UNL     1      35.682 -17.548 -23.374  0.00  0.00    -0.334 OA
ATOM     13  C   UNL     1      35.139 -17.101 -22.123  0.00  0.00    +0.202 C 
ATOM     14  C   UNL     1      34.205 -18.191 -21.631  0.00  0.00    +0.089 C 
ATOM     15  C   UNL     1      34.853 -19.427 -22.198  0.00  0.00    +0.195 C 
ATOM     16  C   UNL     1      35.397 -18.952 -23.533  0.00  0.00    +0.179 C 
BRANCH  16  17
ATOM     17  C   UNL     1      34.396 -19.101 -24.671  0.00  0.00    +0.170 C 
BRANCH  17  18
ATOM     18  O   UNL     1      34.575 -18.026 -25.577  0.00  0.00    -0.379 OA
ATOM     19  H   UNL     1      34.532 -18.358 -26.487  0.00  0.00    +0.211 HD
ENDBRANCH  17  18
ENDBRANCH  16  17
ENDBRANCH   3  13
TORSDOF 3
ENDMDL
MODEL 9
REMARK VINA RESULT:      -7.3     14.917     16.387
REMARK  Name = 9878109
REMARK  3 active torsions:
REMARK  status: ('A' for Active; 'I' for Inactive)
REMARK    1  A    between atoms: N_3  and  C_13
REMARK    2  A    between atoms: C_16  and  C_17
REMARK    3  A    between atoms: C_17  and  O_18
REMARK                            x       y       z     vdW  Elec       q    Type
REMARK                         _______ _______ _______ _____ _____    ______ ____
ROOT
ATOM      1  O   UNL     1      34.935  -9.577 -25.098  0.00  0.00    -0.252 OA
ATOM      2  O   UNL     1      34.098 -13.845 -23.605  0.00  0.00    -0.270 OA
ATOM      3  N   UNL     1      33.185  -9.905 -23.592  0.00  0.00    -0.219 N 
ATOM      4  N   UNL     1      34.506 -11.700 -24.346  0.00  0.00    -0.236 N 
ATOM      5  C   UNL     1      32.459 -10.794 -22.825  0.00  0.00    +0.071 C 
ATOM      6  C   UNL     1      34.253 -10.325 -24.395  0.00  0.00    +0.315 C 
ATOM      7  C   UNL     1      32.704 -12.109 -22.781  0.00  0.00    +0.047 C 
ATOM      8  C   UNL     1      33.821 -12.648 -23.602  0.00  0.00    +0.250 C 
ATOM      9  C   UNL     1      31.915 -13.069 -21.950  0.00  0.00    +0.037 C 
ATOM     10  H   UNL     1      35.251 -12.030 -24.899  0.00  0.00    +0.159 HD
ENDROOT
BRANCH   3  13
ATOM     11  F   UNL     1      31.458  -6.008 -23.539  0.00  0.00    -0.234 F 
ATOM     12  O   UNL     1      33.472  -7.889 -22.436  0.00  0.00    -0.334 OA
ATOM     13  C   UNL     1      32.812  -8.522 -23.543  0.00  0.00    +0.202 C 
ATOM     14  C   UNL     1      31.322  -8.320 -23.344  0.00  0.00    +0.089 C 
ATOM     15  C   UNL     1      31.287  -7.000 -22.619  0.00  0.00    +0.195 C 
ATOM     16  C   UNL     1      32.526  -7.052 -21.744  0.00  0.00    +0.179 C 
BRANCH  16  17
ATOM     17  C   UNL     1      32.264  -7.671 -20.377  0.00  0.00    +0.170 C 
BRANCH  17  18
ATOM     18  O   UNL     1      33.138  -7.076 -19.434  0.00  0.00    -0.379 OA
ATOM     19  H   UNL     1      32.756  -6.242 -19.120  0.00  0.00    +0.211 HD
ENDBRANCH  17  18
ENDBRANCH  16  17
ENDBRANCH   3  13
TORSDOF 3
ENDMDL
