MODEL 1
REMARK VINA RESULT:     -12.5      0.000      0.000
REMARK  Name = 4257
REMARK  4 active torsions:
REMARK  status: ('A' for Active; 'I' for Inactive)
REMARK    1  A    between atoms: C_1  and  N_5
REMARK    2  A    between atoms: C_1  and  C_20
REMARK    3  A    between atoms: C_20  and  C_21
REMARK    4  A    between atoms: C_21  and  N_23
REMARK                            x       y       z     vdW  Elec       q    Type
REMARK                         _______ _______ _______ _____ _____    ______ ____
ROOT
ATOM      1  C   UNL     1      34.667 -21.889 -19.402  0.00  0.00    -0.076 C 
ENDROOT
BRANCH   1   5
ATOM      2  O   UNL     1      34.629 -19.840 -23.581  0.00  0.00    -0.277 OA
ATOM      3  N   UNL     1      34.203 -16.794 -21.940  0.00  0.00    +0.407 N 
ATOM      4  N   UNL     1      34.992 -17.558 -23.903  0.00  0.00    -0.326 N 
ATOM      5  N   UNL     1      34.529 -20.496 -19.826  0.00  0.00    +0.387 N 
ATOM      6  C   UNL     1      34.430 -18.229 -21.709  0.00  0.00    +0.027 C 
ATOM      7  C   UNL     1      35.038 -16.401 -23.071  0.00  0.00    +0.018 C 
ATOM      8  C   UNL     1      33.165 -18.879 -21.125  0.00  0.00    -0.033 C 
ATOM      9  C   UNL     1      35.663 -18.547 -20.841  0.00  0.00    -0.033 C 
ATOM     10  C   UNL     1      34.299 -15.843 -20.845  0.00  0.00    -0.074 C 
ATOM     11  C   UNL     1      34.675 -18.694 -23.161  0.00  0.00    +0.203 C 
ATOM     12  C   UNL     1      34.490 -15.124 -23.688  0.00  0.00    -0.002 C 
ATOM     13  C   UNL     1      33.371 -20.342 -20.715  0.00  0.00    -0.079 C 
ATOM     14  C   UNL     1      35.759 -20.034 -20.479  0.00  0.00    -0.079 C 
ATOM     15  C   UNL     1      33.778 -14.484 -21.338  0.00  0.00    -0.023 C 
ATOM     16  C   UNL     1      34.468 -14.020 -22.627  0.00  0.00    -0.003 C 
ATOM     17  H   UNL     1      33.200 -16.727 -22.112  0.00  0.00    -0.076 HD
ATOM     18  H   UNL     1      35.161 -17.554 -24.872  0.00  0.00    +0.147 HD
ATOM     19  H   UNL     1      34.373 -19.917 -19.001  0.00  0.00    -0.080 HD
ENDBRANCH   1   5
BRANCH   1  20
ATOM     20  C   UNL     1      33.402 -22.405 -18.709  0.00  0.00    -0.001 C 
BRANCH  20  21
ATOM     21  C   UNL     1      33.584 -23.715 -17.943  0.00  0.00    +0.093 C 
BRANCH  21  23
ATOM     22 CL   UNL     1      38.173 -21.478 -16.366  0.00  0.00    -0.082 Cl
ATOM     23  N   UNL     1      33.426 -23.498 -16.496  0.00  0.00    -0.287 N 
ATOM     24  C   UNL     1      34.655 -23.360 -15.800  0.00  0.00    +0.048 C 
ATOM     25  C   UNL     1      32.108 -23.308 -15.998  0.00  0.00    +0.048 C 
ATOM     26  C   UNL     1      34.880 -23.998 -14.568  0.00  0.00    -0.008 C 
ATOM     27  C   UNL     1      31.734 -23.488 -14.644  0.00  0.00    -0.008 C 
ATOM     28  C   UNL     1      33.809 -24.849 -13.950  0.00  0.00    +0.032 C 
ATOM     29  C   UNL     1      32.636 -23.978 -13.530  0.00  0.00    +0.032 C 
ATOM     30  C   UNL     1      35.702 -22.580 -16.335  0.00  0.00    +0.026 C 
ATOM     31  C   UNL     1      31.088 -22.863 -16.881  0.00  0.00    +0.015 C 
ATOM     32  C   UNL     1      36.114 -23.853 -13.909  0.00  0.00    -0.002 C 
ATOM     33  C   UNL     1      30.409 -23.194 -14.236  0.00  0.00    -0.003 C 
ATOM     34  C   UNL     1      36.924 -22.438 -15.674  0.00  0.00    +0.059 C 
ATOM     35  C   UNL     1      29.781 -22.599 -16.463  0.00  0.00    +0.001 C 
ATOM     36  C   UNL     1      37.130 -23.077 -14.459  0.00  0.00    +0.011 C 
ATOM     37  C   UNL     1      29.441 -22.760 -15.134  0.00  0.00    -0.000 C 
ENDBRANCH  21  23
ENDBRANCH  20  21
ENDBRANCH   1  20
TORSDOF 4
ENDMDL
MODEL 2
REMARK VINA RESULT:     -12.1      7.732     12.750
REMARK  Name = 4257
REMARK  4 active torsions:
REMARK  status: ('A' for Active; 'I' for Inactive)
REMARK    1  A    between atoms: C_1  and  N_5
REMARK    2  A    between atoms: C_1  and  C_20
REMARK    3  A    between atoms: C_20  and  C_21
REMARK    4  A    between atoms: C_21  and  N_23
REMARK                            x       y       z     vdW  Elec       q    Type
REMARK                         _______ _______ _______ _____ _____    ______ ____
ROOT
ATOM      1  C   UNL     1      31.707 -10.407 -21.496  0.00  0.00    -0.076 C 
ENDROOT
BRANCH   1   5
ATOM      2  O   UNL     1      30.565  -5.895 -21.451  0.00  0.00    -0.277 OA
ATOM      3  N   UNL     1      32.399  -5.535 -24.394  0.00  0.00    +0.407 N 
ATOM      4  N   UNL     1      30.709  -4.508 -23.323  0.00  0.00    -0.326 N 
ATOM      5  N   UNL     1      32.017  -9.294 -22.393  0.00  0.00    +0.387 N 
ATOM      6  C   UNL     1      31.922  -6.533 -23.424  0.00  0.00    +0.027 C 
ATOM      7  C   UNL     1      31.308  -4.590 -24.614  0.00  0.00    +0.018 C 
ATOM      8  C   UNL     1      33.099  -7.069 -22.592  0.00  0.00    -0.033 C 
ATOM      9  C   UNL     1      31.115  -7.690 -24.045  0.00  0.00    -0.033 C 
ATOM     10  C   UNL     1      33.010  -5.952 -25.646  0.00  0.00    -0.074 C 
ATOM     11  C   UNL     1      30.994  -5.644 -22.567  0.00  0.00    +0.203 C 
ATOM     12  C   UNL     1      31.867  -3.287 -25.163  0.00  0.00    -0.002 C 
ATOM     13  C   UNL     1      32.707  -8.223 -21.662  0.00  0.00    -0.079 C 
ATOM     14  C   UNL     1      30.793  -8.792 -23.029  0.00  0.00    -0.079 C 
ATOM     15  C   UNL     1      33.616  -4.713 -26.323  0.00  0.00    -0.023 C 
ATOM     16  C   UNL     1      32.607  -3.568 -26.475  0.00  0.00    -0.003 C 
ATOM     17  H   UNL     1      33.224  -5.133 -23.950  0.00  0.00    -0.076 HD
ATOM     18  H   UNL     1      30.166  -3.751 -23.008  0.00  0.00    +0.147 HD
ATOM     19  H   UNL     1      32.640  -9.629 -23.127  0.00  0.00    -0.080 HD
ENDBRANCH   1   5
BRANCH   1  20
ATOM     20  C   UNL     1      31.748 -11.756 -22.223  0.00  0.00    -0.001 C 
BRANCH  20  21
ATOM     21  C   UNL     1      32.705 -12.778 -21.612  0.00  0.00    +0.093 C 
BRANCH  21  23
ATOM     22 CL   UNL     1      34.966  -9.053 -24.705  0.00  0.00    -0.082 Cl
ATOM     23  N   UNL     1      33.405 -13.530 -22.667  0.00  0.00    -0.287 N 
ATOM     24  C   UNL     1      33.668 -12.768 -23.835  0.00  0.00    +0.048 C 
ATOM     25  C   UNL     1      33.855 -14.842 -22.354  0.00  0.00    +0.048 C 
ATOM     26  C   UNL     1      33.462 -13.295 -25.121  0.00  0.00    -0.008 C 
ATOM     27  C   UNL     1      34.167 -15.829 -23.320  0.00  0.00    -0.008 C 
ATOM     28  C   UNL     1      32.955 -14.697 -25.292  0.00  0.00    +0.032 C 
ATOM     29  C   UNL     1      34.006 -15.689 -24.819  0.00  0.00    +0.032 C 
ATOM     30  C   UNL     1      34.139 -11.441 -23.738  0.00  0.00    +0.026 C 
ATOM     31  C   UNL     1      34.060 -15.201 -20.994  0.00  0.00    +0.015 C 
ATOM     32  C   UNL     1      33.720 -12.511 -26.259  0.00  0.00    -0.002 C 
ATOM     33  C   UNL     1      34.686 -17.081 -22.903  0.00  0.00    -0.003 C 
ATOM     34  C   UNL     1      34.395 -10.668 -24.872  0.00  0.00    +0.059 C 
ATOM     35  C   UNL     1      34.552 -16.449 -20.602  0.00  0.00    +0.001 C 
ATOM     36  C   UNL     1      34.184 -11.204 -26.135  0.00  0.00    +0.011 C 
ATOM     37  C   UNL     1      34.871 -17.391 -21.561  0.00  0.00    -0.000 C 
ENDBRANCH  21  23
ENDBRANCH  20  21
ENDBRANCH   1  20
TORSDOF 4
ENDMDL
MODEL 3
REMARK VINA RESULT:     -11.4      3.874     11.181
REMARK  Name = 4257
REMARK  4 active torsions:
REMARK  status: ('A' for Active; 'I' for Inactive)
REMARK    1  A    between atoms: C_1  and  N_5
REMARK    2  A    between atoms: C_1  and  C_20
REMARK    3  A    between atoms: C_20  and  C_21
REMARK    4  A    between atoms: C_21  and  N_23
REMARK                            x       y       z     vdW  Elec       q    Type
REMARK                         _______ _______ _______ _____ _____    ______ ____
ROOT
ATOM      1  C   UNL     1      34.060 -15.801 -24.991  0.00  0.00    -0.076 C 
ENDROOT
BRANCH   1   5
ATOM      2  O   UNL     1      37.070 -17.905 -22.132  0.00  0.00    -0.277 OA
ATOM      3  N   UNL     1      34.370 -19.653 -20.787  0.00  0.00    +0.407 N 
ATOM      4  N   UNL     1      36.598 -19.886 -20.991  0.00  0.00    -0.326 N 
ATOM      5  N   UNL     1      33.898 -16.808 -23.942  0.00  0.00    +0.387 N 
ATOM      6  C   UNL     1      34.741 -18.702 -21.845  0.00  0.00    +0.027 C 
ATOM      7  C   UNL     1      35.430 -20.655 -20.716  0.00  0.00    +0.018 C 
ATOM      8  C   UNL     1      34.176 -17.308 -21.527  0.00  0.00    -0.033 C 
ATOM      9  C   UNL     1      34.345 -19.145 -23.267  0.00  0.00    -0.033 C 
ATOM     10  C   UNL     1      33.051 -20.264 -20.768  0.00  0.00    -0.074 C 
ATOM     11  C   UNL     1      36.278 -18.726 -21.695  0.00  0.00    +0.203 C 
ATOM     12  C   UNL     1      35.396 -21.336 -19.357  0.00  0.00    -0.002 C 
ATOM     13  C   UNL     1      34.391 -16.294 -22.658  0.00  0.00    -0.079 C 
ATOM     14  C   UNL     1      34.588 -18.049 -24.312  0.00  0.00    -0.079 C 
ATOM     15  C   UNL     1      32.881 -21.005 -19.433  0.00  0.00    -0.023 C 
ATOM     16  C   UNL     1      34.025 -21.989 -19.153  0.00  0.00    -0.003 C 
ATOM     17  H   UNL     1      34.281 -19.073 -19.953  0.00  0.00    -0.076 HD
ATOM     18  H   UNL     1      37.509 -20.140 -20.720  0.00  0.00    +0.147 HD
ATOM     19  H   UNL     1      32.905 -17.017 -23.839  0.00  0.00    -0.080 HD
ENDBRANCH   1   5
BRANCH   1  20
ATOM     20  C   UNL     1      34.200 -14.389 -24.413  0.00  0.00    -0.001 C 
BRANCH  20  21
ATOM     21  C   UNL     1      33.019 -13.463 -24.700  0.00  0.00    +0.093 C 
BRANCH  21  23
ATOM     22 CL   UNL     1      32.680 -14.994 -19.592  0.00  0.00    -0.082 Cl
ATOM     23  N   UNL     1      33.130 -12.220 -23.921  0.00  0.00    -0.287 N 
ATOM     24  C   UNL     1      32.605 -12.319 -22.606  0.00  0.00    +0.048 C 
ATOM     25  C   UNL     1      33.858 -11.143 -24.497  0.00  0.00    +0.048 C 
ATOM     26  C   UNL     1      31.809 -11.302 -22.051  0.00  0.00    -0.008 C 
ATOM     27  C   UNL     1      33.731  -9.791 -24.097  0.00  0.00    -0.008 C 
ATOM     28  C   UNL     1      31.495 -10.069 -22.845  0.00  0.00    +0.032 C 
ATOM     29  C   UNL     1      32.762  -9.257 -23.062  0.00  0.00    +0.032 C 
ATOM     30  C   UNL     1      32.859 -13.459 -21.813  0.00  0.00    +0.026 C 
ATOM     31  C   UNL     1      34.817 -11.415 -25.509  0.00  0.00    +0.015 C 
ATOM     32  C   UNL     1      31.293 -11.436 -20.750  0.00  0.00    -0.002 C 
ATOM     33  C   UNL     1      34.563  -8.803 -24.682  0.00  0.00    -0.003 C 
ATOM     34  C   UNL     1      32.345 -13.584 -20.521  0.00  0.00    +0.059 C 
ATOM     35  C   UNL     1      35.614 -10.424 -26.089  0.00  0.00    +0.001 C 
ATOM     36  C   UNL     1      31.560 -12.571 -19.989  0.00  0.00    +0.011 C 
ATOM     37  C   UNL     1      35.490  -9.113 -25.669  0.00  0.00    -0.000 C 
ENDBRANCH  21  23
ENDBRANCH  20  21
ENDBRANCH   1  20
TORSDOF 4
ENDMDL
MODEL 4
REMARK VINA RESULT:     -11.3      1.154      1.944
REMARK  Name = 4257
REMARK  4 active torsions:
REMARK  status: ('A' for Active; 'I' for Inactive)
REMARK    1  A    between atoms: C_1  and  N_5
REMARK    2  A    between atoms: C_1  and  C_20
REMARK    3  A    between atoms: C_20  and  C_21
REMARK    4  A    between atoms: C_21  and  N_23
REMARK                            x       y       z     vdW  Elec       q    Type
REMARK                         _______ _______ _______ _____ _____    ______ ____
ROOT
ATOM      1  C   UNL     1      34.945 -21.658 -19.261  0.00  0.00    -0.076 C 
ENDROOT
BRANCH   1   5
ATOM      2  O   UNL     1      35.311 -17.061 -19.897  0.00  0.00    -0.277 OA
ATOM      3  N   UNL     1      34.736 -17.616 -23.290  0.00  0.00    +0.407 N 
ATOM      4  N   UNL     1      34.519 -15.953 -21.792  0.00  0.00    -0.326 N 
ATOM      5  N   UNL     1      34.848 -20.806 -20.448  0.00  0.00    +0.387 N 
ATOM      6  C   UNL     1      34.793 -18.291 -21.985  0.00  0.00    +0.027 C 
ATOM      7  C   UNL     1      34.062 -16.337 -23.086  0.00  0.00    +0.018 C 
ATOM      8  C   UNL     1      36.039 -19.189 -21.907  0.00  0.00    -0.033 C 
ATOM      9  C   UNL     1      33.521 -19.081 -21.621  0.00  0.00    -0.033 C 
ATOM     10  C   UNL     1      34.229 -18.310 -24.463  0.00  0.00    -0.074 C 
ATOM     11  C   UNL     1      34.935 -17.063 -21.059  0.00  0.00    +0.203 C 
ATOM     12  C   UNL     1      34.419 -15.387 -24.218  0.00  0.00    -0.002 C 
ATOM     13  C   UNL     1      36.089 -20.045 -20.635  0.00  0.00    -0.079 C 
ATOM     14  C   UNL     1      33.692 -19.910 -20.342  0.00  0.00    -0.079 C 
ATOM     15  C   UNL     1      34.519 -17.446 -25.699  0.00  0.00    -0.023 C 
ATOM     16  C   UNL     1      33.997 -16.010 -25.553  0.00  0.00    -0.003 C 
ATOM     17  H   UNL     1      35.714 -17.538 -23.572  0.00  0.00    -0.076 HD
ATOM     18  H   UNL     1      34.537 -15.027 -21.460  0.00  0.00    +0.147 HD
ATOM     19  H   UNL     1      34.715 -21.400 -21.266  0.00  0.00    -0.080 HD
ENDBRANCH   1   5
BRANCH   1  20
ATOM     20  C   UNL     1      33.565 -22.066 -18.737  0.00  0.00    -0.001 C 
BRANCH  20  21
ATOM     21  C   UNL     1      33.509 -23.457 -18.107  0.00  0.00    +0.093 C 
BRANCH  21  23
ATOM     22 CL   UNL     1      38.097 -21.323 -16.390  0.00  0.00    -0.082 Cl
ATOM     23  N   UNL     1      33.363 -23.361 -16.645  0.00  0.00    -0.287 N 
ATOM     24  C   UNL     1      34.597 -23.272 -15.950  0.00  0.00    +0.048 C 
ATOM     25  C   UNL     1      32.048 -23.223 -16.122  0.00  0.00    +0.048 C 
ATOM     26  C   UNL     1      34.838 -24.007 -14.777  0.00  0.00    -0.008 C 
ATOM     27  C   UNL     1      31.688 -23.517 -14.784  0.00  0.00    -0.008 C 
ATOM     28  C   UNL     1      33.779 -24.914 -14.222  0.00  0.00    +0.032 C 
ATOM     29  C   UNL     1      32.603 -24.090 -13.722  0.00  0.00    +0.032 C 
ATOM     30  C   UNL     1      35.634 -22.442 -16.428  0.00  0.00    +0.026 C 
ATOM     31  C   UNL     1      31.017 -22.715 -16.957  0.00  0.00    +0.015 C 
ATOM     32  C   UNL     1      36.076 -23.907 -14.118  0.00  0.00    -0.002 C 
ATOM     33  C   UNL     1      30.364 -23.268 -14.342  0.00  0.00    -0.003 C 
ATOM     34  C   UNL     1      36.861 -22.346 -15.768  0.00  0.00    +0.059 C 
ATOM     35  C   UNL     1      29.712 -22.496 -16.507  0.00  0.00    +0.001 C 
ATOM     36  C   UNL     1      37.082 -23.081 -14.611  0.00  0.00    +0.011 C 
ATOM     37  C   UNL     1      29.386 -22.769 -15.193  0.00  0.00    -0.000 C 
ENDBRANCH  21  23
ENDBRANCH  20  21
ENDBRANCH   1  20
TORSDOF 4
ENDMDL
MODEL 5
REMARK VINA RESULT:     -11.2      1.974      4.263
REMARK  Name = 4257
REMARK  4 active torsions:
REMARK  status: ('A' for Active; 'I' for Inactive)
REMARK    1  A    between atoms: C_1  and  N_5
REMARK    2  A    between atoms: C_1  and  C_20
REMARK    3  A    between atoms: C_20  and  C_21
REMARK    4  A    between atoms: C_21  and  N_23
REMARK                            x       y       z     vdW  Elec       q    Type
REMARK                         _______ _______ _______ _____ _____    ______ ____
ROOT
ATOM      1  C   UNL     1      36.454 -21.804 -18.908  0.00  0.00    -0.076 C 
ENDROOT
BRANCH   1   5
ATOM      2  O   UNL     1      35.220 -20.403 -23.172  0.00  0.00    -0.277 OA
ATOM      3  N   UNL     1      34.544 -17.268 -21.805  0.00  0.00    +0.407 N 
ATOM      4  N   UNL     1      35.071 -18.161 -23.801  0.00  0.00    -0.326 N 
ATOM      5  N   UNL     1      35.972 -20.527 -19.435  0.00  0.00    +0.387 N 
ATOM      6  C   UNL     1      35.081 -18.598 -21.480  0.00  0.00    +0.027 C 
ATOM      7  C   UNL     1      35.055 -16.907 -23.124  0.00  0.00    +0.018 C 
ATOM      8  C   UNL     1      34.101 -19.359 -20.573  0.00  0.00    -0.033 C 
ATOM      9  C   UNL     1      36.496 -18.581 -20.869  0.00  0.00    -0.033 C 
ATOM     10  C   UNL     1      34.665 -16.169 -20.862  0.00  0.00    -0.074 C 
ATOM     11  C   UNL     1      35.126 -19.218 -22.894  0.00  0.00    +0.203 C 
ATOM     12  C   UNL     1      34.165 -15.839 -23.739  0.00  0.00    -0.002 C 
ATOM     13  C   UNL     1      34.657 -20.695 -20.066  0.00  0.00    -0.079 C 
ATOM     14  C   UNL     1      36.942 -19.965 -20.383  0.00  0.00    -0.079 C 
ATOM     15  C   UNL     1      33.809 -14.999 -21.371  0.00  0.00    -0.023 C 
ATOM     16  C   UNL     1      34.136 -14.614 -22.820  0.00  0.00    -0.003 C 
ATOM     17  H   UNL     1      33.533 -17.393 -21.764  0.00  0.00    -0.076 HD
ATOM     18  H   UNL     1      35.047 -18.266 -24.779  0.00  0.00    +0.147 HD
ATOM     19  H   UNL     1      35.870 -19.871 -18.661  0.00  0.00    -0.080 HD
ENDBRANCH   1   5
BRANCH   1  20
ATOM     20  C   UNL     1      35.941 -22.067 -17.488  0.00  0.00    -0.001 C 
BRANCH  20  21
ATOM     21  C   UNL     1      37.031 -22.126 -16.419  0.00  0.00    +0.093 C 
BRANCH  21  23
ATOM     22 CL   UNL     1      31.894 -23.361 -17.221  0.00  0.00    -0.082 Cl
ATOM     23  N   UNL     1      36.729 -23.169 -15.425  0.00  0.00    -0.287 N 
ATOM     24  C   UNL     1      35.345 -23.305 -15.140  0.00  0.00    +0.048 C 
ATOM     25  C   UNL     1      37.802 -23.994 -14.989  0.00  0.00    +0.048 C 
ATOM     26  C   UNL     1      34.875 -23.459 -13.825  0.00  0.00    -0.008 C 
ATOM     27  C   UNL     1      37.792 -24.746 -13.789  0.00  0.00    -0.008 C 
ATOM     28  C   UNL     1      35.840 -23.486 -12.675  0.00  0.00    +0.032 C 
ATOM     29  C   UNL     1      36.694 -24.741 -12.746  0.00  0.00    +0.032 C 
ATOM     30  C   UNL     1      34.390 -23.279 -16.179  0.00  0.00    +0.026 C 
ATOM     31  C   UNL     1      38.952 -24.132 -15.812  0.00  0.00    +0.015 C 
ATOM     32  C   UNL     1      33.497 -23.579 -13.573  0.00  0.00    -0.002 C 
ATOM     33  C   UNL     1      38.881 -25.601 -13.487  0.00  0.00    -0.003 C 
ATOM     34  C   UNL     1      33.023 -23.401 -15.922  0.00  0.00    +0.059 C 
ATOM     35  C   UNL     1      40.026 -24.965 -15.486  0.00  0.00    +0.001 C 
ATOM     36  C   UNL     1      32.576 -23.550 -14.616  0.00  0.00    +0.011 C 
ATOM     37  C   UNL     1      39.988 -25.706 -14.320  0.00  0.00    -0.000 C 
ENDBRANCH  21  23
ENDBRANCH  20  21
ENDBRANCH   1  20
TORSDOF 4
ENDMDL
MODEL 6
REMARK VINA RESULT:     -11.0      7.724     11.795
REMARK  Name = 4257
REMARK  4 active torsions:
REMARK  status: ('A' for Active; 'I' for Inactive)
REMARK    1  A    between atoms: C_1  and  N_5
REMARK    2  A    between atoms: C_1  and  C_20
REMARK    3  A    between atoms: C_20  and  C_21
REMARK    4  A    between atoms: C_21  and  N_23
REMARK                            x       y       z     vdW  Elec       q    Type
REMARK                         _______ _______ _______ _____ _____    ______ ____
ROOT
ATOM      1  C   UNL     1      34.673 -10.994 -24.271  0.00  0.00    -0.076 C 
ENDROOT
BRANCH   1   5
ATOM      2  O   UNL     1      33.407  -7.698 -21.238  0.00  0.00    -0.277 OA
ATOM      3  N   UNL     1      32.433  -5.750 -23.960  0.00  0.00    +0.407 N 
ATOM      4  N   UNL     1      31.966  -5.941 -21.768  0.00  0.00    -0.326 N 
ATOM      5  N   UNL     1      34.090  -9.662 -24.435  0.00  0.00    +0.387 N 
ATOM      6  C   UNL     1      32.943  -7.079 -23.592  0.00  0.00    +0.027 C 
ATOM      7  C   UNL     1      31.430  -5.382 -22.965  0.00  0.00    +0.018 C 
ATOM      8  C   UNL     1      34.404  -7.231 -24.045  0.00  0.00    -0.033 C 
ATOM      9  C   UNL     1      32.085  -8.254 -24.100  0.00  0.00    -0.033 C 
ATOM     10  C   UNL     1      31.973  -5.480 -25.312  0.00  0.00    -0.074 C 
ATOM     11  C   UNL     1      32.845  -6.983 -22.054  0.00  0.00    +0.203 C 
ATOM     12  C   UNL     1      31.247  -3.873 -22.961  0.00  0.00    -0.002 C 
ATOM     13  C   UNL     1      34.961  -8.644 -23.834  0.00  0.00    -0.079 C 
ATOM     14  C   UNL     1      32.745  -9.614 -23.850  0.00  0.00    -0.079 C 
ATOM     15  C   UNL     1      31.735  -3.969 -25.450  0.00  0.00    -0.023 C 
ATOM     16  C   UNL     1      30.813  -3.413 -24.357  0.00  0.00    -0.003 C 
ATOM     17  H   UNL     1      33.263  -5.158 -23.961  0.00  0.00    -0.076 HD
ATOM     18  H   UNL     1      31.743  -5.631 -20.861  0.00  0.00    +0.147 HD
ATOM     19  H   UNL     1      34.009  -9.460 -25.431  0.00  0.00    -0.080 HD
ENDBRANCH   1   5
BRANCH   1  20
ATOM     20  C   UNL     1      33.601 -12.089 -24.262  0.00  0.00    -0.001 C 
BRANCH  20  21
ATOM     21  C   UNL     1      34.113 -13.483 -24.626  0.00  0.00    +0.093 C 
BRANCH  21  23
ATOM     22 CL   UNL     1      30.165 -11.281 -21.777  0.00  0.00    -0.082 Cl
ATOM     23  N   UNL     1      33.853 -14.434 -23.533  0.00  0.00    -0.287 N 
ATOM     24  C   UNL     1      33.198 -13.857 -22.414  0.00  0.00    +0.048 C 
ATOM     25  C   UNL     1      34.143 -15.805 -23.770  0.00  0.00    +0.048 C 
ATOM     26  C   UNL     1      33.596 -14.143 -21.098  0.00  0.00    -0.008 C 
ATOM     27  C   UNL     1      34.340 -16.766 -22.749  0.00  0.00    -0.008 C 
ATOM     28  C   UNL     1      34.738 -15.082 -20.840  0.00  0.00    +0.032 C 
ATOM     29  C   UNL     1      34.353 -16.492 -21.260  0.00  0.00    +0.032 C 
ATOM     30  C   UNL     1      32.123 -12.960 -22.594  0.00  0.00    +0.026 C 
ATOM     31  C   UNL     1      34.198 -16.284 -25.107  0.00  0.00    +0.015 C 
ATOM     32  C   UNL     1      32.935 -13.545 -20.010  0.00  0.00    -0.002 C 
ATOM     33  C   UNL     1      34.543 -18.127 -23.094  0.00  0.00    -0.003 C 
ATOM     34  C   UNL     1      31.470 -12.371 -21.509  0.00  0.00    +0.059 C 
ATOM     35  C   UNL     1      34.421 -17.626 -25.427  0.00  0.00    +0.001 C 
ATOM     36  C   UNL     1      31.877 -12.664 -20.215  0.00  0.00    +0.011 C 
ATOM     37  C   UNL     1      34.590 -18.552 -24.416  0.00  0.00    -0.000 C 
ENDBRANCH  21  23
ENDBRANCH  20  21
ENDBRANCH   1  20
TORSDOF 4
ENDMDL
MODEL 7
REMARK VINA RESULT:     -11.0      3.855     10.934
REMARK  Name = 4257
REMARK  4 active torsions:
REMARK  status: ('A' for Active; 'I' for Inactive)
REMARK    1  A    between atoms: C_1  and  N_5
REMARK    2  A    between atoms: C_1  and  C_20
REMARK    3  A    between atoms: C_20  and  C_21
REMARK    4  A    between atoms: C_21  and  N_23
REMARK                            x       y       z     vdW  Elec       q    Type
REMARK                         _______ _______ _______ _____ _____    ______ ____
ROOT
ATOM      1  C   UNL     1      34.960 -16.046 -23.547  0.00  0.00    -0.076 C 
ENDROOT
BRANCH   1   5
ATOM      2  O   UNL     1      37.527 -18.941 -20.959  0.00  0.00    -0.277 OA
ATOM      3  N   UNL     1      34.558 -20.461 -19.947  0.00  0.00    +0.407 N 
ATOM      4  N   UNL     1      36.739 -20.976 -20.132  0.00  0.00    -0.326 N 
ATOM      5  N   UNL     1      34.617 -17.158 -22.661  0.00  0.00    +0.387 N 
ATOM      6  C   UNL     1      35.101 -19.431 -20.846  0.00  0.00    +0.027 C 
ATOM      7  C   UNL     1      35.466 -21.602 -19.999  0.00  0.00    +0.018 C 
ATOM      8  C   UNL     1      34.720 -18.030 -20.339  0.00  0.00    -0.033 C 
ATOM      9  C   UNL     1      34.709 -19.607 -22.325  0.00  0.00    -0.033 C 
ATOM     10  C   UNL     1      33.168 -20.874 -20.047  0.00  0.00    -0.074 C 
ATOM     11  C   UNL     1      36.612 -19.695 -20.666  0.00  0.00    +0.203 C 
ATOM     12  C   UNL     1      35.281 -22.457 -18.756  0.00  0.00    -0.002 C 
ATOM     13  C   UNL     1      35.119 -16.908 -21.305  0.00  0.00    -0.079 C 
ATOM     14  C   UNL     1      35.145 -18.420 -23.193  0.00  0.00    -0.079 C 
ATOM     15  C   UNL     1      32.840 -21.766 -18.840  0.00  0.00    -0.023 C 
ATOM     16  C   UNL     1      33.825 -22.931 -18.681  0.00  0.00    -0.003 C 
ATOM     17  H   UNL     1      34.513 -19.998 -19.039  0.00  0.00    -0.076 HD
ATOM     18  H   UNL     1      37.594 -21.393 -19.881  0.00  0.00    +0.147 HD
ATOM     19  H   UNL     1      33.601 -17.237 -22.613  0.00  0.00    -0.080 HD
ENDBRANCH   1   5
BRANCH   1  20
ATOM     20  C   UNL     1      34.935 -14.701 -22.814  0.00  0.00    -0.001 C 
BRANCH  20  21
ATOM     21  C   UNL     1      33.558 -14.283 -22.300  0.00  0.00    +0.093 C 
BRANCH  21  23
ATOM     22 CL   UNL     1      32.290 -15.742 -27.281  0.00  0.00    -0.082 Cl
ATOM     23  N   UNL     1      33.111 -13.045 -22.958  0.00  0.00    -0.287 N 
ATOM     24  C   UNL     1      33.177 -13.093 -24.375  0.00  0.00    +0.048 C 
ATOM     25  C   UNL     1      32.544 -12.030 -22.140  0.00  0.00    +0.048 C 
ATOM     26  C   UNL     1      33.673 -12.016 -25.128  0.00  0.00    -0.008 C 
ATOM     27  C   UNL     1      32.440 -10.669 -22.515  0.00  0.00    -0.008 C 
ATOM     28  C   UNL     1      34.148 -10.769 -24.442  0.00  0.00    +0.032 C 
ATOM     29  C   UNL     1      32.972 -10.055 -23.794  0.00  0.00    +0.032 C 
ATOM     30  C   UNL     1      32.753 -14.243 -25.076  0.00  0.00    +0.026 C 
ATOM     31  C   UNL     1      31.994 -12.381 -20.878  0.00  0.00    +0.015 C 
ATOM     32  C   UNL     1      33.737 -12.100 -26.530  0.00  0.00    -0.002 C 
ATOM     33  C   UNL     1      31.783  -9.751 -21.657  0.00  0.00    -0.003 C 
ATOM     34  C   UNL     1      32.817 -14.319 -26.469  0.00  0.00    +0.059 C 
ATOM     35  C   UNL     1      31.369 -11.457 -20.036  0.00  0.00    +0.001 C 
ATOM     36  C   UNL     1      33.312 -13.245 -27.197  0.00  0.00    +0.011 C 
ATOM     37  C   UNL     1      31.258 -10.137 -20.430  0.00  0.00    -0.000 C 
ENDBRANCH  21  23
ENDBRANCH  20  21
ENDBRANCH   1  20
TORSDOF 4
ENDMDL
MODEL 8
REMARK VINA RESULT:     -10.8      2.047      3.858
REMARK  Name = 4257
REMARK  4 active torsions:
REMARK  status: ('A' for Active; 'I' for Inactive)
REMARK    1  A    between atoms: C_1  and  N_5
REMARK    2  A    between atoms: C_1  and  C_20
REMARK    3  A    between atoms: C_20  and  C_21
REMARK    4  A    between atoms: C_21  and  N_23
REMARK                            x       y       z     vdW  Elec       q    Type
REMARK                         _______ _______ _______ _____ _____    ______ ____
ROOT
ATOM      1  C   UNL     1      34.859 -22.129 -19.265  0.00  0.00    -0.076 C 
ENDROOT
BRANCH   1   5
ATOM      2  O   UNL     1      34.679 -20.042 -23.422  0.00  0.00    -0.277 OA
ATOM      3  N   UNL     1      34.280 -17.014 -21.739  0.00  0.00    +0.407 N 
ATOM      4  N   UNL     1      35.014 -17.753 -23.733  0.00  0.00    -0.326 N 
ATOM      5  N   UNL     1      34.697 -20.732 -19.671  0.00  0.00    +0.387 N 
ATOM      6  C   UNL     1      34.525 -18.449 -21.529  0.00  0.00    +0.027 C 
ATOM      7  C   UNL     1      35.078 -16.604 -22.891  0.00  0.00    +0.018 C 
ATOM      8  C   UNL     1      33.283 -19.115 -20.913  0.00  0.00    -0.033 C 
ATOM      9  C   UNL     1      35.786 -18.766 -20.702  0.00  0.00    -0.033 C 
ATOM     10  C   UNL     1      34.402 -16.073 -20.638  0.00  0.00    -0.074 C 
ATOM     11  C   UNL     1      34.729 -18.899 -22.992  0.00  0.00    +0.203 C 
ATOM     12  C   UNL     1      34.502 -15.326 -23.479  0.00  0.00    -0.002 C 
ATOM     13  C   UNL     1      33.512 -20.580 -20.523  0.00  0.00    -0.079 C 
ATOM     14  C   UNL     1      35.903 -20.255 -20.358  0.00  0.00    -0.079 C 
ATOM     15  C   UNL     1      33.857 -14.713 -21.103  0.00  0.00    -0.023 C 
ATOM     16  C   UNL     1      34.504 -14.231 -22.407  0.00  0.00    -0.003 C 
ATOM     17  H   UNL     1      33.272 -16.953 -21.880  0.00  0.00    -0.076 HD
ATOM     18  H   UNL     1      35.155 -17.739 -24.706  0.00  0.00    +0.147 HD
ATOM     19  H   UNL     1      34.563 -20.162 -18.836  0.00  0.00    -0.080 HD
ENDBRANCH   1   5
BRANCH   1  20
ATOM     20  C   UNL     1      34.441 -22.353 -17.808  0.00  0.00    -0.001 C 
BRANCH  20  21
ATOM     21  C   UNL     1      33.408 -23.461 -17.606  0.00  0.00    +0.093 C 
BRANCH  21  23
ATOM     22 CL   UNL     1      28.170 -24.487 -17.364  0.00  0.00    -0.082 Cl
ATOM     23  N   UNL     1      33.122 -23.651 -16.175  0.00  0.00    -0.287 N 
ATOM     24  C   UNL     1      31.756 -23.466 -15.835  0.00  0.00    +0.048 C 
ATOM     25  C   UNL     1      34.177 -24.125 -15.348  0.00  0.00    +0.048 C 
ATOM     26  C   UNL     1      31.372 -22.743 -14.692  0.00  0.00    -0.008 C 
ATOM     27  C   UNL     1      34.211 -23.983 -13.940  0.00  0.00    -0.008 C 
ATOM     28  C   UNL     1      32.412 -22.145 -13.791  0.00  0.00    +0.032 C 
ATOM     29  C   UNL     1      33.190 -23.249 -13.095  0.00  0.00    +0.032 C 
ATOM     30  C   UNL     1      30.733 -23.998 -16.648  0.00  0.00    +0.026 C 
ATOM     31  C   UNL     1      35.257 -24.834 -15.938  0.00  0.00    +0.015 C 
ATOM     32  C   UNL     1      30.010 -22.567 -14.389  0.00  0.00    -0.002 C 
ATOM     33  C   UNL     1      35.271 -24.565 -13.200  0.00  0.00    -0.003 C 
ATOM     34  C   UNL     1      29.383 -23.821 -16.340  0.00  0.00    +0.059 C 
ATOM     35  C   UNL     1      36.306 -25.382 -15.194  0.00  0.00    +0.001 C 
ATOM     36  C   UNL     1      29.021 -23.103 -15.209  0.00  0.00    +0.011 C 
ATOM     37  C   UNL     1      36.310 -25.251 -13.818  0.00  0.00    -0.000 C 
ENDBRANCH  21  23
ENDBRANCH  20  21
ENDBRANCH   1  20
TORSDOF 4
ENDMDL
MODEL 9
REMARK VINA RESULT:     -10.4      6.771     12.911
REMARK  Name = 4257
REMARK  4 active torsions:
REMARK  status: ('A' for Active; 'I' for Inactive)
REMARK    1  A    between atoms: C_1  and  N_5
REMARK    2  A    between atoms: C_1  and  C_20
REMARK    3  A    between atoms: C_20  and  C_21
REMARK    4  A    between atoms: C_21  and  N_23
REMARK                            x       y       z     vdW  Elec       q    Type
REMARK                         _______ _______ _______ _____ _____    ______ ____
ROOT
ATOM      1  C   UNL     1      33.701 -11.480 -24.864  0.00  0.00    -0.076 C 
ENDROOT
BRANCH   1   5
ATOM      2  O   UNL     1      31.724 -14.481 -21.907  0.00  0.00    -0.277 OA
ATOM      3  N   UNL     1      34.304 -16.707 -22.645  0.00  0.00    +0.407 N 
ATOM      4  N   UNL     1      32.843 -16.309 -20.982  0.00  0.00    -0.326 N 
ATOM      5  N   UNL     1      34.057 -12.833 -24.433  0.00  0.00    +0.387 N 
ATOM      6  C   UNL     1      33.828 -15.339 -22.897  0.00  0.00    +0.027 C 
ATOM      7  C   UNL     1      34.068 -16.993 -21.233  0.00  0.00    +0.018 C 
ATOM      8  C   UNL     1      33.339 -15.207 -24.349  0.00  0.00    -0.033 C 
ATOM      9  C   UNL     1      34.849 -14.236 -22.558  0.00  0.00    -0.033 C 
ATOM     10  C   UNL     1      35.634 -17.118 -23.061  0.00  0.00    -0.074 C 
ATOM     11  C   UNL     1      32.645 -15.284 -21.905  0.00  0.00    +0.203 C 
ATOM     12  C   UNL     1      34.037 -18.498 -21.016  0.00  0.00    -0.002 C 
ATOM     13  C   UNL     1      32.968 -13.770 -24.735  0.00  0.00    -0.079 C 
ATOM     14  C   UNL     1      34.381 -12.846 -23.002  0.00  0.00    -0.079 C 
ATOM     15  C   UNL     1      35.748 -18.640 -22.885  0.00  0.00    -0.023 C 
ATOM     16  C   UNL     1      35.370 -19.101 -21.471  0.00  0.00    -0.003 C 
ATOM     17  H   UNL     1      33.760 -17.282 -23.288  0.00  0.00    -0.076 HD
ATOM     18  H   UNL     1      32.220 -16.530 -20.253  0.00  0.00    +0.147 HD
ATOM     19  H   UNL     1      34.885 -13.133 -24.947  0.00  0.00    -0.080 HD
ENDBRANCH   1   5
BRANCH   1  20
ATOM     20  C   UNL     1      33.518 -10.531 -23.676  0.00  0.00    -0.001 C 
BRANCH  20  21
ATOM     21  C   UNL     1      32.527  -9.393 -23.917  0.00  0.00    +0.093 C 
BRANCH  21  23
ATOM     22 CL   UNL     1      30.268  -4.752 -25.300  0.00  0.00    -0.082 Cl
ATOM     23  N   UNL     1      32.140  -8.762 -22.644  0.00  0.00    -0.287 N 
ATOM     24  C   UNL     1      31.962  -7.356 -22.733  0.00  0.00    +0.048 C 
ATOM     25  C   UNL     1      31.853  -9.616 -21.545  0.00  0.00    +0.048 C 
ATOM     26  C   UNL     1      32.461  -6.486 -21.749  0.00  0.00    -0.008 C 
ATOM     27  C   UNL     1      31.865  -9.203 -20.191  0.00  0.00    -0.008 C 
ATOM     28  C   UNL     1      33.201  -7.031 -20.562  0.00  0.00    +0.032 C 
ATOM     29  C   UNL     1      32.252  -7.829 -19.683  0.00  0.00    +0.032 C 
ATOM     30  C   UNL     1      31.282  -6.785 -23.829  0.00  0.00    +0.026 C 
ATOM     31  C   UNL     1      31.481 -10.965 -21.790  0.00  0.00    +0.015 C 
ATOM     32  C   UNL     1      32.279  -5.097 -21.871  0.00  0.00    -0.002 C 
ATOM     33  C   UNL     1      31.485 -10.115 -19.174  0.00  0.00    -0.003 C 
ATOM     34  C   UNL     1      31.103  -5.405 -23.944  0.00  0.00    +0.059 C 
ATOM     35  C   UNL     1      31.130 -11.856 -20.772  0.00  0.00    +0.001 C 
ATOM     36  C   UNL     1      31.604  -4.560 -22.963  0.00  0.00    +0.011 C 
ATOM     37  C   UNL     1      31.127 -11.427 -19.459  0.00  0.00    -0.000 C 
ENDBRANCH  21  23
ENDBRANCH  20  21
ENDBRANCH   1  20
TORSDOF 4
ENDMDL
