MODEL 1
REMARK VINA RESULT:      -6.2      0.000      0.000
REMARK  Name = 11412540
REMARK  7 active torsions:
REMARK  status: ('A' for Active; 'I' for Inactive)
REMARK    1  A    between atoms: C_1  and  N_2
REMARK    2  A    between atoms: C_1  and  C_7
REMARK    3  A    between atoms: C_1  and  C_10
REMARK    4  A    between atoms: C_7  and  O_8
REMARK    5  A    between atoms: C_10  and  C_12
REMARK    6  A    between atoms: C_12  and  C_14
REMARK    7  A    between atoms: C_14  and  O_15
REMARK                            x       y       z     vdW  Elec       q    Type
REMARK                         _______ _______ _______ _____ _____    ______ ____
ROOT
ATOM      1  C   UNK     1      30.210 -25.192 -14.903  0.00  0.00    +0.036 C 
ENDROOT
BRANCH   1   2
ATOM      2  N   UNK     1      28.877 -25.519 -14.384  0.00  0.00    +0.389 N 
ATOM      3  H   UNK     1      28.938 -26.343 -13.785  0.00  0.00    -0.088 HD
ATOM      4  H   UNK     1      28.246 -25.711 -15.163  0.00  0.00    -0.088 HD
ATOM      5  H   UNK     1      28.519 -24.731 -13.843  0.00  0.00    -0.088 HD
ENDBRANCH   1   2
BRANCH   1   7
ATOM      6  O   UNK     1      30.771 -24.137 -12.774  0.00  0.00    -0.253 OA
ATOM      7  C   UNK     1      31.083 -24.881 -13.696  0.00  0.00    +0.293 C 
BRANCH   7   8
ATOM      8  O   UNK     1      32.281 -25.518 -13.748  0.00  0.00    -0.482 OA
ATOM      9  H   UNK     1      32.631 -25.791 -14.573  0.00  0.00    +0.295 HD
ENDBRANCH   7   8
ENDBRANCH   1   7
BRANCH   1  10
ATOM     10  C   UNK     1      30.135 -24.028 -15.924  0.00  0.00    +0.002 C 
ATOM     11  C   UNK     1      31.425 -23.196 -15.986  0.00  0.00    -0.001 C 
BRANCH  10  12
ATOM     12  C   UNK     1      28.939 -23.087 -15.672  0.00  0.00    +0.108 C 
BRANCH  12  14
ATOM     13  O   UNK     1      27.669 -23.852 -17.604  0.00  0.00    -0.250 OA
ATOM     14  C   UNK     1      28.024 -22.942 -16.868  0.00  0.00    +0.314 C 
BRANCH  14  15
ATOM     15  O   UNK     1      27.595 -21.662 -17.017  0.00  0.00    -0.480 OA
ATOM     16  H   UNK     1      26.938 -21.318 -16.443  0.00  0.00    +0.295 HD
ENDBRANCH  14  15
ENDBRANCH  12  14
ENDBRANCH  10  12
ENDBRANCH   1  10
TORSDOF 7
ENDMDL
MODEL 2
REMARK VINA RESULT:      -6.1      8.556      9.813
REMARK  Name = 11412540
REMARK  7 active torsions:
REMARK  status: ('A' for Active; 'I' for Inactive)
REMARK    1  A    between atoms: C_1  and  N_2
REMARK    2  A    between atoms: C_1  and  C_7
REMARK    3  A    between atoms: C_1  and  C_10
REMARK    4  A    between atoms: C_7  and  O_8
REMARK    5  A    between atoms: C_10  and  C_12
REMARK    6  A    between atoms: C_12  and  C_14
REMARK    7  A    between atoms: C_14  and  O_15
REMARK                            x       y       z     vdW  Elec       q    Type
REMARK                         _______ _______ _______ _____ _____    ______ ____
ROOT
ATOM      1  C   UNK     1      39.245 -24.962 -14.278  0.00  0.00    +0.036 C 
ENDROOT
BRANCH   1   2
ATOM      2  N   UNK     1      38.675 -24.392 -15.504  0.00  0.00    +0.389 N 
ATOM      3  H   UNK     1      38.888 -25.002 -16.293  0.00  0.00    -0.088 HD
ATOM      4  H   UNK     1      39.078 -23.469 -15.669  0.00  0.00    -0.088 HD
ATOM      5  H   UNK     1      37.663 -24.308 -15.402  0.00  0.00    -0.088 HD
ENDBRANCH   1   2
BRANCH   1   7
ATOM      6  O   UNK     1      41.021 -26.605 -13.953  0.00  0.00    -0.253 OA
ATOM      7  C   UNK     1      40.331 -25.934 -14.712  0.00  0.00    +0.293 C 
BRANCH   7   8
ATOM      8  O   UNK     1      40.473 -25.981 -16.061  0.00  0.00    -0.482 OA
ATOM      9  H   UNK     1      41.329 -25.961 -16.443  0.00  0.00    +0.295 HD
ENDBRANCH   7   8
ENDBRANCH   1   7
BRANCH   1  10
ATOM     10  C   UNK     1      38.141 -25.619 -13.409  0.00  0.00    +0.002 C 
ATOM     11  C   UNK     1      37.409 -26.763 -14.128  0.00  0.00    -0.001 C 
BRANCH  10  12
ATOM     12  C   UNK     1      37.103 -24.603 -12.892  0.00  0.00    +0.108 C 
BRANCH  12  14
ATOM     13  O   UNK     1      38.493 -23.033 -11.653  0.00  0.00    -0.250 OA
ATOM     14  C   UNK     1      37.568 -23.833 -11.675  0.00  0.00    +0.314 C 
BRANCH  14  15
ATOM     15  O   UNK     1      36.800 -24.104 -10.588  0.00  0.00    -0.480 OA
ATOM     16  H   UNK     1      36.037 -24.642 -10.676  0.00  0.00    +0.295 HD
ENDBRANCH  14  15
ENDBRANCH  12  14
ENDBRANCH  10  12
ENDBRANCH   1  10
TORSDOF 7
ENDMDL
MODEL 3
REMARK VINA RESULT:      -6.0      7.938      9.443
REMARK  Name = 11412540
REMARK  7 active torsions:
REMARK  status: ('A' for Active; 'I' for Inactive)
REMARK    1  A    between atoms: C_1  and  N_2
REMARK    2  A    between atoms: C_1  and  C_7
REMARK    3  A    between atoms: C_1  and  C_10
REMARK    4  A    between atoms: C_7  and  O_8
REMARK    5  A    between atoms: C_10  and  C_12
REMARK    6  A    between atoms: C_12  and  C_14
REMARK    7  A    between atoms: C_14  and  O_15
REMARK                            x       y       z     vdW  Elec       q    Type
REMARK                         _______ _______ _______ _____ _____    ______ ____
ROOT
ATOM      1  C   UNK     1      37.197 -25.054 -12.542  0.00  0.00    +0.036 C 
ENDROOT
BRANCH   1   2
ATOM      2  N   UNK     1      35.733 -25.071 -12.643  0.00  0.00    +0.389 N 
ATOM      3  H   UNK     1      35.430 -24.359 -13.307  0.00  0.00    -0.088 HD
ATOM      4  H   UNK     1      35.327 -24.877 -11.727  0.00  0.00    -0.088 HD
ATOM      5  H   UNK     1      35.425 -25.990 -12.965  0.00  0.00    -0.088 HD
ENDBRANCH   1   2
BRANCH   1   7
ATOM      6  O   UNK     1      38.491 -23.168 -11.688  0.00  0.00    -0.253 OA
ATOM      7  C   UNK     1      37.553 -23.947 -11.561  0.00  0.00    +0.293 C 
BRANCH   7   8
ATOM      8  O   UNK     1      36.714 -23.911 -10.495  0.00  0.00    -0.482 OA
ATOM      9  H   UNK     1      36.839 -24.503  -9.779  0.00  0.00    +0.295 HD
ENDBRANCH   7   8
ENDBRANCH   1   7
BRANCH   1  10
ATOM     10  C   UNK     1      37.845 -24.872 -13.938  0.00  0.00    +0.002 C 
ATOM     11  C   UNK     1      36.816 -24.805 -15.077  0.00  0.00    -0.001 C 
BRANCH  10  12
ATOM     12  C   UNK     1      38.885 -25.965 -14.262  0.00  0.00    +0.108 C 
BRANCH  12  14
ATOM     13  O   UNK     1      40.922 -24.630 -14.300  0.00  0.00    -0.250 OA
ATOM     14  C   UNK     1      40.168 -25.419 -14.851  0.00  0.00    +0.314 C 
BRANCH  14  15
ATOM     15  O   UNK     1      40.419 -25.948 -16.077  0.00  0.00    -0.480 OA
ATOM     16  H   UNK     1      39.920 -26.680 -16.382  0.00  0.00    +0.295 HD
ENDBRANCH  14  15
ENDBRANCH  12  14
ENDBRANCH  10  12
ENDBRANCH   1  10
TORSDOF 7
ENDMDL
MODEL 4
REMARK VINA RESULT:      -5.9      7.067      8.259
REMARK  Name = 11412540
REMARK  7 active torsions:
REMARK  status: ('A' for Active; 'I' for Inactive)
REMARK    1  A    between atoms: C_1  and  N_2
REMARK    2  A    between atoms: C_1  and  C_7
REMARK    3  A    between atoms: C_1  and  C_10
REMARK    4  A    between atoms: C_7  and  O_8
REMARK    5  A    between atoms: C_10  and  C_12
REMARK    6  A    between atoms: C_12  and  C_14
REMARK    7  A    between atoms: C_14  and  O_15
REMARK                            x       y       z     vdW  Elec       q    Type
REMARK                         _______ _______ _______ _____ _____    ______ ____
ROOT
ATOM      1  C   UNK     1      37.779 -24.860 -13.985  0.00  0.00    +0.036 C 
ENDROOT
BRANCH   1   2
ATOM      2  N   UNK     1      38.130 -24.433 -15.344  0.00  0.00    +0.389 N 
ATOM      3  H   UNK     1      38.765 -23.637 -15.297  0.00  0.00    -0.088 HD
ATOM      4  H   UNK     1      37.283 -24.163 -15.845  0.00  0.00    -0.088 HD
ATOM      5  H   UNK     1      38.585 -25.203 -15.836  0.00  0.00    -0.088 HD
ENDBRANCH   1   2
BRANCH   1   7
ATOM      6  O   UNK     1      38.317 -27.109 -14.769  0.00  0.00    -0.253 OA
ATOM      7  C   UNK     1      37.684 -26.378 -14.015  0.00  0.00    +0.293 C 
BRANCH   7   8
ATOM      8  O   UNK     1      36.797 -26.859 -13.107  0.00  0.00    -0.482 OA
ATOM      9  H   UNK     1      36.849 -26.587 -12.212  0.00  0.00    +0.295 HD
ENDBRANCH   7   8
ENDBRANCH   1   7
BRANCH   1  10
ATOM     10  C   UNK     1      36.474 -24.172 -13.509  0.00  0.00    +0.002 C 
ATOM     11  C   UNK     1      35.933 -23.144 -14.514  0.00  0.00    -0.001 C 
BRANCH  10  12
ATOM     12  C   UNK     1      36.622 -23.498 -12.129  0.00  0.00    +0.108 C 
BRANCH  12  14
ATOM     13  O   UNK     1      36.105 -24.083  -9.823  0.00  0.00    -0.250 OA
ATOM     14  C   UNK     1      35.903 -24.232 -11.019  0.00  0.00    +0.314 C 
BRANCH  14  15
ATOM     15  O   UNK     1      34.952 -25.070 -11.509  0.00  0.00    -0.480 OA
ATOM     16  H   UNK     1      34.682 -25.000 -12.403  0.00  0.00    +0.295 HD
ENDBRANCH  14  15
ENDBRANCH  12  14
ENDBRANCH  10  12
ENDBRANCH   1  10
TORSDOF 7
ENDMDL
MODEL 5
REMARK VINA RESULT:      -5.9      7.764      9.742
REMARK  Name = 11412540
REMARK  7 active torsions:
REMARK  status: ('A' for Active; 'I' for Inactive)
REMARK    1  A    between atoms: C_1  and  N_2
REMARK    2  A    between atoms: C_1  and  C_7
REMARK    3  A    between atoms: C_1  and  C_10
REMARK    4  A    between atoms: C_7  and  O_8
REMARK    5  A    between atoms: C_10  and  C_12
REMARK    6  A    between atoms: C_12  and  C_14
REMARK    7  A    between atoms: C_14  and  O_15
REMARK                            x       y       z     vdW  Elec       q    Type
REMARK                         _______ _______ _______ _____ _____    ______ ____
ROOT
ATOM      1  C   UNK     1      37.181 -25.415 -14.316  0.00  0.00    +0.036 C 
ENDROOT
BRANCH   1   2
ATOM      2  N   UNK     1      35.930 -25.288 -13.560  0.00  0.00    +0.389 N 
ATOM      3  H   UNK     1      35.163 -25.091 -14.203  0.00  0.00    -0.088 HD
ATOM      4  H   UNK     1      36.015 -24.526 -12.887  0.00  0.00    -0.088 HD
ATOM      5  H   UNK     1      35.742 -26.160 -13.064  0.00  0.00    -0.088 HD
ENDBRANCH   1   2
BRANCH   1   7
ATOM      6  O   UNK     1      36.226 -26.937 -15.969  0.00  0.00    -0.253 OA
ATOM      7  C   UNK     1      37.077 -26.703 -15.119  0.00  0.00    +0.293 C 
BRANCH   7   8
ATOM      8  O   UNK     1      38.041 -27.599 -14.785  0.00  0.00    -0.482 OA
ATOM      9  H   UNK     1      37.991 -28.059 -13.970  0.00  0.00    +0.295 HD
ENDBRANCH   7   8
ENDBRANCH   1   7
BRANCH   1  10
ATOM     10  C   UNK     1      38.406 -25.379 -13.367  0.00  0.00    +0.002 C 
ATOM     11  C   UNK     1      38.151 -24.574 -12.083  0.00  0.00    -0.001 C 
BRANCH  10  12
ATOM     12  C   UNK     1      39.679 -24.842 -14.053  0.00  0.00    +0.108 C 
BRANCH  12  14
ATOM     13  O   UNK     1      41.197 -26.746 -14.089  0.00  0.00    -0.250 OA
ATOM     14  C   UNK     1      40.520 -25.925 -14.693  0.00  0.00    +0.314 C 
BRANCH  14  15
ATOM     15  O   UNK     1      40.407 -25.913 -16.046  0.00  0.00    -0.480 OA
ATOM     16  H   UNK     1      39.657 -26.298 -16.457  0.00  0.00    +0.295 HD
ENDBRANCH  14  15
ENDBRANCH  12  14
ENDBRANCH  10  12
ENDBRANCH   1  10
TORSDOF 7
ENDMDL
MODEL 6
REMARK VINA RESULT:      -5.7      6.805      7.717
REMARK  Name = 11412540
REMARK  7 active torsions:
REMARK  status: ('A' for Active; 'I' for Inactive)
REMARK    1  A    between atoms: C_1  and  N_2
REMARK    2  A    between atoms: C_1  and  C_7
REMARK    3  A    between atoms: C_1  and  C_10
REMARK    4  A    between atoms: C_7  and  O_8
REMARK    5  A    between atoms: C_10  and  C_12
REMARK    6  A    between atoms: C_12  and  C_14
REMARK    7  A    between atoms: C_14  and  O_15
REMARK                            x       y       z     vdW  Elec       q    Type
REMARK                         _______ _______ _______ _____ _____    ______ ____
ROOT
ATOM      1  C   UNK     1      36.901 -23.839 -12.249  0.00  0.00    +0.036 C 
ENDROOT
BRANCH   1   2
ATOM      2  N   UNK     1      38.008 -23.183 -11.543  0.00  0.00    +0.389 N 
ATOM      3  H   UNK     1      38.233 -22.304 -12.007  0.00  0.00    -0.088 HD
ATOM      4  H   UNK     1      38.827 -23.793 -11.554  0.00  0.00    -0.088 HD
ATOM      5  H   UNK     1      37.734 -22.999 -10.577  0.00  0.00    -0.088 HD
ENDBRANCH   1   2
BRANCH   1   7
ATOM      6  O   UNK     1      36.092 -24.200  -9.974  0.00  0.00    -0.253 OA
ATOM      7  C   UNK     1      35.941 -24.342 -11.181  0.00  0.00    +0.293 C 
BRANCH   7   8
ATOM      8  O   UNK     1      34.874 -24.992 -11.712  0.00  0.00    -0.482 OA
ATOM      9  H   UNK     1      35.001 -25.786 -12.194  0.00  0.00    +0.295 HD
ENDBRANCH   7   8
ENDBRANCH   1   7
BRANCH   1  10
ATOM     10  C   UNK     1      37.427 -24.961 -13.181  0.00  0.00    +0.002 C 
ATOM     11  C   UNK     1      38.950 -25.146 -13.102  0.00  0.00    -0.001 C 
BRANCH  10  12
ATOM     12  C   UNK     1      37.020 -24.754 -14.654  0.00  0.00    +0.108 C 
BRANCH  12  14
ATOM     13  O   UNK     1      36.151 -26.696 -15.840  0.00  0.00    -0.250 OA
ATOM     14  C   UNK     1      35.957 -25.721 -15.126  0.00  0.00    +0.314 C 
BRANCH  14  15
ATOM     15  O   UNK     1      34.735 -25.405 -14.625  0.00  0.00    -0.480 OA
ATOM     16  H   UNK     1      34.532 -24.514 -14.413  0.00  0.00    +0.295 HD
ENDBRANCH  14  15
ENDBRANCH  12  14
ENDBRANCH  10  12
ENDBRANCH   1  10
TORSDOF 7
ENDMDL
MODEL 7
REMARK VINA RESULT:      -5.7     14.076     15.321
REMARK  Name = 11412540
REMARK  7 active torsions:
REMARK  status: ('A' for Active; 'I' for Inactive)
REMARK    1  A    between atoms: C_1  and  N_2
REMARK    2  A    between atoms: C_1  and  C_7
REMARK    3  A    between atoms: C_1  and  C_10
REMARK    4  A    between atoms: C_7  and  O_8
REMARK    5  A    between atoms: C_10  and  C_12
REMARK    6  A    between atoms: C_12  and  C_14
REMARK    7  A    between atoms: C_14  and  O_15
REMARK                            x       y       z     vdW  Elec       q    Type
REMARK                         _______ _______ _______ _____ _____    ______ ____
ROOT
ATOM      1  C   UNK     1      40.975 -14.433 -15.882  0.00  0.00    +0.036 C 
ENDROOT
BRANCH   1   2
ATOM      2  N   UNK     1      41.164 -13.624 -14.673  0.00  0.00    +0.389 N 
ATOM      3  H   UNK     1      40.259 -13.287 -14.345  0.00  0.00    -0.088 HD
ATOM      4  H   UNK     1      41.766 -12.829 -14.887  0.00  0.00    -0.088 HD
ATOM      5  H   UNK     1      41.599 -14.195 -13.947  0.00  0.00    -0.088 HD
ENDBRANCH   1   2
BRANCH   1   7
ATOM      6  O   UNK     1      42.106 -16.540 -15.391  0.00  0.00    -0.253 OA
ATOM      7  C   UNK     1      41.069 -15.889 -15.453  0.00  0.00    +0.293 C 
BRANCH   7   8
ATOM      8  O   UNK     1      39.857 -16.417 -15.146  0.00  0.00    -0.482 OA
ATOM      9  H   UNK     1      39.075 -15.942 -15.347  0.00  0.00    +0.295 HD
ENDBRANCH   7   8
ENDBRANCH   1   7
BRANCH   1  10
ATOM     10  C   UNK     1      42.005 -14.045 -16.973  0.00  0.00    +0.002 C 
ATOM     11  C   UNK     1      42.220 -12.528 -17.088  0.00  0.00    -0.001 C 
BRANCH  10  12
ATOM     12  C   UNK     1      41.647 -14.610 -18.363  0.00  0.00    +0.108 C 
BRANCH  12  14
ATOM     13  O   UNK     1      42.278 -16.527 -19.726  0.00  0.00    -0.250 OA
ATOM     14  C   UNK     1      42.492 -15.798 -18.767  0.00  0.00    +0.314 C 
BRANCH  14  15
ATOM     15  O   UNK     1      43.567 -15.948 -17.951  0.00  0.00    -0.480 OA
ATOM     16  H   UNK     1      43.944 -15.199 -17.530  0.00  0.00    +0.295 HD
ENDBRANCH  14  15
ENDBRANCH  12  14
ENDBRANCH  10  12
ENDBRANCH   1  10
TORSDOF 7
ENDMDL
MODEL 8
REMARK VINA RESULT:      -5.6      7.211      9.489
REMARK  Name = 11412540
REMARK  7 active torsions:
REMARK  status: ('A' for Active; 'I' for Inactive)
REMARK    1  A    between atoms: C_1  and  N_2
REMARK    2  A    between atoms: C_1  and  C_7
REMARK    3  A    between atoms: C_1  and  C_10
REMARK    4  A    between atoms: C_7  and  O_8
REMARK    5  A    between atoms: C_10  and  C_12
REMARK    6  A    between atoms: C_12  and  C_14
REMARK    7  A    between atoms: C_14  and  O_15
REMARK                            x       y       z     vdW  Elec       q    Type
REMARK                         _______ _______ _______ _____ _____    ______ ____
ROOT
ATOM      1  C   UNK     1      36.905 -24.391 -14.333  0.00  0.00    +0.036 C 
ENDROOT
BRANCH   1   2
ATOM      2  N   UNK     1      35.607 -24.980 -13.984  0.00  0.00    +0.389 N 
ATOM      3  H   UNK     1      35.701 -25.993 -13.919  0.00  0.00    -0.088 HD
ATOM      4  H   UNK     1      34.924 -24.747 -14.706  0.00  0.00    -0.088 HD
ATOM      5  H   UNK     1      35.294 -24.608 -13.087  0.00  0.00    -0.088 HD
ENDBRANCH   1   2
BRANCH   1   7
ATOM      6  O   UNK     1      35.726 -23.441 -16.248  0.00  0.00    -0.253 OA
ATOM      7  C   UNK     1      36.642 -23.378 -15.437  0.00  0.00    +0.293 C 
BRANCH   7   8
ATOM      8  O   UNK     1      37.554 -22.372 -15.443  0.00  0.00    -0.482 OA
ATOM      9  H   UNK     1      37.342 -21.550 -15.839  0.00  0.00    +0.295 HD
ENDBRANCH   7   8
ENDBRANCH   1   7
BRANCH   1  10
ATOM     10  C   UNK     1      37.921 -25.490 -14.736  0.00  0.00    +0.002 C 
ATOM     11  C   UNK     1      37.346 -26.911 -14.628  0.00  0.00    -0.001 C 
BRANCH  10  12
ATOM     12  C   UNK     1      39.234 -25.415 -13.930  0.00  0.00    +0.108 C 
BRANCH  12  14
ATOM     13  O   UNK     1      41.267 -26.746 -14.095  0.00  0.00    -0.250 OA
ATOM     14  C   UNK     1      40.409 -26.060 -14.633  0.00  0.00    +0.314 C 
BRANCH  14  15
ATOM     15  O   UNK     1      40.384 -25.822 -15.970  0.00  0.00    -0.480 OA
ATOM     16  H   UNK     1      40.937 -25.160 -16.338  0.00  0.00    +0.295 HD
ENDBRANCH  14  15
ENDBRANCH  12  14
ENDBRANCH  10  12
ENDBRANCH   1  10
TORSDOF 7
ENDMDL
MODEL 9
REMARK VINA RESULT:      -5.6      7.523      8.440
REMARK  Name = 11412540
REMARK  7 active torsions:
REMARK  status: ('A' for Active; 'I' for Inactive)
REMARK    1  A    between atoms: C_1  and  N_2
REMARK    2  A    between atoms: C_1  and  C_7
REMARK    3  A    between atoms: C_1  and  C_10
REMARK    4  A    between atoms: C_7  and  O_8
REMARK    5  A    between atoms: C_10  and  C_12
REMARK    6  A    between atoms: C_12  and  C_14
REMARK    7  A    between atoms: C_14  and  O_15
REMARK                            x       y       z     vdW  Elec       q    Type
REMARK                         _______ _______ _______ _____ _____    ______ ____
ROOT
ATOM      1  C   UNK     1      34.474 -21.599 -19.891  0.00  0.00    +0.036 C 
ENDROOT
BRANCH   1   2
ATOM      2  N   UNK     1      33.264 -22.205 -19.322  0.00  0.00    +0.389 N 
ATOM      3  H   UNK     1      33.440 -23.189 -19.122  0.00  0.00    -0.088 HD
ATOM      4  H   UNK     1      32.498 -22.125 -19.991  0.00  0.00    -0.088 HD
ATOM      5  H   UNK     1      33.015 -21.721 -18.459  0.00  0.00    -0.088 HD
ENDBRANCH   1   2
BRANCH   1   7
ATOM      6  O   UNK     1      36.523 -20.928 -18.746  0.00  0.00    -0.253 OA
ATOM      7  C   UNK     1      35.542 -21.660 -18.810  0.00  0.00    +0.293 C 
BRANCH   7   8
ATOM      8  O   UNK     1      35.303 -22.642 -17.902  0.00  0.00    -0.482 OA
ATOM      9  H   UNK     1      34.558 -22.585 -17.337  0.00  0.00    +0.295 HD
ENDBRANCH   7   8
ENDBRANCH   1   7
BRANCH   1  10
ATOM     10  C   UNK     1      34.188 -20.161 -20.393  0.00  0.00    +0.002 C 
ATOM     11  C   UNK     1      32.694 -19.889 -20.626  0.00  0.00    -0.001 C 
BRANCH  10  12
ATOM     12  C   UNK     1      34.970 -19.808 -21.675  0.00  0.00    +0.108 C 
BRANCH  12  14
ATOM     13  O   UNK     1      35.694 -17.732 -20.625  0.00  0.00    -0.250 OA
ATOM     14  C   UNK     1      35.707 -18.489 -21.586  0.00  0.00    +0.314 C 
BRANCH  14  15
ATOM     15  O   UNK     1      36.439 -18.249 -22.705  0.00  0.00    -0.480 OA
ATOM     16  H   UNK     1      36.865 -17.422 -22.818  0.00  0.00    +0.295 HD
ENDBRANCH  14  15
ENDBRANCH  12  14
ENDBRANCH  10  12
ENDBRANCH   1  10
TORSDOF 7
ENDMDL
