MODEL 1
REMARK VINA RESULT:     -10.3      0.000      0.000
REMARK  Name = 124246
REMARK  5 active torsions:
REMARK  status: ('A' for Active; 'I' for Inactive)
REMARK    1  A    between atoms: C_3  and  N_16
REMARK    2  A    between atoms: C_6  and  O_22
REMARK    3  A    between atoms: C_10  and  N_13
REMARK    4  A    between atoms: N_16  and  S_18
REMARK    5  A    between atoms: O_22  and  C_23
REMARK                            x       y       z     vdW  Elec       q    Type
REMARK                         _______ _______ _______ _____ _____    ______ ____
ROOT
ATOM      1  O   UNL     1      36.679 -21.876 -16.707  0.00  0.00    -0.449 OA
ATOM      2  O   UNL     1      33.589 -22.922 -19.167  0.00  0.00    -0.285 OA
ATOM      3  C   UNL     1      34.477 -23.423 -14.247  0.00  0.00    +0.102 C 
ATOM      4  C   UNL     1      34.489 -22.896 -16.984  0.00  0.00    +0.078 C 
ATOM      5  C   UNL     1      35.575 -22.514 -16.195  0.00  0.00    +0.150 C 
ATOM      6  C   UNL     1      33.390 -23.805 -15.037  0.00  0.00    +0.160 C 
ATOM      7  C   UNL     1      35.570 -22.777 -14.825  0.00  0.00    +0.057 C 
ATOM      8  C   UNL     1      33.393 -23.543 -16.408  0.00  0.00    +0.045 C 
ATOM      9  C   UNL     1      34.515 -22.608 -18.432  0.00  0.00    +0.215 C 
ATOM     10  C   UNL     1      35.728 -21.919 -18.930  0.00  0.00    +0.128 C 
ATOM     11  C   UNL     1      36.692 -21.613 -18.056  0.00  0.00    +0.197 C 
ENDROOT
BRANCH  10  13
ATOM     12  O   UNL     1      34.904 -19.465 -20.231  0.00  0.00    -0.265 OA
ATOM     13  N   UNL     1      35.813 -21.624 -20.256  0.00  0.00    -0.272 N 
ATOM     14  C   UNL     1      35.398 -20.428 -20.804  0.00  0.00    +0.304 C 
ATOM     15  H   UNL     1      36.193 -22.304 -20.859  0.00  0.00    +0.155 HD
ENDBRANCH  10  13
BRANCH   3  16
ATOM     16  N   UNL     1      34.482 -23.686 -12.842  0.00  0.00    -0.216 N 
ATOM     17  H   UNL     1      33.756 -23.359 -12.263  0.00  0.00    +0.173 HD
BRANCH  16  18
ATOM     18  S   UNL     1      35.792 -24.593 -12.191  0.00  0.00    +0.056 S 
ATOM     19  O   UNL     1      35.356 -25.198 -10.947  0.00  0.00    -0.154 OA
ATOM     20  O   UNL     1      36.429 -25.395 -13.217  0.00  0.00    -0.154 OA
ATOM     21  C   UNL     1      36.905 -23.273 -11.761  0.00  0.00    +0.200 C 
ENDBRANCH  16  18
ENDBRANCH   3  16
BRANCH   6  22
ATOM     22  O   UNL     1      32.315 -24.436 -14.486  0.00  0.00    -0.452 OA
BRANCH  22  23
ATOM     23  C   UNL     1      31.057 -24.051 -14.914  0.00  0.00    +0.145 C 
ATOM     24  C   UNL     1      30.650 -22.742 -14.725  0.00  0.00    +0.037 C 
ATOM     25  C   UNL     1      30.235 -24.986 -15.517  0.00  0.00    +0.037 C 
ATOM     26  C   UNL     1      29.381 -22.355 -15.156  0.00  0.00    +0.003 C 
ATOM     27  C   UNL     1      28.966 -24.600 -15.948  0.00  0.00    +0.003 C 
ATOM     28  C   UNL     1      28.539 -23.284 -15.767  0.00  0.00    +0.000 C 
ENDBRANCH  22  23
ENDBRANCH   6  22
TORSDOF 5
ENDMDL
MODEL 2
REMARK VINA RESULT:     -10.2      2.425      5.785
REMARK  Name = 124246
REMARK  5 active torsions:
REMARK  status: ('A' for Active; 'I' for Inactive)
REMARK    1  A    between atoms: C_3  and  N_16
REMARK    2  A    between atoms: C_6  and  O_22
REMARK    3  A    between atoms: C_10  and  N_13
REMARK    4  A    between atoms: N_16  and  S_18
REMARK    5  A    between atoms: O_22  and  C_23
REMARK                            x       y       z     vdW  Elec       q    Type
REMARK                         _______ _______ _______ _____ _____    ______ ____
ROOT
ATOM      1  O   UNL     1      31.944 -23.358 -13.831  0.00  0.00    -0.449 OA
ATOM      2  O   UNL     1      30.189 -23.553 -17.516  0.00  0.00    -0.285 OA
ATOM      3  C   UNL     1      34.902 -22.882 -15.908  0.00  0.00    +0.102 C 
ATOM      4  C   UNL     1      32.165 -23.282 -16.252  0.00  0.00    +0.078 C 
ATOM      5  C   UNL     1      32.707 -23.225 -14.967  0.00  0.00    +0.150 C 
ATOM      6  C   UNL     1      34.361 -22.940 -17.194  0.00  0.00    +0.160 C 
ATOM      7  C   UNL     1      34.077 -23.024 -14.793  0.00  0.00    +0.057 C 
ATOM      8  C   UNL     1      32.991 -23.140 -17.370  0.00  0.00    +0.045 C 
ATOM      9  C   UNL     1      30.714 -23.495 -16.412  0.00  0.00    +0.215 C 
ATOM     10  C   UNL     1      29.940 -23.632 -15.156  0.00  0.00    +0.128 C 
ATOM     11  C   UNL     1      30.594 -23.556 -13.993  0.00  0.00    +0.197 C 
ENDROOT
BRANCH  10  13
ATOM     12  O   UNL     1      27.932 -21.701 -15.954  0.00  0.00    -0.265 OA
ATOM     13  N   UNL     1      28.596 -23.831 -15.237  0.00  0.00    -0.272 N 
ATOM     14  C   UNL     1      27.699 -22.858 -15.627  0.00  0.00    +0.304 C 
ATOM     15  H   UNL     1      28.244 -24.721 -15.004  0.00  0.00    +0.155 HD
ENDBRANCH  10  13
BRANCH   3  16
ATOM     16  N   UNL     1      36.304 -22.678 -15.719  0.00  0.00    -0.216 N 
ATOM     17  H   UNL     1      36.722 -21.811 -15.928  0.00  0.00    +0.173 HD
BRANCH  16  18
ATOM     18  S   UNL     1      37.242 -23.988 -15.112  0.00  0.00    +0.056 S 
ATOM     19  O   UNL     1      36.556 -25.226 -15.431  0.00  0.00    -0.154 OA
ATOM     20  O   UNL     1      38.644 -23.817 -15.436  0.00  0.00    -0.154 OA
ATOM     21  C   UNL     1      37.050 -23.728 -13.362  0.00  0.00    +0.200 C 
ENDBRANCH  16  18
ENDBRANCH   3  16
BRANCH   6  22
ATOM     22  O   UNL     1      35.156 -22.802 -18.292  0.00  0.00    -0.452 OA
BRANCH  22  23
ATOM     23  C   UNL     1      34.870 -21.768 -19.166  0.00  0.00    +0.145 C 
ATOM     24  C   UNL     1      35.913 -21.070 -19.750  0.00  0.00    +0.037 C 
ATOM     25  C   UNL     1      33.550 -21.456 -19.433  0.00  0.00    +0.037 C 
ATOM     26  C   UNL     1      35.624 -20.026 -20.630  0.00  0.00    +0.003 C 
ATOM     27  C   UNL     1      33.261 -20.414 -20.313  0.00  0.00    +0.003 C 
ATOM     28  C   UNL     1      34.299 -19.698 -20.911  0.00  0.00    +0.000 C 
ENDBRANCH  22  23
ENDBRANCH   6  22
TORSDOF 5
ENDMDL
MODEL 3
REMARK VINA RESULT:      -9.8      1.917      2.251
REMARK  Name = 124246
REMARK  5 active torsions:
REMARK  status: ('A' for Active; 'I' for Inactive)
REMARK    1  A    between atoms: C_3  and  N_16
REMARK    2  A    between atoms: C_6  and  O_22
REMARK    3  A    between atoms: C_10  and  N_13
REMARK    4  A    between atoms: N_16  and  S_18
REMARK    5  A    between atoms: O_22  and  C_23
REMARK                            x       y       z     vdW  Elec       q    Type
REMARK                         _______ _______ _______ _____ _____    ______ ____
ROOT
ATOM      1  O   UNL     1      36.966 -20.977 -18.619  0.00  0.00    -0.449 OA
ATOM      2  O   UNL     1      33.173 -21.816 -19.889  0.00  0.00    -0.285 OA
ATOM      3  C   UNL     1      35.878 -23.081 -15.847  0.00  0.00    +0.102 C 
ATOM      4  C   UNL     1      34.840 -22.096 -18.239  0.00  0.00    +0.078 C 
ATOM      5  C   UNL     1      36.144 -21.774 -17.859  0.00  0.00    +0.150 C 
ATOM      6  C   UNL     1      34.574 -23.402 -16.227  0.00  0.00    +0.160 C 
ATOM      7  C   UNL     1      36.665 -22.266 -16.662  0.00  0.00    +0.057 C 
ATOM      8  C   UNL     1      34.051 -22.911 -17.425  0.00  0.00    +0.045 C 
ATOM      9  C   UNL     1      34.309 -21.564 -19.509  0.00  0.00    +0.215 C 
ATOM     10  C   UNL     1      35.237 -20.711 -20.289  0.00  0.00    +0.128 C 
ATOM     11  C   UNL     1      36.460 -20.488 -19.800  0.00  0.00    +0.197 C 
ENDROOT
BRANCH  10  13
ATOM     12  O   UNL     1      34.766 -17.917 -20.897  0.00  0.00    -0.265 OA
ATOM     13  N   UNL     1      34.806 -20.189 -21.470  0.00  0.00    -0.272 N 
ATOM     14  C   UNL     1      34.605 -18.841 -21.685  0.00  0.00    +0.304 C 
ATOM     15  H   UNL     1      34.629 -20.809 -22.214  0.00  0.00    +0.155 HD
ENDBRANCH  10  13
BRANCH   3  16
ATOM     16  N   UNL     1      36.422 -23.579 -14.623  0.00  0.00    -0.216 N 
ATOM     17  H   UNL     1      36.173 -23.177 -13.758  0.00  0.00    +0.173 HD
BRANCH  16  18
ATOM     18  S   UNL     1      37.522 -24.900 -14.700  0.00  0.00    +0.056 S 
ATOM     19  O   UNL     1      36.924 -25.947 -15.507  0.00  0.00    -0.154 OA
ATOM     20  O   UNL     1      38.869 -24.438 -14.972  0.00  0.00    -0.154 OA
ATOM     21  C   UNL     1      37.466 -25.455 -13.010  0.00  0.00    +0.200 C 
ENDBRANCH  16  18
ENDBRANCH   3  16
BRANCH   6  22
ATOM     22  O   UNL     1      33.794 -24.197 -15.441  0.00  0.00    -0.452 OA
BRANCH  22  23
ATOM     23  C   UNL     1      32.499 -23.778 -15.191  0.00  0.00    +0.145 C 
ATOM     24  C   UNL     1      32.050 -23.716 -13.883  0.00  0.00    +0.037 C 
ATOM     25  C   UNL     1      31.683 -23.435 -16.254  0.00  0.00    +0.037 C 
ATOM     26  C   UNL     1      30.744 -23.295 -13.632  0.00  0.00    +0.003 C 
ATOM     27  C   UNL     1      30.378 -23.015 -16.003  0.00  0.00    +0.003 C 
ATOM     28  C   UNL     1      29.908 -22.945 -14.691  0.00  0.00    +0.000 C 
ENDBRANCH  22  23
ENDBRANCH   6  22
TORSDOF 5
ENDMDL
MODEL 4
REMARK VINA RESULT:      -9.7      2.167      5.020
REMARK  Name = 124246
REMARK  5 active torsions:
REMARK  status: ('A' for Active; 'I' for Inactive)
REMARK    1  A    between atoms: C_3  and  N_16
REMARK    2  A    between atoms: C_6  and  O_22
REMARK    3  A    between atoms: C_10  and  N_13
REMARK    4  A    between atoms: N_16  and  S_18
REMARK    5  A    between atoms: O_22  and  C_23
REMARK                            x       y       z     vdW  Elec       q    Type
REMARK                         _______ _______ _______ _____ _____    ______ ____
ROOT
ATOM      1  O   UNL     1      32.978 -22.503 -18.867  0.00  0.00    -0.449 OA
ATOM      2  O   UNL     1      36.889 -21.576 -18.133  0.00  0.00    -0.285 OA
ATOM      3  C   UNL     1      33.259 -23.815 -15.477  0.00  0.00    +0.102 C 
ATOM      4  C   UNL     1      34.878 -22.533 -17.349  0.00  0.00    +0.078 C 
ATOM      5  C   UNL     1      33.548 -22.823 -17.659  0.00  0.00    +0.150 C 
ATOM      6  C   UNL     1      34.588 -23.525 -15.168  0.00  0.00    +0.160 C 
ATOM      7  C   UNL     1      32.736 -23.465 -16.723  0.00  0.00    +0.057 C 
ATOM      8  C   UNL     1      35.402 -22.882 -16.103  0.00  0.00    +0.045 C 
ATOM      9  C   UNL     1      35.718 -21.853 -18.354  0.00  0.00    +0.215 C 
ATOM     10  C   UNL     1      35.054 -21.532 -19.639  0.00  0.00    +0.128 C 
ATOM     11  C   UNL     1      33.771 -21.871 -19.795  0.00  0.00    +0.197 C 
ENDROOT
BRANCH  10  13
ATOM     12  O   UNL     1      34.726 -18.810 -20.579  0.00  0.00    -0.265 OA
ATOM     13  N   UNL     1      35.776 -20.905 -20.608  0.00  0.00    -0.272 N 
ATOM     14  C   UNL     1      35.560 -19.601 -21.002  0.00  0.00    +0.304 C 
ATOM     15  H   UNL     1      36.495 -21.412 -21.051  0.00  0.00    +0.155 HD
ENDBRANCH  10  13
BRANCH   3  16
ATOM     16  N   UNL     1      32.418 -24.473 -14.527  0.00  0.00    -0.216 N 
ATOM     17  H   UNL     1      32.657 -25.358 -14.167  0.00  0.00    +0.173 HD
BRANCH  16  18
ATOM     18  S   UNL     1      30.977 -23.675 -14.026  0.00  0.00    +0.056 S 
ATOM     19  O   UNL     1      30.785 -23.924 -12.610  0.00  0.00    -0.154 OA
ATOM     20  O   UNL     1      30.922 -22.326 -14.552  0.00  0.00    -0.154 OA
ATOM     21  C   UNL     1      29.763 -24.648 -14.891  0.00  0.00    +0.200 C 
ENDBRANCH  16  18
ENDBRANCH   3  16
BRANCH   6  22
ATOM     22  O   UNL     1      35.112 -23.862 -13.955  0.00  0.00    -0.452 OA
BRANCH  22  23
ATOM     23  C   UNL     1      36.302 -24.567 -13.944  0.00  0.00    +0.145 C 
ATOM     24  C   UNL     1      37.354 -24.105 -13.172  0.00  0.00    +0.037 C 
ATOM     25  C   UNL     1      36.412 -25.716 -14.706  0.00  0.00    +0.037 C 
ATOM     26  C   UNL     1      38.554 -24.816 -13.162  0.00  0.00    +0.003 C 
ATOM     27  C   UNL     1      37.612 -26.427 -14.696  0.00  0.00    +0.003 C 
ATOM     28  C   UNL     1      38.683 -25.977 -13.923  0.00  0.00    +0.000 C 
ENDBRANCH  22  23
ENDBRANCH   6  22
TORSDOF 5
ENDMDL
MODEL 5
REMARK VINA RESULT:      -9.7      2.288      5.602
REMARK  Name = 124246
REMARK  5 active torsions:
REMARK  status: ('A' for Active; 'I' for Inactive)
REMARK    1  A    between atoms: C_3  and  N_16
REMARK    2  A    between atoms: C_6  and  O_22
REMARK    3  A    between atoms: C_10  and  N_13
REMARK    4  A    between atoms: N_16  and  S_18
REMARK    5  A    between atoms: O_22  and  C_23
REMARK                            x       y       z     vdW  Elec       q    Type
REMARK                         _______ _______ _______ _____ _____    ______ ____
ROOT
ATOM      1  O   UNL     1      31.568 -24.697 -13.298  0.00  0.00    -0.449 OA
ATOM      2  O   UNL     1      31.018 -23.046 -16.995  0.00  0.00    -0.285 OA
ATOM      3  C   UNL     1      35.024 -23.819 -14.062  0.00  0.00    +0.102 C 
ATOM      4  C   UNL     1      32.517 -23.631 -15.267  0.00  0.00    +0.078 C 
ATOM      5  C   UNL     1      32.642 -24.206 -14.001  0.00  0.00    +0.150 C 
ATOM      6  C   UNL     1      34.899 -23.244 -15.327  0.00  0.00    +0.160 C 
ATOM      7  C   UNL     1      33.896 -24.301 -13.397  0.00  0.00    +0.057 C 
ATOM      8  C   UNL     1      33.645 -23.148 -15.934  0.00  0.00    +0.045 C 
ATOM      9  C   UNL     1      31.182 -23.541 -15.888  0.00  0.00    +0.215 C 
ATOM     10  C   UNL     1      30.061 -24.086 -15.087  0.00  0.00    +0.128 C 
ATOM     11  C   UNL     1      30.330 -24.608 -13.887  0.00  0.00    +0.197 C 
ENDROOT
BRANCH  10  13
ATOM     12  O   UNL     1      28.323 -21.771 -15.226  0.00  0.00    -0.265 OA
ATOM     13  N   UNL     1      28.803 -24.033 -15.605  0.00  0.00    -0.272 N 
ATOM     14  C   UNL     1      28.034 -22.888 -15.636  0.00  0.00    +0.304 C 
ATOM     15  H   UNL     1      28.421 -24.860 -15.980  0.00  0.00    +0.155 HD
ENDBRANCH  10  13
BRANCH   3  16
ATOM     16  N   UNL     1      36.303 -23.922 -13.433  0.00  0.00    -0.216 N 
ATOM     17  H   UNL     1      36.778 -23.119 -13.118  0.00  0.00    +0.173 HD
BRANCH  16  18
ATOM     18  S   UNL     1      36.989 -25.488 -13.238  0.00  0.00    +0.056 S 
ATOM     19  O   UNL     1      36.671 -25.965 -11.906  0.00  0.00    -0.154 OA
ATOM     20  O   UNL     1      36.731 -26.316 -14.399  0.00  0.00    -0.154 OA
ATOM     21  C   UNL     1      38.720 -25.075 -13.238  0.00  0.00    +0.200 C 
ENDBRANCH  16  18
ENDBRANCH   3  16
BRANCH   6  22
ATOM     22  O   UNL     1      35.992 -22.770 -15.989  0.00  0.00    -0.452 OA
BRANCH  22  23
ATOM     23  C   UNL     1      35.812 -22.315 -17.283  0.00  0.00    +0.145 C 
ATOM     24  C   UNL     1      34.657 -22.658 -17.964  0.00  0.00    +0.037 C 
ATOM     25  C   UNL     1      36.793 -21.532 -17.866  0.00  0.00    +0.037 C 
ATOM     26  C   UNL     1      34.477 -22.200 -19.270  0.00  0.00    +0.003 C 
ATOM     27  C   UNL     1      36.612 -21.075 -19.171  0.00  0.00    +0.003 C 
ATOM     28  C   UNL     1      35.454 -21.409 -19.873  0.00  0.00    +0.000 C 
ENDBRANCH  22  23
ENDBRANCH   6  22
TORSDOF 5
ENDMDL
MODEL 6
REMARK VINA RESULT:      -8.9     11.016     14.854
REMARK  Name = 124246
REMARK  5 active torsions:
REMARK  status: ('A' for Active; 'I' for Inactive)
REMARK    1  A    between atoms: C_3  and  N_16
REMARK    2  A    between atoms: C_6  and  O_22
REMARK    3  A    between atoms: C_10  and  N_13
REMARK    4  A    between atoms: N_16  and  S_18
REMARK    5  A    between atoms: O_22  and  C_23
REMARK                            x       y       z     vdW  Elec       q    Type
REMARK                         _______ _______ _______ _____ _____    ______ ____
ROOT
ATOM      1  O   UNL     1      34.215  -8.525 -24.065  0.00  0.00    -0.449 OA
ATOM      2  O   UNL     1      31.561  -9.285 -21.052  0.00  0.00    -0.285 OA
ATOM      3  C   UNL     1      33.764 -12.106 -24.578  0.00  0.00    +0.102 C 
ATOM      4  C   UNL     1      32.835 -10.122 -22.856  0.00  0.00    +0.078 C 
ATOM      5  C   UNL     1      33.742  -9.800 -23.867  0.00  0.00    +0.150 C 
ATOM      6  C   UNL     1      32.857 -12.428 -23.567  0.00  0.00    +0.160 C 
ATOM      7  C   UNL     1      34.208 -10.793 -24.730  0.00  0.00    +0.057 C 
ATOM      8  C   UNL     1      32.390 -11.437 -22.703  0.00  0.00    +0.045 C 
ATOM      9  C   UNL     1      32.356  -9.056 -21.954  0.00  0.00    +0.215 C 
ATOM     10  C   UNL     1      32.897  -7.701 -22.212  0.00  0.00    +0.128 C 
ATOM     11  C   UNL     1      33.761  -7.541 -23.219  0.00  0.00    +0.197 C 
ENDROOT
BRANCH  10  13
ATOM     12  O   UNL     1      30.613  -5.965 -22.618  0.00  0.00    -0.265 OA
ATOM     13  N   UNL     1      32.494  -6.675 -21.414  0.00  0.00    -0.272 N 
ATOM     14  C   UNL     1      31.390  -5.889 -21.675  0.00  0.00    +0.304 C 
ATOM     15  H   UNL     1      33.020  -6.483 -20.604  0.00  0.00    +0.155 HD
ENDBRANCH  10  13
BRANCH   3  16
ATOM     16  N   UNL     1      34.249 -13.115 -25.468  0.00  0.00    -0.216 N 
ATOM     17  H   UNL     1      35.074 -13.613 -25.267  0.00  0.00    +0.173 HD
BRANCH  16  18
ATOM     18  S   UNL     1      33.349 -13.436 -26.900  0.00  0.00    +0.056 S 
ATOM     19  O   UNL     1      32.222 -12.524 -26.945  0.00  0.00    -0.154 OA
ATOM     20  O   UNL     1      34.227 -13.581 -28.043  0.00  0.00    -0.154 OA
ATOM     21  C   UNL     1      32.696 -15.044 -26.506  0.00  0.00    +0.200 C 
ENDBRANCH  16  18
ENDBRANCH   3  16
BRANCH   6  22
ATOM     22  O   UNL     1      32.416 -13.708 -23.407  0.00  0.00    -0.452 OA
BRANCH  22  23
ATOM     23  C   UNL     1      33.113 -14.523 -22.533  0.00  0.00    +0.145 C 
ATOM     24  C   UNL     1      32.777 -14.518 -21.191  0.00  0.00    +0.037 C 
ATOM     25  C   UNL     1      34.132 -15.321 -23.023  0.00  0.00    +0.037 C 
ATOM     26  C   UNL     1      33.482 -15.339 -20.310  0.00  0.00    +0.003 C 
ATOM     27  C   UNL     1      34.836 -16.142 -22.143  0.00  0.00    +0.003 C 
ATOM     28  C   UNL     1      34.511 -16.151 -20.786  0.00  0.00    +0.000 C 
ENDBRANCH  22  23
ENDBRANCH   6  22
TORSDOF 5
ENDMDL
MODEL 7
REMARK VINA RESULT:      -8.5      9.264     13.250
REMARK  Name = 124246
REMARK  5 active torsions:
REMARK  status: ('A' for Active; 'I' for Inactive)
REMARK    1  A    between atoms: C_3  and  N_16
REMARK    2  A    between atoms: C_6  and  O_22
REMARK    3  A    between atoms: C_10  and  N_13
REMARK    4  A    between atoms: N_16  and  S_18
REMARK    5  A    between atoms: O_22  and  C_23
REMARK                            x       y       z     vdW  Elec       q    Type
REMARK                         _______ _______ _______ _____ _____    ______ ____
ROOT
ATOM      1  O   UNL     1      33.344 -16.024 -20.616  0.00  0.00    -0.449 OA
ATOM      2  O   UNL     1      35.490 -15.629 -24.071  0.00  0.00    -0.285 OA
ATOM      3  C   UNL     1      31.986 -12.848 -21.783  0.00  0.00    +0.102 C 
ATOM      4  C   UNL     1      33.860 -14.737 -22.614  0.00  0.00    +0.078 C 
ATOM      5  C   UNL     1      33.158 -14.927 -21.423  0.00  0.00    +0.150 C 
ATOM      6  C   UNL     1      32.688 -12.658 -22.974  0.00  0.00    +0.160 C 
ATOM      7  C   UNL     1      32.219 -13.983 -21.006  0.00  0.00    +0.057 C 
ATOM      8  C   UNL     1      33.627 -13.602 -23.394  0.00  0.00    +0.045 C 
ATOM      9  C   UNL     1      34.848 -15.748 -23.036  0.00  0.00    +0.215 C 
ATOM     10  C   UNL     1      35.009 -16.909 -22.129  0.00  0.00    +0.128 C 
ATOM     11  C   UNL     1      34.267 -16.959 -21.019  0.00  0.00    +0.197 C 
ENDROOT
BRANCH  10  13
ATOM     12  O   UNL     1      34.569 -19.169 -23.889  0.00  0.00    -0.265 OA
ATOM     13  N   UNL     1      35.907 -17.877 -22.463  0.00  0.00    -0.272 N 
ATOM     14  C   UNL     1      35.622 -18.927 -23.312  0.00  0.00    +0.304 C 
ATOM     15  H   UNL     1      36.811 -17.825 -22.076  0.00  0.00    +0.155 HD
ENDBRANCH  10  13
BRANCH   3  16
ATOM     16  N   UNL     1      31.023 -11.887 -21.346  0.00  0.00    -0.216 N 
ATOM     17  H   UNL     1      30.116 -11.868 -21.730  0.00  0.00    +0.173 HD
BRANCH  16  18
ATOM     18  S   UNL     1      31.490 -10.765 -20.126  0.00  0.00    +0.056 S 
ATOM     19  O   UNL     1      30.333 -10.482 -19.298  0.00  0.00    -0.154 OA
ATOM     20  O   UNL     1      32.751 -11.148 -19.525  0.00  0.00    -0.154 OA
ATOM     21  C   UNL     1      31.777  -9.320 -21.123  0.00  0.00    +0.200 C 
ENDBRANCH  16  18
ENDBRANCH   3  16
BRANCH   6  22
ATOM     22  O   UNL     1      32.471 -11.554 -23.744  0.00  0.00    -0.452 OA
BRANCH  22  23
ATOM     23  C   UNL     1      33.545 -11.040 -24.448  0.00  0.00    +0.145 C 
ATOM     24  C   UNL     1      33.913 -11.632 -25.644  0.00  0.00    +0.037 C 
ATOM     25  C   UNL     1      34.227  -9.950 -23.938  0.00  0.00    +0.037 C 
ATOM     26  C   UNL     1      34.998 -11.115 -26.353  0.00  0.00    +0.003 C 
ATOM     27  C   UNL     1      35.311  -9.433 -24.647  0.00  0.00    +0.003 C 
ATOM     28  C   UNL     1      35.697 -10.016 -25.855  0.00  0.00    +0.000 C 
ENDBRANCH  22  23
ENDBRANCH   6  22
TORSDOF 5
ENDMDL
MODEL 8
REMARK VINA RESULT:      -8.4      2.645      5.068
REMARK  Name = 124246
REMARK  5 active torsions:
REMARK  status: ('A' for Active; 'I' for Inactive)
REMARK    1  A    between atoms: C_3  and  N_16
REMARK    2  A    between atoms: C_6  and  O_22
REMARK    3  A    between atoms: C_10  and  N_13
REMARK    4  A    between atoms: N_16  and  S_18
REMARK    5  A    between atoms: O_22  and  C_23
REMARK                            x       y       z     vdW  Elec       q    Type
REMARK                         _______ _______ _______ _____ _____    ______ ____
ROOT
ATOM      1  O   UNL     1      32.556 -20.563 -19.829  0.00  0.00    -0.449 OA
ATOM      2  O   UNL     1      36.577 -21.284 -19.909  0.00  0.00    -0.285 OA
ATOM      3  C   UNL     1      32.727 -23.180 -17.296  0.00  0.00    +0.102 C 
ATOM      4  C   UNL     1      34.468 -21.806 -18.984  0.00  0.00    +0.078 C 
ATOM      5  C   UNL     1      33.103 -21.515 -19.003  0.00  0.00    +0.150 C 
ATOM      6  C   UNL     1      34.092 -23.471 -17.277  0.00  0.00    +0.160 C 
ATOM      7  C   UNL     1      32.230 -22.202 -18.158  0.00  0.00    +0.057 C 
ATOM      8  C   UNL     1      34.967 -22.785 -18.121  0.00  0.00    +0.045 C 
ATOM      9  C   UNL     1      35.373 -21.068 -19.886  0.00  0.00    +0.215 C 
ATOM     10  C   UNL     1      34.731 -20.054 -20.755  0.00  0.00    +0.128 C 
ATOM     11  C   UNL     1      33.409 -19.882 -20.665  0.00  0.00    +0.197 C 
ENDROOT
BRANCH  10  13
ATOM     12  O   UNL     1      35.503 -17.272 -20.507  0.00  0.00    -0.265 OA
ATOM     13  N   UNL     1      35.512 -19.339 -21.611  0.00  0.00    -0.272 N 
ATOM     14  C   UNL     1      35.838 -18.011 -21.424  0.00  0.00    +0.304 C 
ATOM     15  H   UNL     1      35.866 -19.796 -22.408  0.00  0.00    +0.155 HD
ENDBRANCH  10  13
BRANCH   3  16
ATOM     16  N   UNL     1      31.823 -23.877 -16.435  0.00  0.00    -0.216 N 
ATOM     17  H   UNL     1      32.007 -24.802 -16.151  0.00  0.00    +0.173 HD
BRANCH  16  18
ATOM     18  S   UNL     1      30.405 -23.055 -15.908  0.00  0.00    +0.056 S 
ATOM     19  O   UNL     1      30.726 -22.317 -14.702  0.00  0.00    -0.154 OA
ATOM     20  O   UNL     1      29.742 -22.402 -17.018  0.00  0.00    -0.154 OA
ATOM     21  C   UNL     1      29.405 -24.442 -15.414  0.00  0.00    +0.200 C 
ENDBRANCH  16  18
ENDBRANCH   3  16
BRANCH   6  22
ATOM     22  O   UNL     1      34.591 -24.424 -16.440  0.00  0.00    -0.452 OA
BRANCH  22  23
ATOM     23  C   UNL     1      35.209 -23.997 -15.278  0.00  0.00    +0.145 C 
ATOM     24  C   UNL     1      36.236 -23.073 -15.360  0.00  0.00    +0.037 C 
ATOM     25  C   UNL     1      34.787 -24.507 -14.064  0.00  0.00    +0.037 C 
ATOM     26  C   UNL     1      36.860 -22.644 -14.188  0.00  0.00    +0.003 C 
ATOM     27  C   UNL     1      35.410 -24.079 -12.892  0.00  0.00    +0.003 C 
ATOM     28  C   UNL     1      36.447 -23.147 -12.955  0.00  0.00    +0.000 C 
ENDBRANCH  22  23
ENDBRANCH   6  22
TORSDOF 5
ENDMDL
MODEL 9
REMARK VINA RESULT:      -8.2      9.499     13.484
REMARK  Name = 124246
REMARK  5 active torsions:
REMARK  status: ('A' for Active; 'I' for Inactive)
REMARK    1  A    between atoms: C_3  and  N_16
REMARK    2  A    between atoms: C_6  and  O_22
REMARK    3  A    between atoms: C_10  and  N_13
REMARK    4  A    between atoms: N_16  and  S_18
REMARK    5  A    between atoms: O_22  and  C_23
REMARK                            x       y       z     vdW  Elec       q    Type
REMARK                         _______ _______ _______ _____ _____    ______ ____
ROOT
ATOM      1  O   UNL     1      31.923 -11.342 -19.334  0.00  0.00    -0.449 OA
ATOM      2  O   UNL     1      31.805  -9.505 -22.982  0.00  0.00    -0.285 OA
ATOM      3  C   UNL     1      32.553 -14.235 -21.462  0.00  0.00    +0.102 C 
ATOM      4  C   UNL     1      32.088 -11.502 -21.755  0.00  0.00    +0.078 C 
ATOM      5  C   UNL     1      32.116 -12.073 -20.482  0.00  0.00    +0.150 C 
ATOM      6  C   UNL     1      32.524 -13.664 -22.735  0.00  0.00    +0.160 C 
ATOM      7  C   UNL     1      32.349 -13.441 -20.333  0.00  0.00    +0.057 C 
ATOM      8  C   UNL     1      32.292 -12.296 -22.886  0.00  0.00    +0.045 C 
ATOM      9  C   UNL     1      31.840 -10.054 -21.889  0.00  0.00    +0.215 C 
ATOM     10  C   UNL     1      31.638  -9.315 -20.621  0.00  0.00    +0.128 C 
ATOM     11  C   UNL     1      31.692  -9.994 -19.472  0.00  0.00    +0.197 C 
ENDROOT
BRANCH  10  13
ATOM     12  O   UNL     1      33.308  -7.202 -19.550  0.00  0.00    -0.265 OA
ATOM     13  N   UNL     1      31.404  -7.974 -20.677  0.00  0.00    -0.272 N 
ATOM     14  C   UNL     1      32.251  -7.026 -20.141  0.00  0.00    +0.304 C 
ATOM     15  H   UNL     1      30.585  -7.665 -21.127  0.00  0.00    +0.155 HD
ENDBRANCH  10  13
BRANCH   3  16
ATOM     16  N   UNL     1      32.790 -15.635 -21.297  0.00  0.00    -0.216 N 
ATOM     17  H   UNL     1      32.040 -16.273 -21.252  0.00  0.00    +0.173 HD
BRANCH  16  18
ATOM     18  S   UNL     1      34.420 -16.176 -21.183  0.00  0.00    +0.056 S 
ATOM     19  O   UNL     1      35.117 -15.785 -22.394  0.00  0.00    -0.154 OA
ATOM     20  O   UNL     1      34.977 -15.871 -19.881  0.00  0.00    -0.154 OA
ATOM     21  C   UNL     1      34.174 -17.936 -21.274  0.00  0.00    +0.200 C 
ENDBRANCH  16  18
ENDBRANCH   3  16
BRANCH   6  22
ATOM     22  O   UNL     1      32.722 -14.429 -23.847  0.00  0.00    -0.452 OA
BRANCH  22  23
ATOM     23  C   UNL     1      33.111 -13.784 -25.008  0.00  0.00    +0.145 C 
ATOM     24  C   UNL     1      33.776 -12.573 -24.917  0.00  0.00    +0.037 C 
ATOM     25  C   UNL     1      32.824 -14.365 -26.230  0.00  0.00    +0.037 C 
ATOM     26  C   UNL     1      34.167 -11.924 -26.089  0.00  0.00    +0.003 C 
ATOM     27  C   UNL     1      33.216 -13.716 -27.400  0.00  0.00    +0.003 C 
ATOM     28  C   UNL     1      33.887 -12.495 -27.329  0.00  0.00    +0.000 C 
ENDBRANCH  22  23
ENDBRANCH   6  22
TORSDOF 5
ENDMDL
