MODEL 1
REMARK VINA RESULT:     -10.3      0.000      0.000
REMARK  Name = 11683556
REMARK  4 active torsions:
REMARK  status: ('A' for Active; 'I' for Inactive)
REMARK    1  A    between atoms: C_1  and  C_10
REMARK    2  A    between atoms: C_3  and  O_28
REMARK    3  A    between atoms: C_4  and  N_15
REMARK    4  A    between atoms: N_16  and  C_22
REMARK                            x       y       z     vdW  Elec       q    Type
REMARK                         _______ _______ _______ _____ _____    ______ ____
ROOT
ATOM      1  C   UNL     1      33.405 -13.454 -23.629  0.00  0.00    +0.051 C 
ATOM      2  C   UNL     1      34.020 -14.660 -23.293  0.00  0.00    +0.019 C 
ATOM      3  C   UNL     1      32.608 -12.795 -22.695  0.00  0.00    +0.140 C 
ATOM      4  C   UNL     1      33.839 -15.206 -22.022  0.00  0.00    +0.052 C 
ATOM      5  C   UNL     1      32.426 -13.340 -21.423  0.00  0.00    +0.038 C 
ATOM      6  C   UNL     1      33.042 -14.546 -21.087  0.00  0.00    +0.018 C 
ENDROOT
BRANCH   1  10
ATOM      7 BR   UNL     1      34.713 -10.251 -24.331  0.00  0.00    -0.046 Br
ATOM      8  N   UNL     1      33.305 -13.580 -26.097  0.00  0.00    -0.209 N 
ATOM      9  N   UNL     1      33.567 -12.889 -27.219  0.00  0.00    -0.176 NA
ATOM     10  C   UNL     1      33.605 -12.906 -24.950  0.00  0.00    +0.080 C 
ATOM     11  C   UNL     1      34.099 -11.688 -25.350  0.00  0.00    +0.070 C 
ATOM     12  C   UNL     1      32.753 -14.911 -26.211  0.00  0.00    +0.140 C 
ATOM     13  C   UNL     1      34.053 -11.734 -26.757  0.00  0.00    +0.126 C 
ENDBRANCH   1  10
BRANCH   4  15
ATOM     14  O   UNL     1      32.686 -17.689 -20.829  0.00  0.00    -0.252 OA
ATOM     15  N   UNL     1      34.454 -16.412 -21.686  0.00  0.00    -0.268 N 
ATOM     16  N   UNL     1      34.853 -18.562 -20.943  0.00  0.00    -0.266 N 
ATOM     17  C   UNL     1      33.873 -17.573 -21.120  0.00  0.00    +0.308 C 
ATOM     18  H   UNL     1      35.421 -16.464 -21.867  0.00  0.00    +0.156 HD
ATOM     19  H   UNL     1      35.765 -18.322 -21.225  0.00  0.00    +0.156 HD
BRANCH  16  22
ATOM     20  F   UNL     1      37.047 -20.125 -20.272  0.00  0.00    -0.203 F 
ATOM     21  F   UNL     1      34.211 -23.640 -18.863  0.00  0.00    -0.204 F 
ATOM     22  C   UNL     1      34.690 -19.863 -20.409  0.00  0.00    +0.079 C 
ATOM     23  C   UNL     1      35.812 -20.611 -20.088  0.00  0.00    +0.156 C 
ATOM     24  C   UNL     1      33.412 -20.361 -20.220  0.00  0.00    +0.019 C 
ATOM     25  C   UNL     1      35.648 -21.893 -19.564  0.00  0.00    +0.061 C 
ATOM     26  C   UNL     1      33.249 -21.643 -19.696  0.00  0.00    +0.031 C 
ATOM     27  C   UNL     1      34.368 -22.410 -19.367  0.00  0.00    +0.142 C 
ENDBRANCH  16  22
ENDBRANCH   4  15
BRANCH   3  28
ATOM     28  O   UNL     1      31.994 -11.614 -22.996  0.00  0.00    -0.471 OA
ATOM     29  C   UNL     1      31.505 -10.842 -21.902  0.00  0.00    +0.252 C 
ENDBRANCH   3  28
TORSDOF 4
ENDMDL
MODEL 2
REMARK VINA RESULT:     -10.3      1.849      2.800
REMARK  Name = 11683556
REMARK  4 active torsions:
REMARK  status: ('A' for Active; 'I' for Inactive)
REMARK    1  A    between atoms: C_1  and  C_10
REMARK    2  A    between atoms: C_3  and  O_28
REMARK    3  A    between atoms: C_4  and  N_15
REMARK    4  A    between atoms: N_16  and  C_22
REMARK                            x       y       z     vdW  Elec       q    Type
REMARK                         _______ _______ _______ _____ _____    ______ ____
ROOT
ATOM      1  C   UNL     1      33.677 -13.232 -24.056  0.00  0.00    +0.051 C 
ATOM      2  C   UNL     1      34.160 -14.109 -23.085  0.00  0.00    +0.019 C 
ATOM      3  C   UNL     1      33.421 -13.693 -25.347  0.00  0.00    +0.140 C 
ATOM      4  C   UNL     1      34.386 -15.448 -23.405  0.00  0.00    +0.052 C 
ATOM      5  C   UNL     1      33.647 -15.033 -25.666  0.00  0.00    +0.038 C 
ATOM      6  C   UNL     1      34.130 -15.910 -24.695  0.00  0.00    +0.018 C 
ENDROOT
BRANCH   1  10
ATOM      7 BR   UNL     1      35.354 -10.467 -25.472  0.00  0.00    -0.046 Br
ATOM      8  N   UNL     1      32.540 -11.450 -22.770  0.00  0.00    -0.209 N 
ATOM      9  N   UNL     1      32.486 -10.119 -22.597  0.00  0.00    -0.176 NA
ATOM     10  C   UNL     1      33.449 -11.849 -23.706  0.00  0.00    +0.080 C 
ATOM     11  C   UNL     1      34.030 -10.697 -24.179  0.00  0.00    +0.070 C 
ATOM     12  C   UNL     1      31.669 -12.293 -21.982  0.00  0.00    +0.140 C 
ATOM     13  C   UNL     1      33.398  -9.664 -23.460  0.00  0.00    +0.126 C 
ENDBRANCH   1  10
BRANCH   4  15
ATOM     14  O   UNL     1      33.633 -18.277 -22.816  0.00  0.00    -0.252 OA
ATOM     15  N   UNL     1      34.870 -16.325 -22.434  0.00  0.00    -0.268 N 
ATOM     16  N   UNL     1      35.229 -18.183 -21.110  0.00  0.00    -0.266 N 
ATOM     17  C   UNL     1      34.488 -17.665 -22.184  0.00  0.00    +0.308 C 
ATOM     18  H   UNL     1      35.572 -15.964 -21.844  0.00  0.00    +0.156 HD
ATOM     19  H   UNL     1      35.882 -17.570 -20.700  0.00  0.00    +0.156 HD
BRANCH  16  22
ATOM     20  F   UNL     1      37.524 -19.609 -20.470  0.00  0.00    -0.203 F 
ATOM     21  F   UNL     1      34.927 -23.240 -18.905  0.00  0.00    -0.204 F 
ATOM     22  C   UNL     1      35.154 -19.478 -20.544  0.00  0.00    +0.079 C 
ATOM     23  C   UNL     1      36.323 -20.157 -20.240  0.00  0.00    +0.156 C 
ATOM     24  C   UNL     1      33.911 -20.041 -20.308  0.00  0.00    +0.019 C 
ATOM     25  C   UNL     1      36.246 -21.433 -19.684  0.00  0.00    +0.061 C 
ATOM     26  C   UNL     1      33.833 -21.317 -19.752  0.00  0.00    +0.031 C 
ATOM     27  C   UNL     1      35.002 -22.014 -19.439  0.00  0.00    +0.142 C 
ENDBRANCH  16  22
ENDBRANCH   4  15
BRANCH   3  28
ATOM     28  O   UNL     1      32.948 -12.858 -26.316  0.00  0.00    -0.471 OA
ATOM     29  C   UNL     1      33.303 -13.163 -27.662  0.00  0.00    +0.252 C 
ENDBRANCH   3  28
TORSDOF 4
ENDMDL
MODEL 3
REMARK VINA RESULT:     -10.2      5.912     10.344
REMARK  Name = 11683556
REMARK  4 active torsions:
REMARK  status: ('A' for Active; 'I' for Inactive)
REMARK    1  A    between atoms: C_1  and  C_10
REMARK    2  A    between atoms: C_3  and  O_28
REMARK    3  A    between atoms: C_4  and  N_15
REMARK    4  A    between atoms: N_16  and  C_22
REMARK                            x       y       z     vdW  Elec       q    Type
REMARK                         _______ _______ _______ _____ _____    ______ ____
ROOT
ATOM      1  C   UNL     1      33.151 -13.812 -23.393  0.00  0.00    +0.051 C 
ATOM      2  C   UNL     1      33.410 -12.487 -23.744  0.00  0.00    +0.019 C 
ATOM      3  C   UNL     1      32.418 -14.096 -22.241  0.00  0.00    +0.140 C 
ATOM      4  C   UNL     1      32.936 -11.447 -22.944  0.00  0.00    +0.052 C 
ATOM      5  C   UNL     1      31.943 -13.056 -21.442  0.00  0.00    +0.038 C 
ATOM      6  C   UNL     1      32.203 -11.732 -21.793  0.00  0.00    +0.018 C 
ENDROOT
BRANCH   1  10
ATOM      7 BR   UNL     1      35.229 -16.455 -22.319  0.00  0.00    -0.046 Br
ATOM      8  N   UNL     1      33.368 -14.976 -25.564  0.00  0.00    -0.209 N 
ATOM      9  N   UNL     1      33.933 -16.039 -26.161  0.00  0.00    -0.176 NA
ATOM     10  C   UNL     1      33.651 -14.874 -24.234  0.00  0.00    +0.080 C 
ATOM     11  C   UNL     1      34.457 -15.947 -23.939  0.00  0.00    +0.070 C 
ATOM     12  C   UNL     1      32.553 -14.083 -26.357  0.00  0.00    +0.140 C 
ATOM     13  C   UNL     1      34.596 -16.629 -25.163  0.00  0.00    +0.126 C 
ENDBRANCH   1  10
BRANCH   4  15
ATOM     14  O   UNL     1      31.118  -9.079 -23.012  0.00  0.00    -0.252 OA
ATOM     15  N   UNL     1      33.196 -10.121 -23.295  0.00  0.00    -0.268 N 
ATOM     16  N   UNL     1      32.982  -7.864 -23.731  0.00  0.00    -0.266 N 
ATOM     17  C   UNL     1      32.305  -9.021 -23.315  0.00  0.00    +0.308 C 
ATOM     18  H   UNL     1      34.123  -9.925 -23.564  0.00  0.00    +0.156 HD
ATOM     19  H   UNL     1      33.938  -7.974 -23.940  0.00  0.00    +0.156 HD
BRANCH  16  22
ATOM     20  F   UNL     1      31.973  -6.452 -21.563  0.00  0.00    -0.203 F 
ATOM     21  F   UNL     1      30.939  -2.768 -24.344  0.00  0.00    -0.204 F 
ATOM     22  C   UNL     1      32.459  -6.558 -23.886  0.00  0.00    +0.079 C 
ATOM     23  C   UNL     1      31.964  -5.888 -22.778  0.00  0.00    +0.156 C 
ATOM     24  C   UNL     1      32.453  -5.978 -25.143  0.00  0.00    +0.019 C 
ATOM     25  C   UNL     1      31.448  -4.602 -22.935  0.00  0.00    +0.061 C 
ATOM     26  C   UNL     1      31.936  -4.692 -25.299  0.00  0.00    +0.031 C 
ATOM     27  C   UNL     1      31.434  -4.003 -24.194  0.00  0.00    +0.142 C 
ENDBRANCH  16  22
ENDBRANCH   4  15
BRANCH   3  28
ATOM     28  O   UNL     1      32.149 -15.382 -21.874  0.00  0.00    -0.471 OA
ATOM     29  C   UNL     1      32.224 -15.686 -20.484  0.00  0.00    +0.252 C 
ENDBRANCH   3  28
TORSDOF 4
ENDMDL
MODEL 4
REMARK VINA RESULT:     -10.0      4.566      9.203
REMARK  Name = 11683556
REMARK  4 active torsions:
REMARK  status: ('A' for Active; 'I' for Inactive)
REMARK    1  A    between atoms: C_1  and  C_10
REMARK    2  A    between atoms: C_3  and  O_28
REMARK    3  A    between atoms: C_4  and  N_15
REMARK    4  A    between atoms: N_16  and  C_22
REMARK                            x       y       z     vdW  Elec       q    Type
REMARK                         _______ _______ _______ _____ _____    ______ ____
ROOT
ATOM      1  C   UNL     1      35.032 -18.182 -22.612  0.00  0.00    +0.051 C 
ATOM      2  C   UNL     1      34.946 -16.813 -22.359  0.00  0.00    +0.019 C 
ATOM      3  C   UNL     1      34.828 -18.666 -23.904  0.00  0.00    +0.140 C 
ATOM      4  C   UNL     1      34.655 -15.928 -23.398  0.00  0.00    +0.052 C 
ATOM      5  C   UNL     1      34.538 -17.781 -24.943  0.00  0.00    +0.038 C 
ATOM      6  C   UNL     1      34.451 -16.412 -24.690  0.00  0.00    +0.018 C 
ENDROOT
BRANCH   1  10
ATOM      7 BR   UNL     1      32.641 -19.909 -20.673  0.00  0.00    -0.046 Br
ATOM      8  N   UNL     1      36.603 -19.370 -21.116  0.00  0.00    -0.209 N 
ATOM      9  N   UNL     1      36.661 -20.231 -20.086  0.00  0.00    -0.176 NA
ATOM     10  C   UNL     1      35.333 -19.081 -21.524  0.00  0.00    +0.080 C 
ATOM     11  C   UNL     1      34.503 -19.805 -20.702  0.00  0.00    +0.070 C 
ATOM     12  C   UNL     1      37.837 -18.857 -21.667  0.00  0.00    +0.140 C 
ATOM     13  C   UNL     1      35.376 -20.494 -19.838  0.00  0.00    +0.126 C 
ENDBRANCH   1  10
BRANCH   4  15
ATOM     14  O   UNL     1      32.416 -14.016 -23.896  0.00  0.00    -0.252 OA
ATOM     15  N   UNL     1      34.568 -14.558 -23.145  0.00  0.00    -0.268 N 
ATOM     16  N   UNL     1      33.819 -12.380 -22.988  0.00  0.00    -0.266 N 
ATOM     17  C   UNL     1      33.485 -13.681 -23.396  0.00  0.00    +0.308 C 
ATOM     18  H   UNL     1      35.365 -14.147 -22.738  0.00  0.00    +0.156 HD
ATOM     19  H   UNL     1      34.717 -12.265 -22.602  0.00  0.00    +0.156 HD
BRANCH  16  22
ATOM     20  F   UNL     1      31.541 -12.091 -21.426  0.00  0.00    -0.203 F 
ATOM     21  F   UNL     1      30.710  -7.823 -23.290  0.00  0.00    -0.204 F 
ATOM     22  C   UNL     1      33.021 -11.213 -23.063  0.00  0.00    +0.079 C 
ATOM     23  C   UNL     1      31.892 -11.108 -22.267  0.00  0.00    +0.156 C 
ATOM     24  C   UNL     1      33.387 -10.200 -23.933  0.00  0.00    +0.019 C 
ATOM     25  C   UNL     1      31.108  -9.958 -22.345  0.00  0.00    +0.061 C 
ATOM     26  C   UNL     1      32.603  -9.049 -24.011  0.00  0.00    +0.031 C 
ATOM     27  C   UNL     1      31.462  -8.928 -23.216  0.00  0.00    +0.142 C 
ENDBRANCH  16  22
ENDBRANCH   4  15
BRANCH   3  28
ATOM     28  O   UNL     1      34.907 -19.999 -24.180  0.00  0.00    -0.471 OA
ATOM     29  C   UNL     1      34.850 -20.380 -25.552  0.00  0.00    +0.252 C 
ENDBRANCH   3  28
TORSDOF 4
ENDMDL
MODEL 5
REMARK VINA RESULT:      -9.8      7.158     12.569
REMARK  Name = 11683556
REMARK  4 active torsions:
REMARK  status: ('A' for Active; 'I' for Inactive)
REMARK    1  A    between atoms: C_1  and  C_10
REMARK    2  A    between atoms: C_3  and  O_28
REMARK    3  A    between atoms: C_4  and  N_15
REMARK    4  A    between atoms: N_16  and  C_22
REMARK                            x       y       z     vdW  Elec       q    Type
REMARK                         _______ _______ _______ _____ _____    ______ ____
ROOT
ATOM      1  C   UNL     1      36.080 -24.645 -14.302  0.00  0.00    +0.051 C 
ATOM      2  C   UNL     1      35.773 -24.071 -15.536  0.00  0.00    +0.019 C 
ATOM      3  C   UNL     1      35.124 -24.669 -13.288  0.00  0.00    +0.140 C 
ATOM      4  C   UNL     1      34.510 -23.523 -15.756  0.00  0.00    +0.052 C 
ATOM      5  C   UNL     1      33.860 -24.120 -13.507  0.00  0.00    +0.038 C 
ATOM      6  C   UNL     1      33.553 -23.547 -14.741  0.00  0.00    +0.018 C 
ENDROOT
BRANCH   1  10
ATOM      7 BR   UNL     1      38.550 -23.320 -12.156  0.00  0.00    -0.046 Br
ATOM      8  N   UNL     1      37.835 -26.338 -14.718  0.00  0.00    -0.209 N 
ATOM      9  N   UNL     1      39.088 -26.690 -14.384  0.00  0.00    -0.176 NA
ATOM     10  C   UNL     1      37.394 -25.207 -14.095  0.00  0.00    +0.080 C 
ATOM     11  C   UNL     1      38.432 -24.791 -13.296  0.00  0.00    +0.070 C 
ATOM     12  C   UNL     1      37.109 -27.155 -15.664  0.00  0.00    +0.140 C 
ATOM     13  C   UNL     1      39.447 -25.742 -13.514  0.00  0.00    +0.126 C 
ENDBRANCH   1  10
BRANCH   4  15
ATOM     14  O   UNL     1      36.061 -21.591 -17.422  0.00  0.00    -0.252 OA
ATOM     15  N   UNL     1      34.202 -22.948 -16.990  0.00  0.00    -0.268 N 
ATOM     16  N   UNL     1      34.284 -21.709 -18.937  0.00  0.00    -0.266 N 
ATOM     17  C   UNL     1      34.966 -22.032 -17.753  0.00  0.00    +0.308 C 
ATOM     18  H   UNL     1      33.339 -23.216 -17.382  0.00  0.00    +0.156 HD
ATOM     19  H   UNL     1      33.410 -22.145 -19.065  0.00  0.00    +0.156 HD
BRANCH  16  22
ATOM     20  F   UNL     1      32.433 -20.351 -20.498  0.00  0.00    -0.203 F 
ATOM     21  F   UNL     1      35.907 -18.295 -22.966  0.00  0.00    -0.204 F 
ATOM     22  C   UNL     1      34.697 -20.833 -19.969  0.00  0.00    +0.079 C 
ATOM     23  C   UNL     1      33.742 -20.175 -20.726  0.00  0.00    +0.156 C 
ATOM     24  C   UNL     1      36.051 -20.654 -20.201  0.00  0.00    +0.019 C 
ATOM     25  C   UNL     1      34.153 -19.314 -21.743  0.00  0.00    +0.061 C 
ATOM     26  C   UNL     1      36.462 -19.793 -21.218  0.00  0.00    +0.031 C 
ATOM     27  C   UNL     1      35.512 -19.122 -21.990  0.00  0.00    +0.142 C 
ENDBRANCH  16  22
ENDBRANCH   4  15
BRANCH   3  28
ATOM     28  O   UNL     1      35.397 -25.223 -12.072  0.00  0.00    -0.471 OA
ATOM     29  C   UNL     1      35.472 -24.336 -10.959  0.00  0.00    +0.252 C 
ENDBRANCH   3  28
TORSDOF 4
ENDMDL
MODEL 6
REMARK VINA RESULT:      -9.7      6.551     12.080
REMARK  Name = 11683556
REMARK  4 active torsions:
REMARK  status: ('A' for Active; 'I' for Inactive)
REMARK    1  A    between atoms: C_1  and  C_10
REMARK    2  A    between atoms: C_3  and  O_28
REMARK    3  A    between atoms: C_4  and  N_15
REMARK    4  A    between atoms: N_16  and  C_22
REMARK                            x       y       z     vdW  Elec       q    Type
REMARK                         _______ _______ _______ _____ _____    ______ ____
ROOT
ATOM      1  C   UNL     1      35.464 -24.256 -14.965  0.00  0.00    +0.051 C 
ATOM      2  C   UNL     1      35.994 -23.478 -15.994  0.00  0.00    +0.019 C 
ATOM      3  C   UNL     1      34.083 -24.324 -14.785  0.00  0.00    +0.140 C 
ATOM      4  C   UNL     1      35.144 -22.769 -16.842  0.00  0.00    +0.052 C 
ATOM      5  C   UNL     1      33.232 -23.615 -15.633  0.00  0.00    +0.038 C 
ATOM      6  C   UNL     1      33.763 -22.836 -16.662  0.00  0.00    +0.018 C 
ENDROOT
BRANCH   1  10
ATOM      7 BR   UNL     1      36.632 -23.126 -11.832  0.00  0.00    -0.046 Br
ATOM      8  N   UNL     1      36.865 -26.214 -14.399  0.00  0.00    -0.209 N 
ATOM      9  N   UNL     1      37.680 -26.714 -13.455  0.00  0.00    -0.176 NA
ATOM     10  C   UNL     1      36.361 -24.983 -14.098  0.00  0.00    +0.080 C 
ATOM     11  C   UNL     1      36.882 -24.655 -12.870  0.00  0.00    +0.070 C 
ATOM     12  C   UNL     1      36.614 -26.995 -15.589  0.00  0.00    +0.140 C 
ATOM     13  C   UNL     1      37.686 -25.758 -12.523  0.00  0.00    +0.126 C 
ENDBRANCH   1  10
BRANCH   4  15
ATOM     14  O   UNL     1      33.780 -21.368 -19.099  0.00  0.00    -0.252 OA
ATOM     15  N   UNL     1      35.675 -21.989 -17.871  0.00  0.00    -0.268 N 
ATOM     16  N   UNL     1      35.913 -20.658 -19.744  0.00  0.00    -0.266 N 
ATOM     17  C   UNL     1      34.994 -21.338 -18.928  0.00  0.00    +0.308 C 
ATOM     18  H   UNL     1      36.653 -21.876 -17.860  0.00  0.00    +0.156 HD
ATOM     19  H   UNL     1      36.859 -20.726 -19.478  0.00  0.00    +0.156 HD
BRANCH  16  22
ATOM     20  F   UNL     1      37.886 -19.097 -20.917  0.00  0.00    -0.203 F 
ATOM     21  F   UNL     1      34.864 -17.651 -24.258  0.00  0.00    -0.204 F 
ATOM     22  C   UNL     1      35.646 -19.888 -20.901  0.00  0.00    +0.079 C 
ATOM     23  C   UNL     1      36.659 -19.121 -21.455  0.00  0.00    +0.156 C 
ATOM     24  C   UNL     1      34.377 -19.916 -21.454  0.00  0.00    +0.019 C 
ATOM     25  C   UNL     1      36.393 -18.362 -22.594  0.00  0.00    +0.061 C 
ATOM     26  C   UNL     1      34.111 -19.157 -22.593  0.00  0.00    +0.031 C 
ATOM     27  C   UNL     1      35.120 -18.379 -23.164  0.00  0.00    +0.142 C 
ENDBRANCH  16  22
ENDBRANCH   4  15
BRANCH   3  28
ATOM     28  O   UNL     1      33.536 -25.077 -13.787  0.00  0.00    -0.471 OA
ATOM     29  C   UNL     1      32.116 -25.062 -13.670  0.00  0.00    +0.252 C 
ENDBRANCH   3  28
TORSDOF 4
ENDMDL
MODEL 7
REMARK VINA RESULT:      -9.6      2.155      2.988
REMARK  Name = 11683556
REMARK  4 active torsions:
REMARK  status: ('A' for Active; 'I' for Inactive)
REMARK    1  A    between atoms: C_1  and  C_10
REMARK    2  A    between atoms: C_3  and  O_28
REMARK    3  A    between atoms: C_4  and  N_15
REMARK    4  A    between atoms: N_16  and  C_22
REMARK                            x       y       z     vdW  Elec       q    Type
REMARK                         _______ _______ _______ _____ _____    ______ ____
ROOT
ATOM      1  C   UNL     1      33.268 -11.847 -23.899  0.00  0.00    +0.051 C 
ATOM      2  C   UNL     1      33.352 -13.135 -23.369  0.00  0.00    +0.019 C 
ATOM      3  C   UNL     1      32.446 -10.897 -23.294  0.00  0.00    +0.140 C 
ATOM      4  C   UNL     1      32.615 -13.471 -22.233  0.00  0.00    +0.052 C 
ATOM      5  C   UNL     1      31.709 -11.233 -22.159  0.00  0.00    +0.038 C 
ATOM      6  C   UNL     1      31.793 -12.521 -21.628  0.00  0.00    +0.018 C 
ENDROOT
BRANCH   1  10
ATOM      7 BR   UNL     1      33.147 -13.586 -26.968  0.00  0.00    -0.046 Br
ATOM      8  N   UNL     1      34.917 -10.476 -25.131  0.00  0.00    -0.209 N 
ATOM      9  N   UNL     1      35.530 -10.345 -26.320  0.00  0.00    -0.176 NA
ATOM     10  C   UNL     1      34.039 -11.518 -25.075  0.00  0.00    +0.080 C 
ATOM     11  C   UNL     1      34.081 -12.110 -26.314  0.00  0.00    +0.070 C 
ATOM     12  C   UNL     1      35.234  -9.541 -24.075  0.00  0.00    +0.140 C 
ATOM     13  C   UNL     1      35.015 -11.345 -27.038  0.00  0.00    +0.126 C 
ENDBRANCH   1  10
BRANCH   4  15
ATOM     14  O   UNL     1      34.808 -15.490 -22.408  0.00  0.00    -0.252 OA
ATOM     15  N   UNL     1      32.697 -14.759 -21.703  0.00  0.00    -0.268 N 
ATOM     16  N   UNL     1      33.427 -16.872 -21.122  0.00  0.00    -0.266 N 
ATOM     17  C   UNL     1      33.758 -15.691 -21.806  0.00  0.00    +0.308 C 
ATOM     18  H   UNL     1      31.914 -15.060 -21.187  0.00  0.00    +0.156 HD
ATOM     19  H   UNL     1      32.545 -16.885 -20.685  0.00  0.00    +0.156 HD
BRANCH  16  22
ATOM     20  F   UNL     1      32.245 -19.331 -20.608  0.00  0.00    -0.203 F 
ATOM     21  F   UNL     1      36.476 -21.446 -20.576  0.00  0.00    -0.204 F 
ATOM     22  C   UNL     1      34.207 -18.045 -20.983  0.00  0.00    +0.079 C 
ATOM     23  C   UNL     1      33.578 -19.253 -20.726  0.00  0.00    +0.156 C 
ATOM     24  C   UNL     1      35.583 -17.960 -21.106  0.00  0.00    +0.019 C 
ATOM     25  C   UNL     1      34.348 -20.407 -20.588  0.00  0.00    +0.061 C 
ATOM     26  C   UNL     1      36.354 -19.114 -20.968  0.00  0.00    +0.031 C 
ATOM     27  C   UNL     1      35.736 -20.339 -20.709  0.00  0.00    +0.142 C 
ENDBRANCH  16  22
ENDBRANCH   4  15
BRANCH   3  28
ATOM     28  O   UNL     1      32.345  -9.631 -23.791  0.00  0.00    -0.471 OA
ATOM     29  C   UNL     1      31.670  -8.671 -22.982  0.00  0.00    +0.252 C 
ENDBRANCH   3  28
TORSDOF 4
ENDMDL
MODEL 8
REMARK VINA RESULT:      -9.5      1.320      1.642
REMARK  Name = 11683556
REMARK  4 active torsions:
REMARK  status: ('A' for Active; 'I' for Inactive)
REMARK    1  A    between atoms: C_1  and  C_10
REMARK    2  A    between atoms: C_3  and  O_28
REMARK    3  A    between atoms: C_4  and  N_15
REMARK    4  A    between atoms: N_16  and  C_22
REMARK                            x       y       z     vdW  Elec       q    Type
REMARK                         _______ _______ _______ _____ _____    ______ ____
ROOT
ATOM      1  C   UNL     1      33.406 -13.352 -23.473  0.00  0.00    +0.051 C 
ATOM      2  C   UNL     1      34.036 -14.550 -23.136  0.00  0.00    +0.019 C 
ATOM      3  C   UNL     1      32.562 -12.727 -22.555  0.00  0.00    +0.140 C 
ATOM      4  C   UNL     1      33.823 -15.122 -21.882  0.00  0.00    +0.052 C 
ATOM      5  C   UNL     1      32.349 -13.299 -21.301  0.00  0.00    +0.038 C 
ATOM      6  C   UNL     1      32.979 -14.497 -20.964  0.00  0.00    +0.018 C 
ENDROOT
BRANCH   1  10
ATOM      7 BR   UNL     1      32.709 -14.927 -26.554  0.00  0.00    -0.046 Br
ATOM      8  N   UNL     1      34.166 -11.531 -24.964  0.00  0.00    -0.209 N 
ATOM      9  N   UNL     1      34.300 -11.187 -26.256  0.00  0.00    -0.176 NA
ATOM     10  C   UNL     1      33.640 -12.776 -24.776  0.00  0.00    +0.080 C 
ATOM     11  C   UNL     1      33.414 -13.281 -26.034  0.00  0.00    +0.070 C 
ATOM     12  C   UNL     1      34.575 -10.590 -23.946  0.00  0.00    +0.140 C 
ATOM     13  C   UNL     1      33.839 -12.259 -26.905  0.00  0.00    +0.126 C 
ENDBRANCH   1  10
BRANCH   4  15
ATOM     14  O   UNL     1      32.670 -17.692 -20.892  0.00  0.00    -0.252 OA
ATOM     15  N   UNL     1      34.453 -16.321 -21.545  0.00  0.00    -0.268 N 
ATOM     16  N   UNL     1      34.869 -18.487 -20.860  0.00  0.00    -0.266 N 
ATOM     17  C   UNL     1      33.871 -17.524 -21.077  0.00  0.00    +0.308 C 
ATOM     18  H   UNL     1      35.432 -16.332 -21.646  0.00  0.00    +0.156 HD
ATOM     19  H   UNL     1      35.792 -18.204 -21.054  0.00  0.00    +0.156 HD
BRANCH  16  22
ATOM     20  F   UNL     1      37.070 -20.092 -20.321  0.00  0.00    -0.203 F 
ATOM     21  F   UNL     1      34.248 -23.669 -19.049  0.00  0.00    -0.204 F 
ATOM     22  C   UNL     1      34.712 -19.814 -20.395  0.00  0.00    +0.079 C 
ATOM     23  C   UNL     1      35.836 -20.583 -20.138  0.00  0.00    +0.156 C 
ATOM     24  C   UNL     1      33.436 -20.318 -20.207  0.00  0.00    +0.019 C 
ATOM     25  C   UNL     1      35.678 -21.891 -19.682  0.00  0.00    +0.061 C 
ATOM     26  C   UNL     1      33.277 -21.626 -19.751  0.00  0.00    +0.031 C 
ATOM     27  C   UNL     1      34.400 -22.413 -19.488  0.00  0.00    +0.142 C 
ENDBRANCH  16  22
ENDBRANCH   4  15
BRANCH   3  28
ATOM     28  O   UNL     1      31.933 -11.555 -22.858  0.00  0.00    -0.471 OA
ATOM     29  C   UNL     1      31.612 -10.694 -21.769  0.00  0.00    +0.252 C 
ENDBRANCH   3  28
TORSDOF 4
ENDMDL
MODEL 9
REMARK VINA RESULT:      -9.5      1.193      1.668
REMARK  Name = 11683556
REMARK  4 active torsions:
REMARK  status: ('A' for Active; 'I' for Inactive)
REMARK    1  A    between atoms: C_1  and  C_10
REMARK    2  A    between atoms: C_3  and  O_28
REMARK    3  A    between atoms: C_4  and  N_15
REMARK    4  A    between atoms: N_16  and  C_22
REMARK                            x       y       z     vdW  Elec       q    Type
REMARK                         _______ _______ _______ _____ _____    ______ ____
ROOT
ATOM      1  C   UNL     1      33.222 -13.320 -23.886  0.00  0.00    +0.051 C 
ATOM      2  C   UNL     1      33.481 -14.670 -23.650  0.00  0.00    +0.019 C 
ATOM      3  C   UNL     1      32.607 -12.547 -22.903  0.00  0.00    +0.140 C 
ATOM      4  C   UNL     1      33.126 -15.246 -22.430  0.00  0.00    +0.052 C 
ATOM      5  C   UNL     1      32.251 -13.123 -21.683  0.00  0.00    +0.038 C 
ATOM      6  C   UNL     1      32.511 -14.473 -21.446  0.00  0.00    +0.018 C 
ENDROOT
BRANCH   1  10
ATOM      7 BR   UNL     1      34.906 -10.247 -24.310  0.00  0.00    -0.046 Br
ATOM      8  N   UNL     1      33.337 -13.334 -26.357  0.00  0.00    -0.209 N 
ATOM      9  N   UNL     1      33.770 -12.629 -27.415  0.00  0.00    -0.176 NA
ATOM     10  C   UNL     1      33.597 -12.743 -25.155  0.00  0.00    +0.080 C 
ATOM     11  C   UNL     1      34.247 -11.569 -25.449  0.00  0.00    +0.070 C 
ATOM     12  C   UNL     1      32.666 -14.594 -26.585  0.00  0.00    +0.140 C 
ATOM     13  C   UNL     1      34.326 -11.552 -26.855  0.00  0.00    +0.126 C 
ENDBRANCH   1  10
BRANCH   4  15
ATOM     14  O   UNL     1      35.049 -16.540 -20.547  0.00  0.00    -0.252 OA
ATOM     15  N   UNL     1      33.384 -16.597 -22.194  0.00  0.00    -0.268 N 
ATOM     16  N   UNL     1      34.244 -18.576 -21.370  0.00  0.00    -0.266 N 
ATOM     17  C   UNL     1      34.307 -17.176 -21.289  0.00  0.00    +0.308 C 
ATOM     18  H   UNL     1      32.854 -17.233 -22.727  0.00  0.00    +0.156 HD
ATOM     19  H   UNL     1      33.597 -18.943 -22.015  0.00  0.00    +0.156 HD
BRANCH  16  22
ATOM     20  F   UNL     1      33.013 -20.704 -20.080  0.00  0.00    -0.203 F 
ATOM     21  F   UNL     1      37.192 -22.274 -18.514  0.00  0.00    -0.204 F 
ATOM     22  C   UNL     1      34.998 -19.525 -20.639  0.00  0.00    +0.079 C 
ATOM     23  C   UNL     1      34.344 -20.572 -20.009  0.00  0.00    +0.156 C 
ATOM     24  C   UNL     1      36.374 -19.386 -20.568  0.00  0.00    +0.019 C 
ATOM     25  C   UNL     1      35.089 -21.504 -19.288  0.00  0.00    +0.061 C 
ATOM     26  C   UNL     1      37.119 -20.318 -19.847  0.00  0.00    +0.031 C 
ATOM     27  C   UNL     1      36.476 -21.379 -19.206  0.00  0.00    +0.142 C 
ENDBRANCH  16  22
ENDBRANCH   4  15
BRANCH   3  28
ATOM     28  O   UNL     1      32.341 -11.224 -23.106  0.00  0.00    -0.471 OA
ATOM     29  C   UNL     1      31.766 -10.505 -22.018  0.00  0.00    +0.252 C 
ENDBRANCH   3  28
TORSDOF 4
ENDMDL
