MODEL 1
REMARK VINA RESULT:      -8.9      0.000      0.000
REMARK  Name = 5359272
REMARK  1 active torsions:
REMARK  status: ('A' for Active; 'I' for Inactive)
REMARK    1  A    between atoms: C_17  and  O_20
REMARK                            x       y       z     vdW  Elec       q    Type
REMARK                         _______ _______ _______ _____ _____    ______ ____
ROOT
ATOM      1  N   UNL     1      31.820  -6.133 -23.264  0.00  0.00    +0.387 N 
ATOM      2  C   UNL     1      31.548  -9.033 -22.651  0.00  0.00    +0.015 C 
ATOM      3  C   UNL     1      31.924  -7.987 -21.567  0.00  0.00    -0.015 C 
ATOM      4  C   UNL     1      32.658  -6.817 -22.248  0.00  0.00    -0.053 C 
ATOM      5  C   UNL     1      30.614  -8.322 -23.669  0.00  0.00    -0.019 C 
ATOM      6  C   UNL     1      30.762 -10.175 -21.950  0.00  0.00    +0.004 C 
ATOM      7  C   UNL     1      32.710  -8.602 -20.392  0.00  0.00    -0.002 C 
ATOM      8  C   UNL     1      32.799  -9.506 -23.414  0.00  0.00    -0.024 C 
ATOM      9  C   UNL     1      33.983  -7.299 -22.873  0.00  0.00    +0.005 C 
ATOM     10  C   UNL     1      31.233  -7.044 -24.257  0.00  0.00    -0.077 C 
ATOM     11  C   UNL     1      31.531 -10.803 -20.787  0.00  0.00    +0.000 C 
ATOM     12  C   UNL     1      31.938  -9.756 -19.756  0.00  0.00    -0.000 C 
ATOM     13  C   UNL     1      33.932  -8.666 -23.518  0.00  0.00    -0.028 C 
ATOM     14  C   UNL     1      32.829 -10.743 -24.082  0.00  0.00    +0.032 C 
ATOM     15  C   UNL     1      30.797  -5.283 -22.654  0.00  0.00    -0.101 C 
ATOM     16  C   UNL     1      35.065  -9.099 -24.229  0.00  0.00    -0.002 C 
ATOM     17  C   UNL     1      33.959 -11.158 -24.790  0.00  0.00    +0.133 C 
ATOM     18  C   UNL     1      35.080 -10.340 -24.858  0.00  0.00    +0.036 C 
ATOM     19  H   UNL     1      32.463  -5.531 -23.778  0.00  0.00    -0.080 HD
ENDROOT
BRANCH  17  20
ATOM     20  O   UNL     1      33.961 -12.366 -25.419  0.00  0.00    -0.506 OA
ATOM     21  H   UNL     1      34.516 -13.054 -25.110  0.00  0.00    +0.292 HD
ENDBRANCH  17  20
TORSDOF 1
ENDMDL
MODEL 2
REMARK VINA RESULT:      -6.5      2.684      4.772
REMARK  Name = 5359272
REMARK  1 active torsions:
REMARK  status: ('A' for Active; 'I' for Inactive)
REMARK    1  A    between atoms: C_17  and  O_20
REMARK                            x       y       z     vdW  Elec       q    Type
REMARK                         _______ _______ _______ _____ _____    ______ ____
ROOT
ATOM      1  N   UNL     1      33.996  -9.221 -24.545  0.00  0.00    +0.387 N 
ATOM      2  C   UNL     1      33.275  -7.668 -22.110  0.00  0.00    +0.015 C 
ATOM      3  C   UNL     1      32.791  -9.125 -22.339  0.00  0.00    -0.015 C 
ATOM      4  C   UNL     1      32.691  -9.377 -23.854  0.00  0.00    -0.053 C 
ATOM      5  C   UNL     1      34.672  -7.540 -22.777  0.00  0.00    -0.019 C 
ATOM      6  C   UNL     1      33.420  -7.456 -20.578  0.00  0.00    +0.004 C 
ATOM      7  C   UNL     1      31.489  -9.448 -21.578  0.00  0.00    -0.002 C 
ATOM      8  C   UNL     1      32.333  -6.663 -22.798  0.00  0.00    -0.024 C 
ATOM      9  C   UNL     1      31.629  -8.456 -24.488  0.00  0.00    +0.005 C 
ATOM     10  C   UNL     1      34.667  -7.945 -24.260  0.00  0.00    -0.077 C 
ATOM     11  C   UNL     1      32.135  -7.763 -19.808  0.00  0.00    +0.000 C 
ATOM     12  C   UNL     1      31.644  -9.180 -20.082  0.00  0.00    -0.000 C 
ATOM     13  C   UNL     1      31.576  -7.052 -23.928  0.00  0.00    -0.028 C 
ATOM     14  C   UNL     1      32.249  -5.325 -22.375  0.00  0.00    +0.032 C 
ATOM     15  C   UNL     1      34.888 -10.356 -24.301  0.00  0.00    -0.101 C 
ATOM     16  C   UNL     1      30.729  -6.125 -24.559  0.00  0.00    -0.002 C 
ATOM     17  C   UNL     1      31.408  -4.412 -23.016  0.00  0.00    +0.133 C 
ATOM     18  C   UNL     1      30.643  -4.813 -24.104  0.00  0.00    +0.036 C 
ATOM     19  H   UNL     1      33.770  -9.206 -25.539  0.00  0.00    -0.080 HD
ENDROOT
BRANCH  17  20
ATOM     20  O   UNL     1      31.343  -3.125 -22.577  0.00  0.00    -0.506 OA
ATOM     21  H   UNL     1      30.601  -2.594 -22.791  0.00  0.00    +0.292 HD
ENDBRANCH  17  20
TORSDOF 1
ENDMDL
MODEL 3
REMARK VINA RESULT:      -5.9     16.122     18.242
REMARK  Name = 5359272
REMARK  1 active torsions:
REMARK  status: ('A' for Active; 'I' for Inactive)
REMARK    1  A    between atoms: C_17  and  O_20
REMARK                            x       y       z     vdW  Elec       q    Type
REMARK                         _______ _______ _______ _____ _____    ______ ____
ROOT
ATOM      1  N   UNL     1      34.106 -24.602 -13.405  0.00  0.00    +0.387 N 
ATOM      2  C   UNL     1      36.460 -23.213 -14.584  0.00  0.00    +0.015 C 
ATOM      3  C   UNL     1      35.125 -23.386 -15.358  0.00  0.00    -0.015 C 
ATOM      4  C   UNL     1      34.427 -24.662 -14.853  0.00  0.00    -0.053 C 
ATOM      5  C   UNL     1      36.103 -23.081 -13.078  0.00  0.00    -0.019 C 
ATOM      6  C   UNL     1      37.117 -21.892 -15.071  0.00  0.00    +0.004 C 
ATOM      7  C   UNL     1      35.313 -23.355 -16.888  0.00  0.00    -0.002 C 
ATOM      8  C   UNL     1      37.353 -24.458 -14.748  0.00  0.00    -0.024 C 
ATOM      9  C   UNL     1      35.281 -25.907 -15.167  0.00  0.00    +0.005 C 
ATOM     10  C   UNL     1      35.256 -24.253 -12.559  0.00  0.00    -0.077 C 
ATOM     11  C   UNL     1      37.320 -21.848 -16.587  0.00  0.00    +0.000 C 
ATOM     12  C   UNL     1      36.009 -22.070 -17.332  0.00  0.00    -0.000 C 
ATOM     13  C   UNL     1      36.774 -25.721 -15.008  0.00  0.00    -0.028 C 
ATOM     14  C   UNL     1      38.746 -24.391 -14.574  0.00  0.00    +0.032 C 
ATOM     15  C   UNL     1      32.961 -23.733 -13.130  0.00  0.00    -0.101 C 
ATOM     16  C   UNL     1      37.594 -26.855 -15.141  0.00  0.00    -0.002 C 
ATOM     17  C   UNL     1      39.549 -25.526 -14.703  0.00  0.00    +0.133 C 
ATOM     18  C   UNL     1      38.974 -26.758 -14.993  0.00  0.00    +0.036 C 
ATOM     19  H   UNL     1      33.846 -25.554 -13.151  0.00  0.00    -0.080 HD
ENDROOT
BRANCH  17  20
ATOM     20  O   UNL     1      40.896 -25.428 -14.538  0.00  0.00    -0.506 OA
ATOM     21  H   UNL     1      41.432 -25.110 -15.238  0.00  0.00    +0.292 HD
ENDBRANCH  17  20
TORSDOF 1
ENDMDL
