MODEL 1
REMARK VINA RESULT:      -6.1      0.000      0.000
REMARK  Name = 126
REMARK  2 active torsions:
REMARK  status: ('A' for Active; 'I' for Inactive)
REMARK    1  A    between atoms: C_1  and  C_10
REMARK    2  A    between atoms: C_4  and  O_7
REMARK                            x       y       z     vdW  Elec       q    Type
REMARK                         _______ _______ _______ _____ _____    ______ ____
ROOT
ATOM      1  C   UNL     1      35.201 -19.548 -20.970  0.00  0.00    +0.042 C 
ATOM      2  C   UNL     1      35.768 -20.592 -20.240  0.00  0.00    +0.006 C 
ATOM      3  C   UNL     1      33.814 -19.406 -21.023  0.00  0.00    +0.006 C 
ATOM      4  C   UNL     1      33.563 -21.352 -19.614  0.00  0.00    +0.134 C 
ATOM      5  C   UNL     1      34.949 -21.494 -19.562  0.00  0.00    +0.037 C 
ATOM      6  C   UNL     1      32.995 -20.308 -20.345  0.00  0.00    +0.037 C 
ENDROOT
BRANCH   4   7
ATOM      7  O   UNL     1      32.763 -22.233 -18.953  0.00  0.00    -0.506 OA
ATOM      8  H   UNL     1      31.847 -22.272 -19.149  0.00  0.00    +0.292 HD
ENDBRANCH   4   7
BRANCH   1  10
ATOM      9  O   UNL     1      35.855 -18.260 -22.844  0.00  0.00    -0.283 OA
ATOM     10  C   UNL     1      36.056 -18.606 -21.678  0.00  0.00    +0.234 C 
ENDBRANCH   1  10
TORSDOF 2
ENDMDL
MODEL 2
REMARK VINA RESULT:      -6.1      0.032      1.611
REMARK  Name = 126
REMARK  2 active torsions:
REMARK  status: ('A' for Active; 'I' for Inactive)
REMARK    1  A    between atoms: C_1  and  C_10
REMARK    2  A    between atoms: C_4  and  O_7
REMARK                            x       y       z     vdW  Elec       q    Type
REMARK                         _______ _______ _______ _____ _____    ______ ____
ROOT
ATOM      1  C   UNL     1      35.212 -19.535 -20.950  0.00  0.00    +0.042 C 
ATOM      2  C   UNL     1      33.827 -19.388 -21.015  0.00  0.00    +0.006 C 
ATOM      3  C   UNL     1      35.769 -20.586 -20.220  0.00  0.00    +0.006 C 
ATOM      4  C   UNL     1      33.554 -21.342 -19.622  0.00  0.00    +0.134 C 
ATOM      5  C   UNL     1      32.998 -20.292 -20.351  0.00  0.00    +0.037 C 
ATOM      6  C   UNL     1      34.940 -21.490 -19.556  0.00  0.00    +0.037 C 
ENDROOT
BRANCH   4   7
ATOM      7  O   UNL     1      32.745 -22.224 -18.973  0.00  0.00    -0.506 OA
ATOM      8  H   UNL     1      32.870 -22.389 -18.059  0.00  0.00    +0.292 HD
ENDBRANCH   4   7
BRANCH   1  10
ATOM      9  O   UNL     1      35.874 -18.216 -22.799  0.00  0.00    -0.283 OA
ATOM     10  C   UNL     1      36.078 -18.593 -21.643  0.00  0.00    +0.234 C 
ENDBRANCH   1  10
TORSDOF 2
ENDMDL
MODEL 3
REMARK VINA RESULT:      -6.0      0.998      3.928
REMARK  Name = 126
REMARK  2 active torsions:
REMARK  status: ('A' for Active; 'I' for Inactive)
REMARK    1  A    between atoms: C_1  and  C_10
REMARK    2  A    between atoms: C_4  and  O_7
REMARK                            x       y       z     vdW  Elec       q    Type
REMARK                         _______ _______ _______ _____ _____    ______ ____
ROOT
ATOM      1  C   UNL     1      34.105 -21.594 -19.355  0.00  0.00    +0.042 C 
ATOM      2  C   UNL     1      35.486 -21.472 -19.503  0.00  0.00    +0.006 C 
ATOM      3  C   UNL     1      33.251 -20.719 -20.028  0.00  0.00    +0.006 C 
ATOM      4  C   UNL     1      35.161 -19.602 -20.997  0.00  0.00    +0.134 C 
ATOM      5  C   UNL     1      36.014 -20.476 -20.324  0.00  0.00    +0.037 C 
ATOM      6  C   UNL     1      33.779 -19.723 -20.849  0.00  0.00    +0.037 C 
ENDROOT
BRANCH   4   7
ATOM      7  O   UNL     1      35.676 -18.629 -21.797  0.00  0.00    -0.506 OA
ATOM      8  H   UNL     1      35.118 -18.165 -22.390  0.00  0.00    +0.292 HD
ENDBRANCH   4   7
BRANCH   1  10
ATOM      9  O   UNL     1      33.723 -23.837 -18.705  0.00  0.00    -0.283 OA
ATOM     10  C   UNL     1      33.553 -22.633 -18.499  0.00  0.00    +0.234 C 
ENDBRANCH   1  10
TORSDOF 2
ENDMDL
MODEL 4
REMARK VINA RESULT:      -5.9      0.974      4.201
REMARK  Name = 126
REMARK  2 active torsions:
REMARK  status: ('A' for Active; 'I' for Inactive)
REMARK    1  A    between atoms: C_1  and  C_10
REMARK    2  A    between atoms: C_4  and  O_7
REMARK                            x       y       z     vdW  Elec       q    Type
REMARK                         _______ _______ _______ _____ _____    ______ ____
ROOT
ATOM      1  C   UNL     1      34.254 -21.471 -19.520  0.00  0.00    +0.042 C 
ATOM      2  C   UNL     1      33.442 -20.563 -20.198  0.00  0.00    +0.006 C 
ATOM      3  C   UNL     1      35.643 -21.349 -19.585  0.00  0.00    +0.006 C 
ATOM      4  C   UNL     1      35.404 -19.410 -21.006  0.00  0.00    +0.134 C 
ATOM      5  C   UNL     1      34.017 -19.533 -20.941  0.00  0.00    +0.037 C 
ATOM      6  C   UNL     1      36.218 -20.318 -20.328  0.00  0.00    +0.037 C 
ENDROOT
BRANCH   4   7
ATOM      7  O   UNL     1      35.966 -18.405 -21.733  0.00  0.00    -0.506 OA
ATOM      8  H   UNL     1      36.012 -18.472 -22.666  0.00  0.00    +0.292 HD
ENDBRANCH   4   7
BRANCH   1  10
ATOM      9  O   UNL     1      33.820 -23.740 -19.007  0.00  0.00    -0.283 OA
ATOM     10  C   UNL     1      33.655 -22.546 -18.744  0.00  0.00    +0.234 C 
ENDBRANCH   1  10
TORSDOF 2
ENDMDL
MODEL 5
REMARK VINA RESULT:      -5.8      1.203      1.436
REMARK  Name = 126
REMARK  2 active torsions:
REMARK  status: ('A' for Active; 'I' for Inactive)
REMARK    1  A    between atoms: C_1  and  C_10
REMARK    2  A    between atoms: C_4  and  O_7
REMARK                            x       y       z     vdW  Elec       q    Type
REMARK                         _______ _______ _______ _____ _____    ______ ____
ROOT
ATOM      1  C   UNL     1      34.551 -20.041 -20.756  0.00  0.00    +0.042 C 
ATOM      2  C   UNL     1      35.759 -20.576 -20.310  0.00  0.00    +0.006 C 
ATOM      3  C   UNL     1      33.343 -20.539 -20.265  0.00  0.00    +0.006 C 
ATOM      4  C   UNL     1      34.554 -22.107 -18.882  0.00  0.00    +0.134 C 
ATOM      5  C   UNL     1      35.760 -21.609 -19.373  0.00  0.00    +0.037 C 
ATOM      6  C   UNL     1      33.345 -21.572 -19.328  0.00  0.00    +0.037 C 
ENDROOT
BRANCH   4   7
ATOM      7  O   UNL     1      34.555 -23.116 -17.968  0.00  0.00    -0.506 OA
ATOM      8  H   UNL     1      34.570 -22.918 -17.053  0.00  0.00    +0.292 HD
ENDBRANCH   4   7
BRANCH   1  10
ATOM      9  O   UNL     1      34.425 -19.154 -22.946  0.00  0.00    -0.283 OA
ATOM     10  C   UNL     1      34.548 -18.963 -21.733  0.00  0.00    +0.234 C 
ENDBRANCH   1  10
TORSDOF 2
ENDMDL
MODEL 6
REMARK VINA RESULT:      -5.8      2.764      5.091
REMARK  Name = 126
REMARK  2 active torsions:
REMARK  status: ('A' for Active; 'I' for Inactive)
REMARK    1  A    between atoms: C_1  and  C_10
REMARK    2  A    between atoms: C_4  and  O_7
REMARK                            x       y       z     vdW  Elec       q    Type
REMARK                         _______ _______ _______ _____ _____    ______ ____
ROOT
ATOM      1  C   UNL     1      35.119 -18.548 -22.480  0.00  0.00    +0.042 C 
ATOM      2  C   UNL     1      34.778 -19.218 -23.654  0.00  0.00    +0.006 C 
ATOM      3  C   UNL     1      35.223 -17.157 -22.475  0.00  0.00    +0.006 C 
ATOM      4  C   UNL     1      34.644 -17.107 -24.820  0.00  0.00    +0.134 C 
ATOM      5  C   UNL     1      34.540 -18.498 -24.824  0.00  0.00    +0.037 C 
ATOM      6  C   UNL     1      34.986 -16.436 -23.645  0.00  0.00    +0.037 C 
ENDROOT
BRANCH   4   7
ATOM      7  O   UNL     1      34.414 -16.404 -25.962  0.00  0.00    -0.506 OA
ATOM      8  H   UNL     1      33.554 -16.383 -26.333  0.00  0.00    +0.292 HD
ENDBRANCH   4   7
BRANCH   1  10
ATOM      9  O   UNL     1      36.275 -19.024 -20.471  0.00  0.00    -0.283 OA
ATOM     10  C   UNL     1      35.367 -19.300 -21.259  0.00  0.00    +0.234 C 
ENDBRANCH   1  10
TORSDOF 2
ENDMDL
MODEL 7
REMARK VINA RESULT:      -5.8      2.747      5.108
REMARK  Name = 126
REMARK  2 active torsions:
REMARK  status: ('A' for Active; 'I' for Inactive)
REMARK    1  A    between atoms: C_1  and  C_10
REMARK    2  A    between atoms: C_4  and  O_7
REMARK                            x       y       z     vdW  Elec       q    Type
REMARK                         _______ _______ _______ _____ _____    ______ ____
ROOT
ATOM      1  C   UNL     1      35.103 -18.524 -22.434  0.00  0.00    +0.042 C 
ATOM      2  C   UNL     1      35.207 -17.133 -22.447  0.00  0.00    +0.006 C 
ATOM      3  C   UNL     1      34.776 -19.210 -23.605  0.00  0.00    +0.006 C 
ATOM      4  C   UNL     1      34.656 -17.113 -24.799  0.00  0.00    +0.134 C 
ATOM      5  C   UNL     1      34.984 -16.428 -23.629  0.00  0.00    +0.037 C 
ATOM      6  C   UNL     1      34.553 -18.505 -24.787  0.00  0.00    +0.037 C 
ENDROOT
BRANCH   4   7
ATOM      7  O   UNL     1      34.437 -16.425 -25.952  0.00  0.00    -0.506 OA
ATOM      8  H   UNL     1      34.719 -16.782 -26.771  0.00  0.00    +0.292 HD
ENDBRANCH   4   7
BRANCH   1  10
ATOM      9  O   UNL     1      36.303 -19.050 -20.464  0.00  0.00    -0.283 OA
ATOM     10  C   UNL     1      35.336 -19.260 -21.201  0.00  0.00    +0.234 C 
ENDBRANCH   1  10
TORSDOF 2
ENDMDL
MODEL 8
REMARK VINA RESULT:      -5.6      1.903      4.678
REMARK  Name = 126
REMARK  2 active torsions:
REMARK  status: ('A' for Active; 'I' for Inactive)
REMARK    1  A    between atoms: C_1  and  C_10
REMARK    2  A    between atoms: C_4  and  O_7
REMARK                            x       y       z     vdW  Elec       q    Type
REMARK                         _______ _______ _______ _____ _____    ______ ____
ROOT
ATOM      1  C   UNL     1      34.199 -19.112 -21.441  0.00  0.00    +0.042 C 
ATOM      2  C   UNL     1      34.056 -17.788 -21.029  0.00  0.00    +0.006 C 
ATOM      3  C   UNL     1      34.842 -19.403 -22.646  0.00  0.00    +0.006 C 
ATOM      4  C   UNL     1      35.197 -17.043 -23.023  0.00  0.00    +0.134 C 
ATOM      5  C   UNL     1      34.555 -16.754 -21.820  0.00  0.00    +0.037 C 
ATOM      6  C   UNL     1      35.341 -18.368 -23.437  0.00  0.00    +0.037 C 
ENDROOT
BRANCH   4   7
ATOM      7  O   UNL     1      35.683 -16.033 -23.796  0.00  0.00    -0.506 OA
ATOM      8  H   UNL     1      36.510 -16.129 -24.225  0.00  0.00    +0.292 HD
ENDBRANCH   4   7
BRANCH   1  10
ATOM      9  O   UNL     1      32.505 -20.568 -20.661  0.00  0.00    -0.283 OA
ATOM     10  C   UNL     1      33.679 -20.192 -20.616  0.00  0.00    +0.234 C 
ENDBRANCH   1  10
TORSDOF 2
ENDMDL
MODEL 9
REMARK VINA RESULT:      -5.6      7.302      8.275
REMARK  Name = 126
REMARK  2 active torsions:
REMARK  status: ('A' for Active; 'I' for Inactive)
REMARK    1  A    between atoms: C_1  and  C_10
REMARK    2  A    between atoms: C_4  and  O_7
REMARK                            x       y       z     vdW  Elec       q    Type
REMARK                         _______ _______ _______ _____ _____    ______ ____
ROOT
ATOM      1  C   UNL     1      29.300 -23.526 -16.086  0.00  0.00    +0.042 C 
ATOM      2  C   UNL     1      28.973 -24.694 -15.400  0.00  0.00    +0.006 C 
ATOM      3  C   UNL     1      30.592 -23.004 -15.999  0.00  0.00    +0.006 C 
ATOM      4  C   UNL     1      31.226 -24.820 -14.539  0.00  0.00    +0.134 C 
ATOM      5  C   UNL     1      29.935 -25.342 -14.626  0.00  0.00    +0.037 C 
ATOM      6  C   UNL     1      31.554 -23.651 -15.226  0.00  0.00    +0.037 C 
ENDROOT
BRANCH   4   7
ATOM      7  O   UNL     1      32.165 -25.452 -13.783  0.00  0.00    -0.506 OA
ATOM      8  H   UNL     1      32.983 -25.031 -13.605  0.00  0.00    +0.292 HD
ENDBRANCH   4   7
BRANCH   1  10
ATOM      9  O   UNL     1      27.596 -23.433 -17.725  0.00  0.00    -0.283 OA
ATOM     10  C   UNL     1      28.296 -22.850 -16.894  0.00  0.00    +0.234 C 
ENDBRANCH   1  10
TORSDOF 2
ENDMDL
