MODEL 1
REMARK VINA RESULT:     -10.8      0.000      0.000
REMARK  Name = 5494385
REMARK  6 active torsions:
REMARK  status: ('A' for Active; 'I' for Inactive)
REMARK    1  A    between atoms: C_3  and  C_15
REMARK    2  A    between atoms: C_8  and  C_18
REMARK    3  A    between atoms: C_18  and  C_19
REMARK    4  A    between atoms: C_19  and  N_20
REMARK    5  A    between atoms: C_19  and  C_24
REMARK    6  A    between atoms: C_24  and  C_26
REMARK                            x       y       z     vdW  Elec       q    Type
REMARK                         _______ _______ _______ _____ _____    ______ ____
ROOT
ATOM      1  O   UNL     1      35.029 -14.949 -22.768  0.00  0.00    -0.275 OA
ATOM      2  N   UNL     1      34.416 -17.060 -21.988  0.00  0.00    -0.269 N 
ATOM      3  C   UNL     1      35.621 -17.698 -22.522  0.00  0.00    +0.156 C 
ATOM      4  C   UNL     1      36.250 -18.682 -21.540  0.00  0.00    +0.055 C 
ATOM      5  C   UNL     1      33.395 -17.925 -21.372  0.00  0.00    +0.120 C 
ATOM      6  C   UNL     1      35.244 -19.605 -20.906  0.00  0.00    -0.022 C 
ATOM      7  C   UNL     1      33.895 -19.232 -20.817  0.00  0.00    -0.006 C 
ATOM      8  C   UNL     1      34.197 -15.700 -22.253  0.00  0.00    +0.224 C 
ATOM      9  C   UNL     1      35.667 -20.825 -20.358  0.00  0.00    -0.004 C 
ATOM     10  C   UNL     1      32.983 -20.102 -20.202  0.00  0.00    -0.003 C 
ATOM     11  C   UNL     1      34.751 -21.680 -19.746  0.00  0.00    -0.000 C 
ATOM     12  C   UNL     1      33.409 -21.319 -19.670  0.00  0.00    -0.000 C 
ENDROOT
BRANCH   3  15
ATOM     13  O   UNL     1      35.091 -19.557 -23.933  0.00  0.00    -0.274 OA
ATOM     14  N   UNL     1      35.083 -17.450 -24.858  0.00  0.00    -0.327 N 
ATOM     15  C   UNL     1      35.235 -18.342 -23.823  0.00  0.00    +0.238 C 
ATOM     16  H   UNL     1      34.831 -17.774 -25.754  0.00  0.00    +0.145 HD
ATOM     17  H   UNL     1      35.226 -16.489 -24.705  0.00  0.00    +0.145 HD
ENDBRANCH   3  15
BRANCH   8  18
ATOM     18  C   UNL     1      32.846 -15.151 -21.863  0.00  0.00    +0.064 C 
BRANCH  18  19
ATOM     19  C   UNL     1      32.890 -13.636 -21.658  0.00  0.00    -0.052 C 
BRANCH  19  20
ATOM     20  N   UNL     1      32.295 -13.360 -20.343  0.00  0.00    +0.382 N 
ATOM     21  H   UNL     1      32.725 -13.963 -19.642  0.00  0.00    -0.089 HD
ATOM     22  H   UNL     1      31.291 -13.542 -20.379  0.00  0.00    -0.089 HD
ATOM     23  H   UNL     1      32.454 -12.383 -20.096  0.00  0.00    -0.089 HD
ENDBRANCH  19  20
BRANCH  19  24
ATOM     24  C   UNL     1      32.101 -12.848 -22.725  0.00  0.00    +0.007 C 
BRANCH  24  26
ATOM     25  F   UNL     1      34.258 -12.547 -24.527  0.00  0.00    -0.205 F 
ATOM     26  C   UNL     1      32.691 -11.505 -23.079  0.00  0.00    +0.003 C 
ATOM     27  C   UNL     1      33.749 -11.438 -23.972  0.00  0.00    +0.136 C 
ATOM     28  C   UNL     1      32.163 -10.361 -22.503  0.00  0.00    -0.002 C 
ATOM     29  C   UNL     1      34.293 -10.195 -24.297  0.00  0.00    +0.029 C 
ATOM     30  C   UNL     1      32.707  -9.117 -22.828  0.00  0.00    -0.000 C 
ATOM     31  C   UNL     1      33.771  -9.035 -23.725  0.00  0.00    +0.002 C 
ENDBRANCH  24  26
ENDBRANCH  19  24
ENDBRANCH  18  19
ENDBRANCH   8  18
TORSDOF 6
ENDMDL
MODEL 2
REMARK VINA RESULT:     -10.7      0.912      1.312
REMARK  Name = 5494385
REMARK  6 active torsions:
REMARK  status: ('A' for Active; 'I' for Inactive)
REMARK    1  A    between atoms: C_3  and  C_15
REMARK    2  A    between atoms: C_8  and  C_18
REMARK    3  A    between atoms: C_18  and  C_19
REMARK    4  A    between atoms: C_19  and  N_20
REMARK    5  A    between atoms: C_19  and  C_24
REMARK    6  A    between atoms: C_24  and  C_26
REMARK                            x       y       z     vdW  Elec       q    Type
REMARK                         _______ _______ _______ _____ _____    ______ ____
ROOT
ATOM      1  O   UNL     1      35.027 -14.939 -22.754  0.00  0.00    -0.275 OA
ATOM      2  N   UNL     1      34.418 -17.053 -21.979  0.00  0.00    -0.269 N 
ATOM      3  C   UNL     1      35.629 -17.686 -22.507  0.00  0.00    +0.156 C 
ATOM      4  C   UNL     1      36.257 -18.668 -21.523  0.00  0.00    +0.055 C 
ATOM      5  C   UNL     1      33.398 -17.923 -21.369  0.00  0.00    +0.120 C 
ATOM      6  C   UNL     1      35.252 -19.596 -20.895  0.00  0.00    -0.022 C 
ATOM      7  C   UNL     1      33.901 -19.228 -20.812  0.00  0.00    -0.006 C 
ATOM      8  C   UNL     1      34.195 -15.694 -22.244  0.00  0.00    +0.224 C 
ATOM      9  C   UNL     1      35.676 -20.814 -20.346  0.00  0.00    -0.004 C 
ATOM     10  C   UNL     1      32.989 -20.102 -20.203  0.00  0.00    -0.003 C 
ATOM     11  C   UNL     1      34.761 -21.673 -19.739  0.00  0.00    -0.000 C 
ATOM     12  C   UNL     1      33.417 -21.318 -19.670  0.00  0.00    -0.000 C 
ENDROOT
BRANCH   3  15
ATOM     13  O   UNL     1      35.135 -19.547 -23.928  0.00  0.00    -0.274 OA
ATOM     14  N   UNL     1      35.076 -17.436 -24.840  0.00  0.00    -0.327 N 
ATOM     15  C   UNL     1      35.252 -18.330 -23.811  0.00  0.00    +0.238 C 
ATOM     16  H   UNL     1      34.827 -17.760 -25.737  0.00  0.00    +0.145 HD
ATOM     17  H   UNL     1      35.198 -16.472 -24.682  0.00  0.00    +0.145 HD
ENDBRANCH   3  15
BRANCH   8  18
ATOM     18  C   UNL     1      32.840 -15.151 -21.861  0.00  0.00    +0.064 C 
BRANCH  18  19
ATOM     19  C   UNL     1      32.877 -13.636 -21.653  0.00  0.00    -0.052 C 
BRANCH  19  20
ATOM     20  N   UNL     1      32.226 -13.359 -20.366  0.00  0.00    +0.382 N 
ATOM     21  H   UNL     1      31.691 -14.177 -20.072  0.00  0.00    -0.089 HD
ATOM     22  H   UNL     1      31.597 -12.561 -20.468  0.00  0.00    -0.089 HD
ATOM     23  H   UNL     1      32.935 -13.145 -19.665  0.00  0.00    -0.089 HD
ENDBRANCH  19  20
BRANCH  19  24
ATOM     24  C   UNL     1      32.136 -12.846 -22.754  0.00  0.00    +0.007 C 
BRANCH  24  26
ATOM     25  F   UNL     1      31.668 -10.211 -21.847  0.00  0.00    -0.205 F 
ATOM     26  C   UNL     1      32.889 -11.651 -23.285  0.00  0.00    +0.003 C 
ATOM     27  C   UNL     1      32.603 -10.389 -22.790  0.00  0.00    +0.136 C 
ATOM     28  C   UNL     1      33.855 -11.840 -24.262  0.00  0.00    -0.002 C 
ATOM     29  C   UNL     1      33.301  -9.286 -23.284  0.00  0.00    +0.029 C 
ATOM     30  C   UNL     1      34.553 -10.736 -24.755  0.00  0.00    -0.000 C 
ATOM     31  C   UNL     1      34.276  -9.460 -24.266  0.00  0.00    +0.002 C 
ENDBRANCH  24  26
ENDBRANCH  19  24
ENDBRANCH  18  19
ENDBRANCH   8  18
TORSDOF 6
ENDMDL
MODEL 3
REMARK VINA RESULT:     -10.3      1.186      1.812
REMARK  Name = 5494385
REMARK  6 active torsions:
REMARK  status: ('A' for Active; 'I' for Inactive)
REMARK    1  A    between atoms: C_3  and  C_15
REMARK    2  A    between atoms: C_8  and  C_18
REMARK    3  A    between atoms: C_18  and  C_19
REMARK    4  A    between atoms: C_19  and  N_20
REMARK    5  A    between atoms: C_19  and  C_24
REMARK    6  A    between atoms: C_24  and  C_26
REMARK                            x       y       z     vdW  Elec       q    Type
REMARK                         _______ _______ _______ _____ _____    ______ ____
ROOT
ATOM      1  O   UNL     1      35.128 -15.242 -22.604  0.00  0.00    -0.275 OA
ATOM      2  N   UNL     1      34.529 -17.356 -21.822  0.00  0.00    -0.269 N 
ATOM      3  C   UNL     1      35.706 -17.998 -22.411  0.00  0.00    +0.156 C 
ATOM      4  C   UNL     1      36.367 -18.997 -21.466  0.00  0.00    +0.055 C 
ATOM      5  C   UNL     1      33.528 -18.219 -21.173  0.00  0.00    +0.120 C 
ATOM      6  C   UNL     1      35.381 -19.919 -20.801  0.00  0.00    -0.022 C 
ATOM      7  C   UNL     1      34.040 -19.536 -20.652  0.00  0.00    -0.006 C 
ATOM      8  C   UNL     1      34.311 -15.991 -22.063  0.00  0.00    +0.224 C 
ATOM      9  C   UNL     1      35.815 -21.148 -20.284  0.00  0.00    -0.004 C 
ATOM     10  C   UNL     1      33.147 -20.405 -20.009  0.00  0.00    -0.003 C 
ATOM     11  C   UNL     1      34.919 -22.001 -19.643  0.00  0.00    -0.000 C 
ATOM     12  C   UNL     1      33.583 -21.631 -19.508  0.00  0.00    -0.000 C 
ENDROOT
BRANCH   3  15
ATOM     13  O   UNL     1      35.226 -19.842 -23.859  0.00  0.00    -0.274 OA
ATOM     14  N   UNL     1      34.924 -17.712 -24.673  0.00  0.00    -0.327 N 
ATOM     15  C   UNL     1      35.261 -18.624 -23.702  0.00  0.00    +0.238 C 
ATOM     16  H   UNL     1      34.620 -18.024 -25.557  0.00  0.00    +0.145 HD
ATOM     17  H   UNL     1      34.987 -16.748 -24.487  0.00  0.00    +0.145 HD
ENDBRANCH   3  15
BRANCH   8  18
ATOM     18  C   UNL     1      32.983 -15.436 -21.612  0.00  0.00    +0.064 C 
BRANCH  18  19
ATOM     19  C   UNL     1      32.998 -13.907 -21.560  0.00  0.00    -0.052 C 
BRANCH  19  20
ATOM     20  N   UNL     1      32.529 -13.514 -20.224  0.00  0.00    +0.382 N 
ATOM     21  H   UNL     1      32.263 -14.347 -19.699  0.00  0.00    -0.089 HD
ATOM     22  H   UNL     1      31.720 -12.898 -20.316  0.00  0.00    -0.089 HD
ATOM     23  H   UNL     1      33.275 -13.024 -19.732  0.00  0.00    -0.089 HD
ENDBRANCH  19  20
BRANCH  19  24
ATOM     24  C   UNL     1      32.081 -13.247 -22.613  0.00  0.00    +0.007 C 
BRANCH  24  26
ATOM     25  F   UNL     1      33.449 -10.848 -23.212  0.00  0.00    -0.205 F 
ATOM     26  C   UNL     1      32.738 -12.990 -23.946  0.00  0.00    +0.003 C 
ATOM     27  C   UNL     1      33.391 -11.788 -24.165  0.00  0.00    +0.136 C 
ATOM     28  C   UNL     1      32.675 -13.965 -24.930  0.00  0.00    -0.002 C 
ATOM     29  C   UNL     1      33.998 -11.554 -25.400  0.00  0.00    +0.029 C 
ATOM     30  C   UNL     1      33.282 -13.731 -26.165  0.00  0.00    -0.000 C 
ATOM     31  C   UNL     1      33.943 -12.526 -26.400  0.00  0.00    +0.002 C 
ENDBRANCH  24  26
ENDBRANCH  19  24
ENDBRANCH  18  19
ENDBRANCH   8  18
TORSDOF 6
ENDMDL
MODEL 4
REMARK VINA RESULT:     -10.2      1.428      1.824
REMARK  Name = 5494385
REMARK  6 active torsions:
REMARK  status: ('A' for Active; 'I' for Inactive)
REMARK    1  A    between atoms: C_3  and  C_15
REMARK    2  A    between atoms: C_8  and  C_18
REMARK    3  A    between atoms: C_18  and  C_19
REMARK    4  A    between atoms: C_19  and  N_20
REMARK    5  A    between atoms: C_19  and  C_24
REMARK    6  A    between atoms: C_24  and  C_26
REMARK                            x       y       z     vdW  Elec       q    Type
REMARK                         _______ _______ _______ _____ _____    ______ ____
ROOT
ATOM      1  O   UNL     1      35.169 -15.279 -23.244  0.00  0.00    -0.275 OA
ATOM      2  N   UNL     1      34.494 -17.284 -22.263  0.00  0.00    -0.269 N 
ATOM      3  C   UNL     1      35.649 -18.021 -22.779  0.00  0.00    +0.156 C 
ATOM      4  C   UNL     1      36.272 -18.945 -21.736  0.00  0.00    +0.055 C 
ATOM      5  C   UNL     1      33.461 -18.045 -21.539  0.00  0.00    +0.120 C 
ATOM      6  C   UNL     1      35.252 -19.763 -20.990  0.00  0.00    -0.022 C 
ATOM      7  C   UNL     1      33.924 -19.321 -20.889  0.00  0.00    -0.006 C 
ATOM      8  C   UNL     1      34.325 -15.943 -22.638  0.00  0.00    +0.224 C 
ATOM      9  C   UNL     1      35.641 -20.949 -20.352  0.00  0.00    -0.004 C 
ATOM     10  C   UNL     1      32.999 -20.091 -20.169  0.00  0.00    -0.003 C 
ATOM     11  C   UNL     1      34.713 -21.704 -19.636  0.00  0.00    -0.000 C 
ATOM     12  C   UNL     1      33.391 -21.277 -19.547  0.00  0.00    -0.000 C 
ENDROOT
BRANCH   3  15
ATOM     13  O   UNL     1      35.223 -19.981 -24.084  0.00  0.00    -0.274 OA
ATOM     14  N   UNL     1      34.748 -17.930 -25.012  0.00  0.00    -0.327 N 
ATOM     15  C   UNL     1      35.187 -18.756 -24.004  0.00  0.00    +0.238 C 
ATOM     16  H   UNL     1      34.425 -18.316 -25.859  0.00  0.00    +0.145 HD
ATOM     17  H   UNL     1      34.758 -16.954 -24.889  0.00  0.00    +0.145 HD
ENDBRANCH   3  15
BRANCH   8  18
ATOM     18  C   UNL     1      33.015 -15.300 -22.253  0.00  0.00    +0.064 C 
BRANCH  18  19
ATOM     19  C   UNL     1      33.229 -14.060 -21.384  0.00  0.00    -0.052 C 
BRANCH  19  20
ATOM     20  N   UNL     1      34.131 -14.446 -20.291  0.00  0.00    +0.382 N 
ATOM     21  H   UNL     1      33.693 -15.178 -19.731  0.00  0.00    -0.089 HD
ATOM     22  H   UNL     1      34.319 -13.634 -19.702  0.00  0.00    -0.089 HD
ATOM     23  H   UNL     1      35.007 -14.793 -20.680  0.00  0.00    -0.089 HD
ENDBRANCH  19  20
BRANCH  19  24
ATOM     24  C   UNL     1      31.924 -13.509 -20.768  0.00  0.00    +0.007 C 
BRANCH  24  26
ATOM     25  F   UNL     1      32.037 -11.805 -23.020  0.00  0.00    -0.205 F 
ATOM     26  C   UNL     1      31.866 -12.005 -20.661  0.00  0.00    +0.003 C 
ATOM     27  C   UNL     1      31.926 -11.236 -21.811  0.00  0.00    +0.136 C 
ATOM     28  C   UNL     1      31.753 -11.420 -19.409  0.00  0.00    -0.002 C 
ATOM     29  C   UNL     1      31.873  -9.845 -21.709  0.00  0.00    +0.029 C 
ATOM     30  C   UNL     1      31.700 -10.029 -19.306  0.00  0.00    -0.000 C 
ATOM     31  C   UNL     1      31.759  -9.242 -20.456  0.00  0.00    +0.002 C 
ENDBRANCH  24  26
ENDBRANCH  19  24
ENDBRANCH  18  19
ENDBRANCH   8  18
TORSDOF 6
ENDMDL
MODEL 5
REMARK VINA RESULT:     -10.1      3.097      8.624
REMARK  Name = 5494385
REMARK  6 active torsions:
REMARK  status: ('A' for Active; 'I' for Inactive)
REMARK    1  A    between atoms: C_3  and  C_15
REMARK    2  A    between atoms: C_8  and  C_18
REMARK    3  A    between atoms: C_18  and  C_19
REMARK    4  A    between atoms: C_19  and  N_20
REMARK    5  A    between atoms: C_19  and  C_24
REMARK    6  A    between atoms: C_24  and  C_26
REMARK                            x       y       z     vdW  Elec       q    Type
REMARK                         _______ _______ _______ _____ _____    ______ ____
ROOT
ATOM      1  O   UNL     1      35.269 -16.530 -20.277  0.00  0.00    -0.275 OA
ATOM      2  N   UNL     1      34.353 -15.893 -22.325  0.00  0.00    -0.269 N 
ATOM      3  C   UNL     1      33.959 -14.573 -21.831  0.00  0.00    +0.156 C 
ATOM      4  C   UNL     1      34.272 -13.456 -22.824  0.00  0.00    +0.055 C 
ATOM      5  C   UNL     1      33.949 -16.265 -23.692  0.00  0.00    +0.120 C 
ATOM      6  C   UNL     1      33.850 -13.783 -24.230  0.00  0.00    -0.022 C 
ATOM      7  C   UNL     1      33.714 -15.118 -24.638  0.00  0.00    -0.006 C 
ATOM      8  C   UNL     1      34.920 -16.809 -21.427  0.00  0.00    +0.224 C 
ATOM      9  C   UNL     1      33.638 -12.749 -25.153  0.00  0.00    -0.004 C 
ATOM     10  C   UNL     1      33.340 -15.395 -25.962  0.00  0.00    -0.003 C 
ATOM     11  C   UNL     1      33.271 -13.037 -26.466  0.00  0.00    -0.000 C 
ATOM     12  C   UNL     1      33.119 -14.361 -26.870  0.00  0.00    -0.000 C 
ENDROOT
BRANCH   3  15
ATOM     13  O   UNL     1      31.978 -15.689 -21.085  0.00  0.00    -0.274 OA
ATOM     14  N   UNL     1      31.819 -13.473 -21.683  0.00  0.00    -0.327 N 
ATOM     15  C   UNL     1      32.499 -14.652 -21.487  0.00  0.00    +0.238 C 
ATOM     16  H   UNL     1      30.855 -13.422 -21.486  0.00  0.00    +0.145 HD
ATOM     17  H   UNL     1      32.295 -12.681 -22.021  0.00  0.00    +0.145 HD
ENDBRANCH   3  15
BRANCH   8  18
ATOM     18  C   UNL     1      35.110 -18.217 -21.937  0.00  0.00    +0.064 C 
BRANCH  18  19
ATOM     19  C   UNL     1      35.785 -19.109 -20.894  0.00  0.00    -0.052 C 
BRANCH  19  20
ATOM     20  N   UNL     1      37.232 -19.043 -21.139  0.00  0.00    +0.382 N 
ATOM     21  H   UNL     1      37.403 -18.621 -22.052  0.00  0.00    -0.089 HD
ATOM     22  H   UNL     1      37.623 -19.986 -21.122  0.00  0.00    -0.089 HD
ATOM     23  H   UNL     1      37.674 -18.479 -20.414  0.00  0.00    -0.089 HD
ENDBRANCH  19  20
BRANCH  19  24
ATOM     24  C   UNL     1      35.344 -20.587 -20.972  0.00  0.00    +0.007 C 
BRANCH  24  26
ATOM     25  F   UNL     1      33.048 -21.922 -20.005  0.00  0.00    -0.205 F 
ATOM     26  C   UNL     1      35.311 -21.304 -19.644  0.00  0.00    +0.003 C 
ATOM     27  C   UNL     1      34.147 -21.936 -19.238  0.00  0.00    +0.136 C 
ATOM     28  C   UNL     1      36.450 -21.316 -18.854  0.00  0.00    -0.002 C 
ATOM     29  C   UNL     1      34.120 -22.598 -18.010  0.00  0.00    +0.029 C 
ATOM     30  C   UNL     1      36.423 -21.977 -17.625  0.00  0.00    -0.000 C 
ATOM     31  C   UNL     1      35.258 -22.618 -17.204  0.00  0.00    +0.002 C 
ENDBRANCH  24  26
ENDBRANCH  19  24
ENDBRANCH  18  19
ENDBRANCH   8  18
TORSDOF 6
ENDMDL
MODEL 6
REMARK VINA RESULT:      -9.9      3.019      8.539
REMARK  Name = 5494385
REMARK  6 active torsions:
REMARK  status: ('A' for Active; 'I' for Inactive)
REMARK    1  A    between atoms: C_3  and  C_15
REMARK    2  A    between atoms: C_8  and  C_18
REMARK    3  A    between atoms: C_18  and  C_19
REMARK    4  A    between atoms: C_19  and  N_20
REMARK    5  A    between atoms: C_19  and  C_24
REMARK    6  A    between atoms: C_24  and  C_26
REMARK                            x       y       z     vdW  Elec       q    Type
REMARK                         _______ _______ _______ _____ _____    ______ ____
ROOT
ATOM      1  O   UNL     1      35.136 -16.106 -20.513  0.00  0.00    -0.275 OA
ATOM      2  N   UNL     1      34.236 -15.511 -22.581  0.00  0.00    -0.269 N 
ATOM      3  C   UNL     1      33.873 -14.167 -22.128  0.00  0.00    +0.156 C 
ATOM      4  C   UNL     1      34.213 -13.089 -23.154  0.00  0.00    +0.055 C 
ATOM      5  C   UNL     1      33.823 -15.915 -23.936  0.00  0.00    +0.120 C 
ATOM      6  C   UNL     1      33.783 -13.450 -24.551  0.00  0.00    -0.022 C 
ATOM      7  C   UNL     1      33.615 -14.793 -24.918  0.00  0.00    -0.006 C 
ATOM      8  C   UNL     1      34.781 -16.412 -21.654  0.00  0.00    +0.224 C 
ATOM      9  C   UNL     1      33.596 -12.439 -25.505  0.00  0.00    -0.004 C 
ATOM     10  C   UNL     1      33.235 -15.102 -26.232  0.00  0.00    -0.003 C 
ATOM     11  C   UNL     1      33.222 -12.759 -26.809  0.00  0.00    -0.000 C 
ATOM     12  C   UNL     1      33.039 -14.090 -27.172  0.00  0.00    -0.000 C 
ENDROOT
BRANCH   3  15
ATOM     13  O   UNL     1      31.874 -15.200 -21.314  0.00  0.00    -0.274 OA
ATOM     14  N   UNL     1      31.750 -13.027 -22.059  0.00  0.00    -0.327 N 
ATOM     15  C   UNL     1      32.412 -14.200 -21.783  0.00  0.00    +0.238 C 
ATOM     16  H   UNL     1      30.787 -12.949 -21.868  0.00  0.00    +0.145 HD
ATOM     17  H   UNL     1      32.238 -12.266 -22.448  0.00  0.00    +0.145 HD
ENDBRANCH   3  15
BRANCH   8  18
ATOM     18  C   UNL     1      34.936 -17.839 -22.120  0.00  0.00    +0.064 C 
BRANCH  18  19
ATOM     19  C   UNL     1      35.231 -18.785 -20.955  0.00  0.00    -0.052 C 
BRANCH  19  20
ATOM     20  N   UNL     1      36.666 -18.674 -20.660  0.00  0.00    +0.382 N 
ATOM     21  H   UNL     1      36.988 -19.532 -20.211  0.00  0.00    -0.089 HD
ATOM     22  H   UNL     1      36.824 -17.883 -20.034  0.00  0.00    -0.089 HD
ATOM     23  H   UNL     1      37.182 -18.529 -21.527  0.00  0.00    -0.089 HD
ENDBRANCH  19  20
BRANCH  19  24
ATOM     24  C   UNL     1      34.911 -20.263 -21.267  0.00  0.00    +0.007 C 
BRANCH  24  26
ATOM     25  F   UNL     1      36.883 -21.510 -19.671  0.00  0.00    -0.205 F 
ATOM     26  C   UNL     1      34.576 -21.102 -20.058  0.00  0.00    +0.003 C 
ATOM     27  C   UNL     1      35.599 -21.681 -19.325  0.00  0.00    +0.136 C 
ATOM     28  C   UNL     1      33.248 -21.278 -19.703  0.00  0.00    -0.002 C 
ATOM     29  C   UNL     1      35.287 -22.457 -18.207  0.00  0.00    +0.029 C 
ATOM     30  C   UNL     1      32.935 -22.054 -18.586  0.00  0.00    -0.000 C 
ATOM     31  C   UNL     1      33.954 -22.642 -17.838  0.00  0.00    +0.002 C 
ENDBRANCH  24  26
ENDBRANCH  19  24
ENDBRANCH  18  19
ENDBRANCH   8  18
TORSDOF 6
ENDMDL
MODEL 7
REMARK VINA RESULT:      -9.9      3.086      8.844
REMARK  Name = 5494385
REMARK  6 active torsions:
REMARK  status: ('A' for Active; 'I' for Inactive)
REMARK    1  A    between atoms: C_3  and  C_15
REMARK    2  A    between atoms: C_8  and  C_18
REMARK    3  A    between atoms: C_18  and  C_19
REMARK    4  A    between atoms: C_19  and  N_20
REMARK    5  A    between atoms: C_19  and  C_24
REMARK    6  A    between atoms: C_24  and  C_26
REMARK                            x       y       z     vdW  Elec       q    Type
REMARK                         _______ _______ _______ _____ _____    ______ ____
ROOT
ATOM      1  O   UNL     1      32.185 -12.955 -23.682  0.00  0.00    -0.275 OA
ATOM      2  N   UNL     1      32.382 -10.908 -22.582  0.00  0.00    -0.269 N 
ATOM      3  C   UNL     1      32.615 -10.170 -23.825  0.00  0.00    +0.156 C 
ATOM      4  C   UNL     1      31.833  -8.861 -23.888  0.00  0.00    +0.055 C 
ATOM      5  C   UNL     1      32.479 -10.166 -21.314  0.00  0.00    +0.120 C 
ATOM      6  C   UNL     1      31.928  -8.057 -22.619  0.00  0.00    -0.022 C 
ATOM      7  C   UNL     1      32.220  -8.686 -21.400  0.00  0.00    -0.006 C 
ATOM      8  C   UNL     1      32.268 -12.305 -22.637  0.00  0.00    +0.224 C 
ATOM      9  C   UNL     1      31.675  -6.678 -22.648  0.00  0.00    -0.004 C 
ATOM     10  C   UNL     1      32.281  -7.916 -20.230  0.00  0.00    -0.003 C 
ATOM     11  C   UNL     1      31.735  -5.924 -21.477  0.00  0.00    -0.000 C 
ATOM     12  C   UNL     1      32.041  -6.543 -20.268  0.00  0.00    -0.000 C 
ENDROOT
BRANCH   3  15
ATOM     13  O   UNL     1      34.637  -8.901 -23.650  0.00  0.00    -0.274 OA
ATOM     14  N   UNL     1      34.773 -11.067 -24.415  0.00  0.00    -0.327 N 
ATOM     15  C   UNL     1      34.099  -9.967 -23.941  0.00  0.00    +0.238 C 
ATOM     16  H   UNL     1      35.751 -11.034 -24.527  0.00  0.00    +0.145 HD
ATOM     17  H   UNL     1      34.279 -11.887 -24.642  0.00  0.00    +0.145 HD
ENDBRANCH   3  15
BRANCH   8  18
ATOM     18  C   UNL     1      32.241 -13.027 -21.312  0.00  0.00    +0.064 C 
BRANCH  18  19
ATOM     19  C   UNL     1      32.713 -14.476 -21.448  0.00  0.00    -0.052 C 
BRANCH  19  20
ATOM     20  N   UNL     1      32.476 -15.132 -20.155  0.00  0.00    +0.382 N 
ATOM     21  H   UNL     1      31.474 -15.167 -19.970  0.00  0.00    -0.089 HD
ATOM     22  H   UNL     1      32.940 -14.602 -19.415  0.00  0.00    -0.089 HD
ATOM     23  H   UNL     1      32.852 -16.079 -20.180  0.00  0.00    -0.089 HD
ENDBRANCH  19  20
BRANCH  19  24
ATOM     24  C   UNL     1      34.212 -14.604 -21.793  0.00  0.00    +0.007 C 
BRANCH  24  26
ATOM     25  F   UNL     1      35.150 -16.944 -20.515  0.00  0.00    -0.205 F 
ATOM     26  C   UNL     1      34.579 -15.858 -22.547  0.00  0.00    +0.003 C 
ATOM     27  C   UNL     1      35.031 -16.967 -21.850  0.00  0.00    +0.136 C 
ATOM     28  C   UNL     1      34.456 -15.877 -23.928  0.00  0.00    -0.002 C 
ATOM     29  C   UNL     1      35.370 -18.125 -22.551  0.00  0.00    +0.029 C 
ATOM     30  C   UNL     1      34.794 -17.035 -24.629  0.00  0.00    -0.000 C 
ATOM     31  C   UNL     1      35.251 -18.159 -23.941  0.00  0.00    +0.002 C 
ENDBRANCH  24  26
ENDBRANCH  19  24
ENDBRANCH  18  19
ENDBRANCH   8  18
TORSDOF 6
ENDMDL
MODEL 8
REMARK VINA RESULT:      -9.5      5.911      9.259
REMARK  Name = 5494385
REMARK  6 active torsions:
REMARK  status: ('A' for Active; 'I' for Inactive)
REMARK    1  A    between atoms: C_3  and  C_15
REMARK    2  A    between atoms: C_8  and  C_18
REMARK    3  A    between atoms: C_18  and  C_19
REMARK    4  A    between atoms: C_19  and  N_20
REMARK    5  A    between atoms: C_19  and  C_24
REMARK    6  A    between atoms: C_24  and  C_26
REMARK                            x       y       z     vdW  Elec       q    Type
REMARK                         _______ _______ _______ _____ _____    ______ ____
ROOT
ATOM      1  O   UNL     1      37.002 -22.089 -15.958  0.00  0.00    -0.275 OA
ATOM      2  N   UNL     1      34.908 -23.096 -15.753  0.00  0.00    -0.269 N 
ATOM      3  C   UNL     1      35.236 -23.703 -14.461  0.00  0.00    +0.156 C 
ATOM      4  C   UNL     1      34.101 -23.579 -13.448  0.00  0.00    +0.055 C 
ATOM      5  C   UNL     1      33.610 -23.432 -16.361  0.00  0.00    +0.120 C 
ATOM      6  C   UNL     1      32.758 -23.940 -14.021  0.00  0.00    -0.022 C 
ATOM      7  C   UNL     1      32.528 -23.853 -15.402  0.00  0.00    -0.006 C 
ATOM      8  C   UNL     1      35.905 -22.386 -16.438  0.00  0.00    +0.224 C 
ATOM      9  C   UNL     1      31.714 -24.319 -13.165  0.00  0.00    -0.004 C 
ATOM     10  C   UNL     1      31.260 -24.174 -15.907  0.00  0.00    -0.003 C 
ATOM     11  C   UNL     1      30.457 -24.632 -13.678  0.00  0.00    -0.000 C 
ATOM     12  C   UNL     1      30.230 -24.563 -15.050  0.00  0.00    -0.000 C 
ENDROOT
BRANCH   3  15
ATOM     13  O   UNL     1      35.534 -25.627 -15.853  0.00  0.00    -0.274 OA
ATOM     14  N   UNL     1      36.043 -25.812 -13.617  0.00  0.00    -0.327 N 
ATOM     15  C   UNL     1      35.618 -25.130 -14.733  0.00  0.00    +0.238 C 
ATOM     16  H   UNL     1      36.316 -26.755 -13.691  0.00  0.00    +0.145 HD
ATOM     17  H   UNL     1      36.074 -25.358 -12.745  0.00  0.00    +0.145 HD
ENDBRANCH   3  15
BRANCH   8  18
ATOM     18  C   UNL     1      35.577 -21.966 -17.850  0.00  0.00    +0.064 C 
BRANCH  18  19
ATOM     19  C   UNL     1      36.832 -21.552 -18.622  0.00  0.00    -0.052 C 
BRANCH  19  20
ATOM     20  N   UNL     1      37.242 -20.238 -18.108  0.00  0.00    +0.382 N 
ATOM     21  H   UNL     1      37.496 -19.632 -18.888  0.00  0.00    -0.089 HD
ATOM     22  H   UNL     1      38.047 -20.351 -17.490  0.00  0.00    -0.089 HD
ATOM     23  H   UNL     1      36.471 -19.820 -17.588  0.00  0.00    -0.089 HD
ENDBRANCH  19  20
BRANCH  19  24
ATOM     24  C   UNL     1      36.604 -21.431 -20.144  0.00  0.00    +0.007 C 
BRANCH  24  26
ATOM     25  F   UNL     1      37.686 -19.007 -21.114  0.00  0.00    -0.205 F 
ATOM     26  C   UNL     1      35.748 -20.261 -20.560  0.00  0.00    +0.003 C 
ATOM     27  C   UNL     1      36.352 -19.104 -21.027  0.00  0.00    +0.136 C 
ATOM     28  C   UNL     1      34.368 -20.365 -20.467  0.00  0.00    -0.002 C 
ATOM     29  C   UNL     1      35.557 -18.023 -21.411  0.00  0.00    +0.029 C 
ATOM     30  C   UNL     1      33.573 -19.284 -20.851  0.00  0.00    -0.000 C 
ATOM     31  C   UNL     1      34.167 -18.114 -21.323  0.00  0.00    +0.002 C 
ENDBRANCH  24  26
ENDBRANCH  19  24
ENDBRANCH  18  19
ENDBRANCH   8  18
TORSDOF 6
ENDMDL
MODEL 9
REMARK VINA RESULT:      -9.3      5.065      8.006
REMARK  Name = 5494385
REMARK  6 active torsions:
REMARK  status: ('A' for Active; 'I' for Inactive)
REMARK    1  A    between atoms: C_3  and  C_15
REMARK    2  A    between atoms: C_8  and  C_18
REMARK    3  A    between atoms: C_18  and  C_19
REMARK    4  A    between atoms: C_19  and  N_20
REMARK    5  A    between atoms: C_19  and  C_24
REMARK    6  A    between atoms: C_24  and  C_26
REMARK                            x       y       z     vdW  Elec       q    Type
REMARK                         _______ _______ _______ _____ _____    ______ ____
ROOT
ATOM      1  O   UNL     1      36.645 -21.671 -17.923  0.00  0.00    -0.275 OA
ATOM      2  N   UNL     1      34.748 -22.699 -17.037  0.00  0.00    -0.269 N 
ATOM      3  C   UNL     1      35.378 -22.924 -15.734  0.00  0.00    +0.156 C 
ATOM      4  C   UNL     1      34.451 -22.596 -14.567  0.00  0.00    +0.055 C 
ATOM      5  C   UNL     1      33.401 -23.253 -17.253  0.00  0.00    +0.120 C 
ATOM      6  C   UNL     1      33.069 -23.168 -14.735  0.00  0.00    -0.022 C 
ATOM      7  C   UNL     1      32.573 -23.462 -16.014  0.00  0.00    -0.006 C 
ATOM      8  C   UNL     1      35.515 -22.143 -18.071  0.00  0.00    +0.224 C 
ATOM      9  C   UNL     1      32.254 -23.362 -13.611  0.00  0.00    -0.004 C 
ATOM     10  C   UNL     1      31.273 -23.973 -16.143  0.00  0.00    -0.003 C 
ATOM     11  C   UNL     1      30.962 -23.867 -13.753  0.00  0.00    -0.000 C 
ATOM     12  C   UNL     1      30.473 -24.176 -15.019  0.00  0.00    -0.000 C 
ENDROOT
BRANCH   3  15
ATOM     13  O   UNL     1      35.103 -25.289 -15.970  0.00  0.00    -0.274 OA
ATOM     14  N   UNL     1      37.177 -24.489 -15.379  0.00  0.00    -0.327 N 
ATOM     15  C   UNL     1      35.852 -24.349 -15.718  0.00  0.00    +0.238 C 
ATOM     16  H   UNL     1      37.583 -25.385 -15.339  0.00  0.00    +0.145 HD
ATOM     17  H   UNL     1      37.719 -23.693 -15.175  0.00  0.00    +0.145 HD
ENDBRANCH   3  15
BRANCH   8  18
ATOM     18  C   UNL     1      34.882 -22.131 -19.441  0.00  0.00    +0.064 C 
BRANCH  18  19
ATOM     19  C   UNL     1      34.647 -20.705 -19.942  0.00  0.00    -0.052 C 
BRANCH  19  20
ATOM     20  N   UNL     1      33.262 -20.640 -20.429  0.00  0.00    +0.382 N 
ATOM     21  H   UNL     1      33.121 -19.766 -20.937  0.00  0.00    -0.089 HD
ATOM     22  H   UNL     1      32.621 -20.679 -19.636  0.00  0.00    -0.089 HD
ATOM     23  H   UNL     1      33.083 -21.428 -21.051  0.00  0.00    -0.089 HD
ENDBRANCH  19  20
BRANCH  19  24
ATOM     24  C   UNL     1      35.589 -20.296 -21.095  0.00  0.00    +0.007 C 
BRANCH  24  26
ATOM     25  F   UNL     1      35.029 -19.962 -23.846  0.00  0.00    -0.205 F 
ATOM     26  C   UNL     1      35.281 -18.953 -21.712  0.00  0.00    +0.003 C 
ATOM     27  C   UNL     1      35.016 -18.870 -23.069  0.00  0.00    +0.136 C 
ATOM     28  C   UNL     1      35.270 -17.825 -20.905  0.00  0.00    -0.002 C 
ATOM     29  C   UNL     1      34.733 -17.626 -23.636  0.00  0.00    +0.029 C 
ATOM     30  C   UNL     1      34.986 -16.582 -21.472  0.00  0.00    -0.000 C 
ATOM     31  C   UNL     1      34.717 -16.483 -22.836  0.00  0.00    +0.002 C 
ENDBRANCH  24  26
ENDBRANCH  19  24
ENDBRANCH  18  19
ENDBRANCH   8  18
TORSDOF 6
ENDMDL
