MODEL 1
REMARK VINA RESULT:      -9.2      0.000      0.000
REMARK  Name = 24768528
REMARK  10 active torsions:
REMARK  status: ('A' for Active; 'I' for Inactive)
REMARK    1  A    between atoms: C_3  and  C_11
REMARK    2  A    between atoms: C_3  and  C_20
REMARK    3  A    between atoms: C_8  and  O_15
REMARK    4  A    between atoms: N_10  and  O_13
REMARK    5  A    between atoms: O_15  and  C_16
REMARK    6  A    between atoms: C_20  and  S_21
REMARK    7  A    between atoms: S_21  and  C_24
REMARK    8  A    between atoms: C_29  and  N_30
REMARK    9  A    between atoms: N_30  and  C_32
REMARK   10  A    between atoms: C_32  and  C_33
REMARK                            x       y       z     vdW  Elec       q    Type
REMARK                         _______ _______ _______ _____ _____    ______ ____
ROOT
ATOM      1  O   UNL     1      34.867 -23.531 -11.741  0.00  0.00    -0.226 OA
ATOM      2  N   UNL     1      33.713 -24.230 -13.633  0.00  0.00    -0.246 N 
ATOM      3  C   UNL     1      32.302 -23.354 -16.036  0.00  0.00    +0.096 C 
ATOM      4  C   UNL     1      33.403 -24.434 -16.070  0.00  0.00    +0.032 C 
ATOM      5  C   UNL     1      32.502 -22.438 -14.812  0.00  0.00    +0.032 C 
ATOM      6  C   UNL     1      33.550 -25.175 -14.741  0.00  0.00    +0.097 C 
ATOM      7  C   UNL     1      32.665 -23.219 -13.509  0.00  0.00    +0.097 C 
ATOM      8  C   UNL     1      34.752 -24.291 -12.700  0.00  0.00    +0.405 C 
ENDROOT
BRANCH   3  11
ATOM      9  O   UNL     1      30.678 -25.067 -15.526  0.00  0.00    -0.273 OA
ATOM     10  N   UNL     1      29.973 -23.195 -16.686  0.00  0.00    -0.197 N 
ATOM     11  C   UNL     1      30.902 -23.978 -16.052  0.00  0.00    +0.245 C 
ATOM     12  H   UNL     1      30.207 -22.329 -17.092  0.00  0.00    +0.182 HD
BRANCH  10  13
ATOM     13  O   UNL     1      28.668 -23.706 -16.724  0.00  0.00    -0.295 OA
ATOM     14  H   UNL     1      28.559 -24.363 -16.018  0.00  0.00    +0.241 HD
ENDBRANCH  10  13
ENDBRANCH   3  11
BRANCH   8  15
ATOM     15  O   UNL     1      35.643 -25.298 -12.965  0.00  0.00    -0.442 OA
BRANCH  15  16
ATOM     16  C   UNL     1      36.906 -24.896 -13.509  0.00  0.00    +0.138 C 
ATOM     17  C   UNL     1      36.768 -23.481 -14.068  0.00  0.00    +0.044 C 
ATOM     18  C   UNL     1      37.263 -25.880 -14.620  0.00  0.00    +0.044 C 
ATOM     19  C   UNL     1      37.951 -24.942 -12.394  0.00  0.00    +0.044 C 
ENDBRANCH  15  16
ENDBRANCH   8  15
BRANCH   3  20
ATOM     20  C   UNL     1      32.420 -22.516 -17.284  0.00  0.00    +0.165 C 
BRANCH  20  21
ATOM     21  S   UNL     1      33.896 -22.895 -18.155  0.00  0.00    +0.009 S 
ATOM     22  O   UNL     1      33.692 -24.109 -18.932  0.00  0.00    -0.169 OA
ATOM     23  O   UNL     1      35.009 -22.813 -17.218  0.00  0.00    -0.169 OA
BRANCH  21  24
ATOM     24  C   UNL     1      34.072 -21.570 -19.316  0.00  0.00    +0.106 C 
ATOM     25  C   UNL     1      32.943 -20.901 -19.788  0.00  0.00    +0.020 C 
ATOM     26  C   UNL     1      35.341 -21.196 -19.760  0.00  0.00    +0.020 C 
ATOM     27  C   UNL     1      33.082 -19.859 -20.703  0.00  0.00    +0.016 C 
ATOM     28  C   UNL     1      35.480 -20.154 -20.675  0.00  0.00    +0.016 C 
ATOM     29  C   UNL     1      34.350 -19.485 -21.147  0.00  0.00    +0.045 C 
BRANCH  29  30
ATOM     30  N   UNL     1      34.491 -18.431 -22.073  0.00  0.00    -0.322 N 
ATOM     31  H   UNL     1      34.067 -18.521 -22.958  0.00  0.00    +0.148 HD
BRANCH  30  32
ATOM     32  C   UNL     1      35.222 -17.236 -21.785  0.00  0.00    +0.165 C 
BRANCH  32  33
ATOM     33  C   UNL     1      34.318 -16.185 -21.313  0.00  0.00    -0.069 C 
ATOM     34  C   UNL     1      33.576 -15.323 -20.927  0.00  0.00    -0.088 C 
ATOM     35  C   UNL     1      32.672 -14.274 -20.457  0.00  0.00    +0.090 C 
ENDBRANCH  32  33
ENDBRANCH  30  32
ENDBRANCH  29  30
ENDBRANCH  21  24
ENDBRANCH  20  21
ENDBRANCH   3  20
TORSDOF 10
ENDMDL
MODEL 2
REMARK VINA RESULT:      -8.9      1.366      1.854
REMARK  Name = 24768528
REMARK  10 active torsions:
REMARK  status: ('A' for Active; 'I' for Inactive)
REMARK    1  A    between atoms: C_3  and  C_11
REMARK    2  A    between atoms: C_3  and  C_20
REMARK    3  A    between atoms: C_8  and  O_15
REMARK    4  A    between atoms: N_10  and  O_13
REMARK    5  A    between atoms: O_15  and  C_16
REMARK    6  A    between atoms: C_20  and  S_21
REMARK    7  A    between atoms: S_21  and  C_24
REMARK    8  A    between atoms: C_29  and  N_30
REMARK    9  A    between atoms: N_30  and  C_32
REMARK   10  A    between atoms: C_32  and  C_33
REMARK                            x       y       z     vdW  Elec       q    Type
REMARK                         _______ _______ _______ _____ _____    ______ ____
ROOT
ATOM      1  O   UNL     1      35.298 -23.514 -11.942  0.00  0.00    -0.226 OA
ATOM      2  N   UNL     1      33.995 -24.220 -13.733  0.00  0.00    -0.246 N 
ATOM      3  C   UNL     1      32.446 -23.354 -16.053  0.00  0.00    +0.096 C 
ATOM      4  C   UNL     1      33.511 -24.466 -16.138  0.00  0.00    +0.032 C 
ATOM      5  C   UNL     1      32.756 -22.418 -14.867  0.00  0.00    +0.032 C 
ATOM      6  C   UNL     1      33.729 -25.183 -14.805  0.00  0.00    +0.097 C 
ATOM      7  C   UNL     1      32.988 -23.175 -13.561  0.00  0.00    +0.097 C 
ATOM      8  C   UNL     1      35.095 -24.290 -12.873  0.00  0.00    +0.405 C 
ENDROOT
BRANCH   3  11
ATOM      9  O   UNL     1      30.790 -24.929 -15.274  0.00  0.00    -0.273 OA
ATOM     10  N   UNL     1      30.110 -23.231 -16.689  0.00  0.00    -0.197 N 
ATOM     11  C   UNL     1      31.031 -23.936 -15.958  0.00  0.00    +0.245 C 
ATOM     12  H   UNL     1      30.359 -22.441 -17.221  0.00  0.00    +0.182 HD
BRANCH  10  13
ATOM     13  O   UNL     1      28.794 -23.708 -16.633  0.00  0.00    -0.295 OA
ATOM     14  H   UNL     1      28.413 -23.504 -15.764  0.00  0.00    +0.241 HD
ENDBRANCH  10  13
ENDBRANCH   3  11
BRANCH   8  15
ATOM     15  O   UNL     1      35.937 -25.329 -13.176  0.00  0.00    -0.442 OA
BRANCH  15  16
ATOM     16  C   UNL     1      37.209 -24.970 -13.728  0.00  0.00    +0.138 C 
ATOM     17  C   UNL     1      37.651 -26.072 -14.689  0.00  0.00    +0.044 C 
ATOM     18  C   UNL     1      38.194 -24.841 -12.569  0.00  0.00    +0.044 C 
ATOM     19  C   UNL     1      37.061 -23.636 -14.460  0.00  0.00    +0.044 C 
ENDBRANCH  15  16
ENDBRANCH   8  15
BRANCH   3  20
ATOM     20  C   UNL     1      32.500 -22.546 -17.325  0.00  0.00    +0.165 C 
BRANCH  20  21
ATOM     21  S   UNL     1      33.968 -22.891 -18.223  0.00  0.00    +0.009 S 
ATOM     22  O   UNL     1      33.766 -24.089 -19.026  0.00  0.00    -0.169 OA
ATOM     23  O   UNL     1      35.092 -22.820 -17.299  0.00  0.00    -0.169 OA
BRANCH  21  24
ATOM     24  C   UNL     1      34.117 -21.538 -19.355  0.00  0.00    +0.106 C 
ATOM     25  C   UNL     1      35.379 -21.114 -19.773  0.00  0.00    +0.020 C 
ATOM     26  C   UNL     1      32.973 -20.896 -19.828  0.00  0.00    +0.020 C 
ATOM     27  C   UNL     1      35.497 -20.048 -20.665  0.00  0.00    +0.016 C 
ATOM     28  C   UNL     1      33.091 -19.830 -20.720  0.00  0.00    +0.016 C 
ATOM     29  C   UNL     1      34.352 -19.406 -21.138  0.00  0.00    +0.045 C 
BRANCH  29  30
ATOM     30  N   UNL     1      34.471 -18.327 -22.039  0.00  0.00    -0.322 N 
ATOM     31  H   UNL     1      34.118 -17.448 -21.770  0.00  0.00    +0.148 HD
BRANCH  30  32
ATOM     32  C   UNL     1      35.081 -18.454 -23.326  0.00  0.00    +0.165 C 
BRANCH  32  33
ATOM     33  C   UNL     1      34.570 -17.427 -24.237  0.00  0.00    -0.069 C 
ATOM     34  C   UNL     1      34.151 -16.586 -24.985  0.00  0.00    -0.088 C 
ATOM     35  C   UNL     1      33.641 -15.561 -25.895  0.00  0.00    +0.090 C 
ENDBRANCH  32  33
ENDBRANCH  30  32
ENDBRANCH  29  30
ENDBRANCH  21  24
ENDBRANCH  20  21
ENDBRANCH   3  20
TORSDOF 10
ENDMDL
MODEL 3
REMARK VINA RESULT:      -8.2      1.715      4.834
REMARK  Name = 24768528
REMARK  10 active torsions:
REMARK  status: ('A' for Active; 'I' for Inactive)
REMARK    1  A    between atoms: C_3  and  C_11
REMARK    2  A    between atoms: C_3  and  C_20
REMARK    3  A    between atoms: C_8  and  O_15
REMARK    4  A    between atoms: N_10  and  O_13
REMARK    5  A    between atoms: O_15  and  C_16
REMARK    6  A    between atoms: C_20  and  S_21
REMARK    7  A    between atoms: S_21  and  C_24
REMARK    8  A    between atoms: C_29  and  N_30
REMARK    9  A    between atoms: N_30  and  C_32
REMARK   10  A    between atoms: C_32  and  C_33
REMARK                            x       y       z     vdW  Elec       q    Type
REMARK                         _______ _______ _______ _____ _____    ______ ____
ROOT
ATOM      1  O   UNL     1      29.358 -25.664 -14.785  0.00  0.00    -0.226 OA
ATOM      2  N   UNL     1      31.101 -24.142 -14.561  0.00  0.00    -0.246 N 
ATOM      3  C   UNL     1      33.789 -23.433 -15.458  0.00  0.00    +0.096 C 
ATOM      4  C   UNL     1      32.633 -22.412 -15.419  0.00  0.00    +0.032 C 
ATOM      5  C   UNL     1      33.224 -24.862 -15.582  0.00  0.00    +0.032 C 
ATOM      6  C   UNL     1      31.564 -22.763 -14.384  0.00  0.00    +0.097 C 
ATOM      7  C   UNL     1      32.145 -25.164 -14.544  0.00  0.00    +0.097 C 
ATOM      8  C   UNL     1      29.757 -24.505 -14.685  0.00  0.00    +0.405 C 
ENDROOT
BRANCH   3  11
ATOM      9  O   UNL     1      35.852 -22.864 -14.340  0.00  0.00    -0.273 OA
ATOM     10  N   UNL     1      34.101 -23.676 -13.066  0.00  0.00    -0.197 N 
ATOM     11  C   UNL     1      34.705 -23.292 -14.236  0.00  0.00    +0.245 C 
ATOM     12  H   UNL     1      33.177 -24.013 -13.041  0.00  0.00    +0.182 HD
BRANCH  10  13
ATOM     13  O   UNL     1      34.884 -23.559 -11.910  0.00  0.00    -0.295 OA
ATOM     14  H   UNL     1      34.878 -22.638 -11.607  0.00  0.00    +0.241 HD
ENDBRANCH  10  13
ENDBRANCH   3  11
BRANCH   8  15
ATOM     15  O   UNL     1      28.914 -23.424 -14.681  0.00  0.00    -0.442 OA
BRANCH  15  16
ATOM     16  C   UNL     1      28.312 -23.090 -15.937  0.00  0.00    +0.138 C 
ATOM     17  C   UNL     1      28.072 -24.379 -16.721  0.00  0.00    +0.044 C 
ATOM     18  C   UNL     1      29.282 -22.179 -16.685  0.00  0.00    +0.044 C 
ATOM     19  C   UNL     1      26.994 -22.364 -15.666  0.00  0.00    +0.044 C 
ENDBRANCH  15  16
ENDBRANCH   8  15
BRANCH   3  20
ATOM     20  C   UNL     1      34.636 -23.147 -16.671  0.00  0.00    +0.165 C 
BRANCH  20  21
ATOM     21  S   UNL     1      33.646 -23.070 -18.120  0.00  0.00    +0.009 S 
ATOM     22  O   UNL     1      32.327 -22.561 -17.769  0.00  0.00    -0.169 OA
ATOM     23  O   UNL     1      33.768 -24.342 -18.820  0.00  0.00    -0.169 OA
BRANCH  21  24
ATOM     24  C   UNL     1      34.423 -21.831 -19.116  0.00  0.00    +0.106 C 
ATOM     25  C   UNL     1      35.814 -21.716 -19.129  0.00  0.00    +0.020 C 
ATOM     26  C   UNL     1      33.645 -20.968 -19.888  0.00  0.00    +0.020 C 
ATOM     27  C   UNL     1      36.425 -20.739 -19.913  0.00  0.00    +0.016 C 
ATOM     28  C   UNL     1      34.256 -19.991 -20.672  0.00  0.00    +0.016 C 
ATOM     29  C   UNL     1      35.647 -19.876 -20.685  0.00  0.00    +0.045 C 
BRANCH  29  30
ATOM     30  N   UNL     1      36.265 -18.887 -21.478  0.00  0.00    -0.322 N 
ATOM     31  H   UNL     1      37.224 -18.707 -21.343  0.00  0.00    +0.148 HD
BRANCH  30  32
ATOM     32  C   UNL     1      35.561 -18.133 -22.469  0.00  0.00    +0.165 C 
BRANCH  32  33
ATOM     33  C   UNL     1      35.012 -16.907 -21.884  0.00  0.00    -0.069 C 
ATOM     34  C   UNL     1      34.564 -15.902 -21.403  0.00  0.00    -0.088 C 
ATOM     35  C   UNL     1      34.017 -14.678 -20.819  0.00  0.00    +0.090 C 
ENDBRANCH  32  33
ENDBRANCH  30  32
ENDBRANCH  29  30
ENDBRANCH  21  24
ENDBRANCH  20  21
ENDBRANCH   3  20
TORSDOF 10
ENDMDL
MODEL 4
REMARK VINA RESULT:      -8.2      2.361      5.254
REMARK  Name = 24768528
REMARK  10 active torsions:
REMARK  status: ('A' for Active; 'I' for Inactive)
REMARK    1  A    between atoms: C_3  and  C_11
REMARK    2  A    between atoms: C_3  and  C_20
REMARK    3  A    between atoms: C_8  and  O_15
REMARK    4  A    between atoms: N_10  and  O_13
REMARK    5  A    between atoms: O_15  and  C_16
REMARK    6  A    between atoms: C_20  and  S_21
REMARK    7  A    between atoms: S_21  and  C_24
REMARK    8  A    between atoms: C_29  and  N_30
REMARK    9  A    between atoms: N_30  and  C_32
REMARK   10  A    between atoms: C_32  and  C_33
REMARK                            x       y       z     vdW  Elec       q    Type
REMARK                         _______ _______ _______ _____ _____    ______ ____
ROOT
ATOM      1  O   UNL     1      30.304 -25.802 -15.991  0.00  0.00    -0.226 OA
ATOM      2  N   UNL     1      31.632 -24.654 -14.466  0.00  0.00    -0.246 N 
ATOM      3  C   UNL     1      34.271 -23.496 -13.986  0.00  0.00    +0.096 C 
ATOM      4  C   UNL     1      32.965 -22.714 -13.734  0.00  0.00    +0.032 C 
ATOM      5  C   UNL     1      34.028 -24.599 -15.036  0.00  0.00    +0.032 C 
ATOM      6  C   UNL     1      31.775 -23.625 -13.433  0.00  0.00    +0.097 C 
ATOM      7  C   UNL     1      32.818 -25.473 -14.708  0.00  0.00    +0.097 C 
ATOM      8  C   UNL     1      30.444 -24.908 -15.158  0.00  0.00    +0.405 C 
ENDROOT
BRANCH   3  11
ATOM      9  O   UNL     1      34.568 -23.581 -11.592  0.00  0.00    -0.273 OA
ATOM     10  N   UNL     1      35.650 -25.160 -12.889  0.00  0.00    -0.197 N 
ATOM     11  C   UNL     1      34.842 -24.072 -12.685  0.00  0.00    +0.245 C 
ATOM     12  H   UNL     1      35.836 -25.512 -13.790  0.00  0.00    +0.182 HD
BRANCH  10  13
ATOM     13  O   UNL     1      36.195 -25.739 -11.735  0.00  0.00    -0.295 OA
ATOM     14  H   UNL     1      37.163 -25.722 -11.792  0.00  0.00    +0.241 HD
ENDBRANCH  10  13
ENDBRANCH   3  11
BRANCH   8  15
ATOM     15  O   UNL     1      29.435 -24.050 -14.808  0.00  0.00    -0.442 OA
BRANCH  15  16
ATOM     16  C   UNL     1      28.967 -23.171 -15.838  0.00  0.00    +0.138 C 
ATOM     17  C   UNL     1      30.177 -22.540 -16.525  0.00  0.00    +0.044 C 
ATOM     18  C   UNL     1      28.108 -22.099 -15.174  0.00  0.00    +0.044 C 
ATOM     19  C   UNL     1      28.140 -23.986 -16.832  0.00  0.00    +0.044 C 
ENDBRANCH  15  16
ENDBRANCH   8  15
BRANCH   3  20
ATOM     20  C   UNL     1      35.301 -22.539 -14.529  0.00  0.00    +0.165 C 
BRANCH  20  21
ATOM     21  S   UNL     1      36.298 -23.318 -15.746  0.00  0.00    +0.009 S 
ATOM     22  O   UNL     1      35.885 -24.708 -15.883  0.00  0.00    -0.169 OA
ATOM     23  O   UNL     1      37.691 -23.003 -15.460  0.00  0.00    -0.169 OA
BRANCH  21  24
ATOM     24  C   UNL     1      35.862 -22.506 -17.257  0.00  0.00    +0.106 C 
ATOM     25  C   UNL     1      36.807 -21.732 -17.931  0.00  0.00    +0.020 C 
ATOM     26  C   UNL     1      34.573 -22.638 -17.772  0.00  0.00    +0.020 C 
ATOM     27  C   UNL     1      36.463 -21.091 -19.120  0.00  0.00    +0.016 C 
ATOM     28  C   UNL     1      34.229 -21.997 -18.962  0.00  0.00    +0.016 C 
ATOM     29  C   UNL     1      35.174 -21.223 -19.636  0.00  0.00    +0.045 C 
BRANCH  29  30
ATOM     30  N   UNL     1      34.826 -20.575 -20.839  0.00  0.00    -0.322 N 
ATOM     31  H   UNL     1      34.377 -21.097 -21.543  0.00  0.00    +0.148 HD
BRANCH  30  32
ATOM     32  C   UNL     1      35.096 -19.191 -21.082  0.00  0.00    +0.165 C 
BRANCH  32  33
ATOM     33  C   UNL     1      34.877 -18.868 -22.494  0.00  0.00    -0.069 C 
ATOM     34  C   UNL     1      34.698 -18.602 -23.651  0.00  0.00    -0.088 C 
ATOM     35  C   UNL     1      34.480 -18.280 -25.061  0.00  0.00    +0.090 C 
ENDBRANCH  32  33
ENDBRANCH  30  32
ENDBRANCH  29  30
ENDBRANCH  21  24
ENDBRANCH  20  21
ENDBRANCH   3  20
TORSDOF 10
ENDMDL
MODEL 5
REMARK VINA RESULT:      -8.1      1.904      2.560
REMARK  Name = 24768528
REMARK  10 active torsions:
REMARK  status: ('A' for Active; 'I' for Inactive)
REMARK    1  A    between atoms: C_3  and  C_11
REMARK    2  A    between atoms: C_3  and  C_20
REMARK    3  A    between atoms: C_8  and  O_15
REMARK    4  A    between atoms: N_10  and  O_13
REMARK    5  A    between atoms: O_15  and  C_16
REMARK    6  A    between atoms: C_20  and  S_21
REMARK    7  A    between atoms: S_21  and  C_24
REMARK    8  A    between atoms: C_29  and  N_30
REMARK    9  A    between atoms: N_30  and  C_32
REMARK   10  A    between atoms: C_32  and  C_33
REMARK                            x       y       z     vdW  Elec       q    Type
REMARK                         _______ _______ _______ _____ _____    ______ ____
ROOT
ATOM      1  O   UNL     1      38.281 -24.696 -11.441  0.00  0.00    -0.226 OA
ATOM      2  N   UNL     1      36.468 -24.977 -12.868  0.00  0.00    -0.246 N 
ATOM      3  C   UNL     1      34.451 -23.604 -14.474  0.00  0.00    +0.096 C 
ATOM      4  C   UNL     1      35.320 -24.747 -15.038  0.00  0.00    +0.032 C 
ATOM      5  C   UNL     1      35.176 -22.924 -13.295  0.00  0.00    +0.032 C 
ATOM      6  C   UNL     1      35.813 -25.708 -13.956  0.00  0.00    +0.097 C 
ATOM      7  C   UNL     1      35.670 -23.921 -12.249  0.00  0.00    +0.097 C 
ATOM      8  C   UNL     1      37.746 -25.273 -12.385  0.00  0.00    +0.405 C 
ENDROOT
BRANCH   3  11
ATOM      9  O   UNL     1      32.730 -25.279 -14.218  0.00  0.00    -0.273 OA
ATOM     10  N   UNL     1      32.272 -23.121 -13.527  0.00  0.00    -0.197 N 
ATOM     11  C   UNL     1      33.059 -24.105 -14.067  0.00  0.00    +0.245 C 
ATOM     12  H   UNL     1      32.588 -22.193 -13.429  0.00  0.00    +0.182 HD
BRANCH  10  13
ATOM     13  O   UNL     1      30.991 -23.519 -13.124  0.00  0.00    -0.295 OA
ATOM     14  H   UNL     1      31.064 -24.244 -12.483  0.00  0.00    +0.241 HD
ENDBRANCH  10  13
ENDBRANCH   3  11
BRANCH   8  15
ATOM     15  O   UNL     1      38.351 -26.289 -13.078  0.00  0.00    -0.442 OA
BRANCH  15  16
ATOM     16  C   UNL     1      39.111 -25.902 -14.228  0.00  0.00    +0.138 C 
ATOM     17  C   UNL     1      38.619 -26.707 -15.431  0.00  0.00    +0.044 C 
ATOM     18  C   UNL     1      40.577 -26.215 -13.938  0.00  0.00    +0.044 C 
ATOM     19  C   UNL     1      38.916 -24.404 -14.459  0.00  0.00    +0.044 C 
ENDBRANCH  15  16
ENDBRANCH   8  15
BRANCH   3  20
ATOM     20  C   UNL     1      34.245 -22.582 -15.562  0.00  0.00    +0.165 C 
BRANCH  20  21
ATOM     21  S   UNL     1      33.477 -23.307 -16.964  0.00  0.00    +0.009 S 
ATOM     22  O   UNL     1      32.031 -23.194 -16.828  0.00  0.00    -0.169 OA
ATOM     23  O   UNL     1      34.082 -24.613 -17.189  0.00  0.00    -0.169 OA
BRANCH  21  24
ATOM     24  C   UNL     1      33.945 -22.259 -18.312  0.00  0.00    +0.106 C 
ATOM     25  C   UNL     1      32.965 -21.612 -19.065  0.00  0.00    +0.020 C 
ATOM     26  C   UNL     1      35.293 -22.082 -18.622  0.00  0.00    +0.020 C 
ATOM     27  C   UNL     1      33.334 -20.787 -20.127  0.00  0.00    +0.016 C 
ATOM     28  C   UNL     1      35.662 -21.258 -19.684  0.00  0.00    +0.016 C 
ATOM     29  C   UNL     1      34.682 -20.610 -20.437  0.00  0.00    +0.045 C 
BRANCH  29  30
ATOM     30  N   UNL     1      35.055 -19.776 -21.512  0.00  0.00    -0.322 N 
ATOM     31  H   UNL     1      34.648 -19.935 -22.394  0.00  0.00    +0.148 HD
BRANCH  30  32
ATOM     32  C   UNL     1      35.999 -18.710 -21.377  0.00  0.00    +0.165 C 
BRANCH  32  33
ATOM     33  C   UNL     1      35.308 -17.446 -21.110  0.00  0.00    -0.069 C 
ATOM     34  C   UNL     1      34.743 -16.410 -20.891  0.00  0.00    -0.088 C 
ATOM     35  C   UNL     1      34.054 -15.148 -20.626  0.00  0.00    +0.090 C 
ENDBRANCH  32  33
ENDBRANCH  30  32
ENDBRANCH  29  30
ENDBRANCH  21  24
ENDBRANCH  20  21
ENDBRANCH   3  20
TORSDOF 10
ENDMDL
MODEL 6
REMARK VINA RESULT:      -7.9      9.960     16.364
REMARK  Name = 24768528
REMARK  10 active torsions:
REMARK  status: ('A' for Active; 'I' for Inactive)
REMARK    1  A    between atoms: C_3  and  C_11
REMARK    2  A    between atoms: C_3  and  C_20
REMARK    3  A    between atoms: C_8  and  O_15
REMARK    4  A    between atoms: N_10  and  O_13
REMARK    5  A    between atoms: O_15  and  C_16
REMARK    6  A    between atoms: C_20  and  S_21
REMARK    7  A    between atoms: S_21  and  C_24
REMARK    8  A    between atoms: C_29  and  N_30
REMARK    9  A    between atoms: N_30  and  C_32
REMARK   10  A    between atoms: C_32  and  C_33
REMARK                            x       y       z     vdW  Elec       q    Type
REMARK                         _______ _______ _______ _____ _____    ______ ____
ROOT
ATOM      1  O   UNL     1      31.611  -4.613 -25.730  0.00  0.00    -0.226 OA
ATOM      2  N   UNL     1      32.637  -6.177 -24.350  0.00  0.00    -0.246 N 
ATOM      3  C   UNL     1      32.341  -8.770 -23.037  0.00  0.00    +0.096 C 
ATOM      4  C   UNL     1      33.585  -8.402 -23.872  0.00  0.00    +0.032 C 
ATOM      5  C   UNL     1      31.132  -7.931 -23.498  0.00  0.00    +0.032 C 
ATOM      6  C   UNL     1      33.841  -6.896 -23.925  0.00  0.00    +0.097 C 
ATOM      7  C   UNL     1      31.437  -6.435 -23.557  0.00  0.00    +0.097 C 
ATOM      8  C   UNL     1      32.606  -5.255 -25.400  0.00  0.00    +0.405 C 
ENDROOT
BRANCH   3  11
ATOM      9  O   UNL     1      33.345  -7.723 -21.107  0.00  0.00    -0.273 OA
ATOM     10  N   UNL     1      31.923  -9.515 -20.769  0.00  0.00    -0.197 N 
ATOM     11  C   UNL     1      32.603  -8.604 -21.535  0.00  0.00    +0.245 C 
ATOM     12  H   UNL     1      31.341 -10.202 -21.166  0.00  0.00    +0.182 HD
BRANCH  10  13
ATOM     13  O   UNL     1      32.113  -9.409 -19.385  0.00  0.00    -0.295 OA
ATOM     14  H   UNL     1      33.009  -9.703 -19.158  0.00  0.00    +0.241 HD
ENDBRANCH  10  13
ENDBRANCH   3  11
BRANCH   8  15
ATOM     15  O   UNL     1      33.815  -5.135 -26.034  0.00  0.00    -0.442 OA
BRANCH  15  16
ATOM     16  C   UNL     1      33.866  -4.211 -27.128  0.00  0.00    +0.138 C 
ATOM     17  C   UNL     1      32.923  -4.702 -28.225  0.00  0.00    +0.044 C 
ATOM     18  C   UNL     1      35.306  -4.175 -27.634  0.00  0.00    +0.044 C 
ATOM     19  C   UNL     1      33.440  -2.834 -26.620  0.00  0.00    +0.044 C 
ENDBRANCH  15  16
ENDBRANCH   8  15
BRANCH   3  20
ATOM     20  C   UNL     1      32.027 -10.226 -23.267  0.00  0.00    +0.165 C 
BRANCH  20  21
ATOM     21  S   UNL     1      33.402 -11.058 -23.972  0.00  0.00    +0.009 S 
ATOM     22  O   UNL     1      34.628 -10.395 -23.550  0.00  0.00    -0.169 OA
ATOM     23  O   UNL     1      33.136 -11.251 -25.391  0.00  0.00    -0.169 OA
BRANCH  21  24
ATOM     24  C   UNL     1      33.393 -12.652 -23.202  0.00  0.00    +0.106 C 
ATOM     25  C   UNL     1      34.193 -13.676 -23.708  0.00  0.00    +0.020 C 
ATOM     26  C   UNL     1      32.584 -12.883 -22.089  0.00  0.00    +0.020 C 
ATOM     27  C   UNL     1      34.185 -14.932 -23.102  0.00  0.00    +0.016 C 
ATOM     28  C   UNL     1      32.576 -14.139 -21.483  0.00  0.00    +0.016 C 
ATOM     29  C   UNL     1      33.376 -15.163 -21.989  0.00  0.00    +0.045 C 
BRANCH  29  30
ATOM     30  N   UNL     1      33.368 -16.433 -21.376  0.00  0.00    -0.322 N 
ATOM     31  H   UNL     1      32.647 -16.644 -20.739  0.00  0.00    +0.148 HD
BRANCH  30  32
ATOM     32  C   UNL     1      34.360 -17.429 -21.638  0.00  0.00    +0.165 C 
BRANCH  32  33
ATOM     33  C   UNL     1      33.954 -18.717 -21.070  0.00  0.00    -0.069 C 
ATOM     34  C   UNL     1      33.620 -19.773 -20.606  0.00  0.00    -0.088 C 
ATOM     35  C   UNL     1      33.214 -21.059 -20.039  0.00  0.00    +0.090 C 
ENDBRANCH  32  33
ENDBRANCH  30  32
ENDBRANCH  29  30
ENDBRANCH  21  24
ENDBRANCH  20  21
ENDBRANCH   3  20
TORSDOF 10
ENDMDL
MODEL 7
REMARK VINA RESULT:      -7.9      6.070     11.970
REMARK  Name = 24768528
REMARK  10 active torsions:
REMARK  status: ('A' for Active; 'I' for Inactive)
REMARK    1  A    between atoms: C_3  and  C_11
REMARK    2  A    between atoms: C_3  and  C_20
REMARK    3  A    between atoms: C_8  and  O_15
REMARK    4  A    between atoms: N_10  and  O_13
REMARK    5  A    between atoms: O_15  and  C_16
REMARK    6  A    between atoms: C_20  and  S_21
REMARK    7  A    between atoms: S_21  and  C_24
REMARK    8  A    between atoms: C_29  and  N_30
REMARK    9  A    between atoms: N_30  and  C_32
REMARK   10  A    between atoms: C_32  and  C_33
REMARK                            x       y       z     vdW  Elec       q    Type
REMARK                         _______ _______ _______ _____ _____    ______ ____
ROOT
ATOM      1  O   UNL     1      33.052  -9.296 -22.465  0.00  0.00    -0.226 OA
ATOM      2  N   UNL     1      32.498 -11.470 -23.075  0.00  0.00    -0.246 N 
ATOM      3  C   UNL     1      33.547 -14.137 -23.644  0.00  0.00    +0.096 C 
ATOM      4  C   UNL     1      32.367 -13.900 -22.679  0.00  0.00    +0.032 C 
ATOM      5  C   UNL     1      34.418 -12.867 -23.731  0.00  0.00    +0.032 C 
ATOM      6  C   UNL     1      31.593 -12.619 -22.990  0.00  0.00    +0.097 C 
ATOM      7  C   UNL     1      33.603 -11.608 -24.021  0.00  0.00    +0.097 C 
ATOM      8  C   UNL     1      32.323 -10.281 -22.361  0.00  0.00    +0.405 C 
ENDROOT
BRANCH   3  11
ATOM      9  O   UNL     1      32.453 -13.815 -25.773  0.00  0.00    -0.273 OA
ATOM     10  N   UNL     1      33.387 -15.882 -25.319  0.00  0.00    -0.197 N 
ATOM     11  C   UNL     1      33.061 -14.582 -25.028  0.00  0.00    +0.245 C 
ATOM     12  H   UNL     1      33.875 -16.453 -24.683  0.00  0.00    +0.182 HD
BRANCH  10  13
ATOM     13  O   UNL     1      32.979 -16.345 -26.577  0.00  0.00    -0.295 OA
ATOM     14  H   UNL     1      32.179 -16.886 -26.478  0.00  0.00    +0.241 HD
ENDBRANCH  10  13
ENDBRANCH   3  11
BRANCH   8  15
ATOM     15  O   UNL     1      31.240 -10.323 -21.522  0.00  0.00    -0.442 OA
BRANCH  15  16
ATOM     16  C   UNL     1      31.529 -10.392 -20.121  0.00  0.00    +0.138 C 
ATOM     17  C   UNL     1      32.350 -11.653 -19.854  0.00  0.00    +0.044 C 
ATOM     18  C   UNL     1      30.197 -10.451 -19.378  0.00  0.00    +0.044 C 
ATOM     19  C   UNL     1      32.311  -9.139 -19.725  0.00  0.00    +0.044 C 
ENDBRANCH  15  16
ENDBRANCH   8  15
BRANCH   3  20
ATOM     20  C   UNL     1      34.392 -15.259 -23.097  0.00  0.00    +0.165 C 
BRANCH  20  21
ATOM     21  S   UNL     1      33.974 -15.598 -21.426  0.00  0.00    +0.009 S 
ATOM     22  O   UNL     1      32.526 -15.555 -21.279  0.00  0.00    -0.169 OA
ATOM     23  O   UNL     1      34.813 -14.769 -20.572  0.00  0.00    -0.169 OA
BRANCH  21  24
ATOM     24  C   UNL     1      34.461 -17.283 -21.186  0.00  0.00    +0.106 C 
ATOM     25  C   UNL     1      33.492 -18.271 -21.007  0.00  0.00    +0.020 C 
ATOM     26  C   UNL     1      35.814 -17.623 -21.173  0.00  0.00    +0.020 C 
ATOM     27  C   UNL     1      33.876 -19.597 -20.816  0.00  0.00    +0.016 C 
ATOM     28  C   UNL     1      36.198 -18.949 -20.983  0.00  0.00    +0.016 C 
ATOM     29  C   UNL     1      35.228 -19.937 -20.804  0.00  0.00    +0.045 C 
BRANCH  29  30
ATOM     30  N   UNL     1      35.617 -21.279 -20.611  0.00  0.00    -0.322 N 
ATOM     31  H   UNL     1      36.270 -21.674 -21.232  0.00  0.00    +0.148 HD
BRANCH  30  32
ATOM     32  C   UNL     1      35.102 -22.092 -19.552  0.00  0.00    +0.165 C 
BRANCH  32  33
ATOM     33  C   UNL     1      35.958 -21.989 -18.367  0.00  0.00    -0.069 C 
ATOM     34  C   UNL     1      36.657 -21.904 -17.395  0.00  0.00    -0.088 C 
ATOM     35  C   UNL     1      37.510 -21.802 -16.211  0.00  0.00    +0.090 C 
ENDBRANCH  32  33
ENDBRANCH  30  32
ENDBRANCH  29  30
ENDBRANCH  21  24
ENDBRANCH  20  21
ENDBRANCH   3  20
TORSDOF 10
ENDMDL
MODEL 8
REMARK VINA RESULT:      -7.5      6.574     12.754
REMARK  Name = 24768528
REMARK  10 active torsions:
REMARK  status: ('A' for Active; 'I' for Inactive)
REMARK    1  A    between atoms: C_3  and  C_11
REMARK    2  A    between atoms: C_3  and  C_20
REMARK    3  A    between atoms: C_8  and  O_15
REMARK    4  A    between atoms: N_10  and  O_13
REMARK    5  A    between atoms: O_15  and  C_16
REMARK    6  A    between atoms: C_20  and  S_21
REMARK    7  A    between atoms: S_21  and  C_24
REMARK    8  A    between atoms: C_29  and  N_30
REMARK    9  A    between atoms: N_30  and  C_32
REMARK   10  A    between atoms: C_32  and  C_33
REMARK                            x       y       z     vdW  Elec       q    Type
REMARK                         _______ _______ _______ _____ _____    ______ ____
ROOT
ATOM      1  O   UNL     1      33.676  -8.584 -23.754  0.00  0.00    -0.226 OA
ATOM      2  N   UNL     1      32.894 -10.772 -23.696  0.00  0.00    -0.246 N 
ATOM      3  C   UNL     1      33.666 -13.590 -23.653  0.00  0.00    +0.096 C 
ATOM      4  C   UNL     1      32.651 -12.995 -22.655  0.00  0.00    +0.032 C 
ATOM      5  C   UNL     1      34.603 -12.481 -24.175  0.00  0.00    +0.032 C 
ATOM      6  C   UNL     1      31.932 -11.762 -23.204  0.00  0.00    +0.097 C 
ATOM      7  C   UNL     1      33.844 -11.260 -24.693  0.00  0.00    +0.097 C 
ATOM      8  C   UNL     1      32.903  -9.429 -23.308  0.00  0.00    +0.405 C 
ENDROOT
BRANCH   3  11
ATOM      9  O   UNL     1      31.923 -13.888 -25.297  0.00  0.00    -0.273 OA
ATOM     10  N   UNL     1      33.619 -15.457 -25.198  0.00  0.00    -0.197 N 
ATOM     11  C   UNL     1      32.962 -14.320 -24.803  0.00  0.00    +0.245 C 
ATOM     12  H   UNL     1      34.450 -15.758 -24.766  0.00  0.00    +0.182 HD
BRANCH  10  13
ATOM     13  O   UNL     1      33.030 -16.164 -26.255  0.00  0.00    -0.295 OA
ATOM     14  H   UNL     1      33.333 -15.794 -27.099  0.00  0.00    +0.241 HD
ENDBRANCH  10  13
ENDBRANCH   3  11
BRANCH   8  15
ATOM     15  O   UNL     1      31.946  -9.144 -22.368  0.00  0.00    -0.442 OA
BRANCH  15  16
ATOM     16  C   UNL     1      32.252  -8.081 -21.459  0.00  0.00    +0.138 C 
ATOM     17  C   UNL     1      31.433  -6.853 -21.853  0.00  0.00    +0.044 C 
ATOM     18  C   UNL     1      33.746  -7.789 -21.577  0.00  0.00    +0.044 C 
ATOM     19  C   UNL     1      31.903  -8.537 -20.043  0.00  0.00    +0.044 C 
ENDBRANCH  15  16
ENDBRANCH   8  15
BRANCH   3  20
ATOM     20  C   UNL     1      34.499 -14.617 -22.930  0.00  0.00    +0.165 C 
BRANCH  20  21
ATOM     21  S   UNL     1      33.653 -15.225 -21.517  0.00  0.00    +0.009 S 
ATOM     22  O   UNL     1      32.227 -15.289 -21.807  0.00  0.00    -0.169 OA
ATOM     23  O   UNL     1      34.122 -14.484 -20.354  0.00  0.00    -0.169 OA
BRANCH  21  24
ATOM     24  C   UNL     1      34.215 -16.895 -21.354  0.00  0.00    +0.106 C 
ATOM     25  C   UNL     1      33.311 -17.907 -21.028  0.00  0.00    +0.020 C 
ATOM     26  C   UNL     1      35.562 -17.199 -21.549  0.00  0.00    +0.020 C 
ATOM     27  C   UNL     1      33.755 -19.222 -20.898  0.00  0.00    +0.016 C 
ATOM     28  C   UNL     1      36.006 -18.515 -21.419  0.00  0.00    +0.016 C 
ATOM     29  C   UNL     1      35.102 -19.527 -21.093  0.00  0.00    +0.045 C 
BRANCH  29  30
ATOM     30  N   UNL     1      35.551 -20.857 -20.962  0.00  0.00    -0.322 N 
ATOM     31  H   UNL     1      35.513 -21.447 -21.749  0.00  0.00    +0.148 HD
BRANCH  30  32
ATOM     32  C   UNL     1      36.057 -21.388 -19.734  0.00  0.00    +0.165 C 
BRANCH  32  33
ATOM     33  C   UNL     1      34.979 -22.014 -18.964  0.00  0.00    -0.069 C 
ATOM     34  C   UNL     1      34.095 -22.529 -18.336  0.00  0.00    -0.088 C 
ATOM     35  C   UNL     1      33.019 -23.154 -17.568  0.00  0.00    +0.090 C 
ENDBRANCH  32  33
ENDBRANCH  30  32
ENDBRANCH  29  30
ENDBRANCH  21  24
ENDBRANCH  20  21
ENDBRANCH   3  20
TORSDOF 10
ENDMDL
MODEL 9
REMARK VINA RESULT:      -7.4      4.733      8.711
REMARK  Name = 24768528
REMARK  10 active torsions:
REMARK  status: ('A' for Active; 'I' for Inactive)
REMARK    1  A    between atoms: C_3  and  C_11
REMARK    2  A    between atoms: C_3  and  C_20
REMARK    3  A    between atoms: C_8  and  O_15
REMARK    4  A    between atoms: N_10  and  O_13
REMARK    5  A    between atoms: O_15  and  C_16
REMARK    6  A    between atoms: C_20  and  S_21
REMARK    7  A    between atoms: S_21  and  C_24
REMARK    8  A    between atoms: C_29  and  N_30
REMARK    9  A    between atoms: N_30  and  C_32
REMARK   10  A    between atoms: C_32  and  C_33
REMARK                            x       y       z     vdW  Elec       q    Type
REMARK                         _______ _______ _______ _____ _____    ______ ____
ROOT
ATOM      1  O   UNL     1      32.696 -21.026 -19.551  0.00  0.00    -0.226 OA
ATOM      2  N   UNL     1      34.213 -19.782 -20.797  0.00  0.00    -0.246 N 
ATOM      3  C   UNL     1      34.591 -17.354 -22.376  0.00  0.00    +0.096 C 
ATOM      4  C   UNL     1      35.559 -17.766 -21.248  0.00  0.00    +0.032 C 
ATOM      5  C   UNL     1      33.201 -17.974 -22.129  0.00  0.00    +0.032 C 
ATOM      6  C   UNL     1      35.573 -19.275 -20.999  0.00  0.00    +0.097 C 
ATOM      7  C   UNL     1      33.263 -19.477 -21.864  0.00  0.00    +0.097 C 
ATOM      8  C   UNL     1      33.822 -20.557 -19.701  0.00  0.00    +0.405 C 
ENDROOT
BRANCH   3  11
ATOM      9  O   UNL     1      35.726 -18.799 -23.943  0.00  0.00    -0.273 OA
ATOM     10  N   UNL     1      34.899 -16.781 -24.711  0.00  0.00    -0.197 N 
ATOM     11  C   UNL     1      35.142 -17.733 -23.756  0.00  0.00    +0.245 C 
ATOM     12  H   UNL     1      34.425 -15.942 -24.505  0.00  0.00    +0.182 HD
BRANCH  10  13
ATOM     13  O   UNL     1      35.368 -17.075 -25.998  0.00  0.00    -0.295 OA
ATOM     14  H   UNL     1      36.338 -17.078 -25.995  0.00  0.00    +0.241 HD
ENDBRANCH  10  13
ENDBRANCH   3  11
BRANCH   8  15
ATOM     15  O   UNL     1      34.836 -20.746 -18.799  0.00  0.00    -0.442 OA
BRANCH  15  16
ATOM     16  C   UNL     1      35.283 -22.096 -18.625  0.00  0.00    +0.138 C 
ATOM     17  C   UNL     1      34.360 -22.791 -17.625  0.00  0.00    +0.044 C 
ATOM     18  C   UNL     1      36.712 -22.043 -18.090  0.00  0.00    +0.044 C 
ATOM     19  C   UNL     1      35.243 -22.799 -19.982  0.00  0.00    +0.044 C 
ENDBRANCH  15  16
ENDBRANCH   8  15
BRANCH   3  20
ATOM     20  C   UNL     1      34.454 -15.853 -22.360  0.00  0.00    +0.165 C 
BRANCH  20  21
ATOM     21  S   UNL     1      33.637 -15.316 -20.901  0.00  0.00    +0.009 S 
ATOM     22  O   UNL     1      34.632 -15.035 -19.875  0.00  0.00    -0.169 OA
ATOM     23  O   UNL     1      32.551 -16.245 -20.621  0.00  0.00    -0.169 OA
BRANCH  21  24
ATOM     24  C   UNL     1      32.915 -13.763 -21.349  0.00  0.00    +0.106 C 
ATOM     25  C   UNL     1      32.219 -13.017 -20.397  0.00  0.00    +0.020 C 
ATOM     26  C   UNL     1      33.039 -13.287 -22.654  0.00  0.00    +0.020 C 
ATOM     27  C   UNL     1      31.650 -11.794 -20.751  0.00  0.00    +0.016 C 
ATOM     28  C   UNL     1      32.469 -12.065 -23.008  0.00  0.00    +0.016 C 
ATOM     29  C   UNL     1      31.774 -11.318 -22.056  0.00  0.00    +0.045 C 
BRANCH  29  30
ATOM     30  N   UNL     1      31.197 -10.082 -22.414  0.00  0.00    -0.322 N 
ATOM     31  H   UNL     1      30.486 -10.074 -23.095  0.00  0.00    +0.148 HD
BRANCH  30  32
ATOM     32  C   UNL     1      31.599  -8.839 -21.831  0.00  0.00    +0.165 C 
BRANCH  32  33
ATOM     33  C   UNL     1      32.802  -8.329 -22.494  0.00  0.00    -0.069 C 
ATOM     34  C   UNL     1      33.788  -7.913 -23.039  0.00  0.00    -0.088 C 
ATOM     35  C   UNL     1      34.988  -7.405 -23.701  0.00  0.00    +0.090 C 
ENDBRANCH  32  33
ENDBRANCH  30  32
ENDBRANCH  29  30
ENDBRANCH  21  24
ENDBRANCH  20  21
ENDBRANCH   3  20
TORSDOF 10
ENDMDL
