MODEL 1
REMARK VINA RESULT:      -7.5      0.000      0.000
REMARK  Name = 967
REMARK  2 active torsions:
REMARK  status: ('A' for Active; 'I' for Inactive)
REMARK    1  A    between atoms: CA_5  and  C_12
REMARK    2  A    between atoms: C_12  and  O_13
REMARK                            x       y       z     vdW  Elec       q    Type
REMARK                         _______ _______ _______ _____ _____    ______ ____
ROOT
ATOM      1  O   UNL     1      35.533 -24.748 -15.744  0.00  0.00    -0.252 OA
ATOM      2  O   UNL     1      36.947 -26.391 -11.661  0.00  0.00    -0.270 OA
ATOM      3  N   UNL     1      37.785 -25.017 -15.346  0.00  0.00    -0.263 N 
ATOM      4  N   UNL     1      36.216 -25.571 -13.698  0.00  0.00    -0.236 N 
ATOM      5  CA  UNL     1      38.799 -25.392 -14.507  0.00  0.00    +0.133 C 
ATOM      6  C   UNL     1      38.584 -25.856 -13.274  0.00  0.00    +0.079 C 
ATOM      7  C   UNL     1      36.445 -25.086 -14.989  0.00  0.00    +0.311 C 
ATOM      8  C   UNL     1      37.187 -25.971 -12.788  0.00  0.00    +0.254 C 
ATOM      9  H   UNL     1      38.015 -24.683 -16.243  0.00  0.00    +0.157 HD
ATOM     10  H   UNL     1      35.279 -25.635 -13.406  0.00  0.00    +0.159 HD
ENDROOT
BRANCH   5  12
ATOM     11  OXT UNL     1      41.079 -24.729 -14.379  0.00  0.00    -0.244 OA
ATOM     12  C   UNL     1      40.176 -25.277 -14.988  0.00  0.00    +0.352 C 
BRANCH  12  13
ATOM     13  O   UNL     1      40.287 -25.867 -16.198  0.00  0.00    -0.476 OA
ATOM     14  H   UNL     1      39.537 -25.936 -16.755  0.00  0.00    +0.295 HD
ENDBRANCH  12  13
ENDBRANCH   5  12
TORSDOF 2
ENDMDL
MODEL 2
REMARK VINA RESULT:      -6.9      1.596      3.847
REMARK  Name = 967
REMARK  2 active torsions:
REMARK  status: ('A' for Active; 'I' for Inactive)
REMARK    1  A    between atoms: CA_5  and  C_12
REMARK    2  A    between atoms: C_12  and  O_13
REMARK                            x       y       z     vdW  Elec       q    Type
REMARK                         _______ _______ _______ _____ _____    ______ ____
ROOT
ATOM      1  O   UNL     1      36.351 -26.863 -15.864  0.00  0.00    -0.252 OA
ATOM      2  O   UNL     1      40.165 -24.931 -14.106  0.00  0.00    -0.270 OA
ATOM      3  N   UNL     1      36.255 -25.821 -13.814  0.00  0.00    -0.263 N 
ATOM      4  N   UNL     1      38.269 -25.904 -15.005  0.00  0.00    -0.236 N 
ATOM      5  CA  UNL     1      36.877 -25.131 -12.809  0.00  0.00    +0.133 C 
ATOM      6  C   UNL     1      38.172 -24.806 -12.849  0.00  0.00    +0.079 C 
ATOM      7  C   UNL     1      36.913 -26.243 -14.960  0.00  0.00    +0.311 C 
ATOM      8  C   UNL     1      38.972 -25.209 -14.031  0.00  0.00    +0.254 C 
ATOM      9  H   UNL     1      35.297 -26.027 -13.719  0.00  0.00    +0.157 HD
ATOM     10  H   UNL     1      38.771 -26.186 -15.803  0.00  0.00    +0.159 HD
ENDROOT
BRANCH   5  12
ATOM     11  OXT UNL     1      36.551 -24.269 -10.617  0.00  0.00    -0.244 OA
ATOM     12  C   UNL     1      36.087 -24.735 -11.643  0.00  0.00    +0.352 C 
BRANCH  12  13
ATOM     13  O   UNL     1      34.777 -24.966 -11.882  0.00  0.00    -0.476 OA
ATOM     14  H   UNL     1      34.236 -24.282 -12.223  0.00  0.00    +0.295 HD
ENDBRANCH  12  13
ENDBRANCH   5  12
TORSDOF 2
ENDMDL
MODEL 3
REMARK VINA RESULT:      -6.8      2.244      3.198
REMARK  Name = 967
REMARK  2 active torsions:
REMARK  status: ('A' for Active; 'I' for Inactive)
REMARK    1  A    between atoms: CA_5  and  C_12
REMARK    2  A    between atoms: C_12  and  O_13
REMARK                            x       y       z     vdW  Elec       q    Type
REMARK                         _______ _______ _______ _____ _____    ______ ____
ROOT
ATOM      1  O   UNL     1      34.947 -24.923 -11.057  0.00  0.00    -0.252 OA
ATOM      2  O   UNL     1      39.134 -23.051 -11.631  0.00  0.00    -0.270 OA
ATOM      3  N   UNL     1      36.268 -25.613 -12.811  0.00  0.00    -0.263 N 
ATOM      4  N   UNL     1      37.035 -23.975 -11.324  0.00  0.00    -0.236 N 
ATOM      5  CA  UNL     1      37.441 -25.528 -13.511  0.00  0.00    +0.133 C 
ATOM      6  C   UNL     1      38.429 -24.698 -13.167  0.00  0.00    +0.079 C 
ATOM      7  C   UNL     1      36.003 -24.846 -11.686  0.00  0.00    +0.311 C 
ATOM      8  C   UNL     1      38.251 -23.829 -11.979  0.00  0.00    +0.254 C 
ATOM      9  H   UNL     1      35.581 -26.248 -13.120  0.00  0.00    +0.157 HD
ATOM     10  H   UNL     1      36.885 -23.412 -10.531  0.00  0.00    +0.159 HD
ENDROOT
BRANCH   5  12
ATOM     11  OXT UNL     1      38.416 -27.301 -14.759  0.00  0.00    -0.244 OA
ATOM     12  C   UNL     1      37.615 -26.385 -14.683  0.00  0.00    +0.352 C 
BRANCH  12  13
ATOM     13  O   UNL     1      36.758 -26.005 -15.656  0.00  0.00    -0.476 OA
ATOM     14  H   UNL     1      36.041 -25.439 -15.452  0.00  0.00    +0.295 HD
ENDBRANCH  12  13
ENDBRANCH   5  12
TORSDOF 2
ENDMDL
MODEL 4
REMARK VINA RESULT:      -6.7      1.396      2.528
REMARK  Name = 967
REMARK  2 active torsions:
REMARK  status: ('A' for Active; 'I' for Inactive)
REMARK    1  A    between atoms: CA_5  and  C_12
REMARK    2  A    between atoms: C_12  and  O_13
REMARK                            x       y       z     vdW  Elec       q    Type
REMARK                         _______ _______ _______ _____ _____    ______ ____
ROOT
ATOM      1  O   UNL     1      36.884 -25.035 -11.367  0.00  0.00    -0.252 OA
ATOM      2  O   UNL     1      36.013 -26.540 -15.650  0.00  0.00    -0.270 OA
ATOM      3  N   UNL     1      38.635 -25.448 -12.803  0.00  0.00    -0.263 N 
ATOM      4  N   UNL     1      36.426 -25.786 -13.502  0.00  0.00    -0.236 N 
ATOM      5  CA  UNL     1      39.085 -25.849 -14.032  0.00  0.00    +0.133 C 
ATOM      6  C   UNL     1      38.264 -26.221 -15.017  0.00  0.00    +0.079 C 
ATOM      7  C   UNL     1      37.288 -25.396 -12.473  0.00  0.00    +0.311 C 
ATOM      8  C   UNL     1      36.801 -26.204 -14.772  0.00  0.00    +0.254 C 
ATOM      9  H   UNL     1      39.296 -25.186 -12.123  0.00  0.00    +0.157 HD
ATOM     10  H   UNL     1      35.461 -25.762 -13.307  0.00  0.00    +0.159 HD
ENDROOT
BRANCH   5  12
ATOM     11  OXT UNL     1      41.241 -26.846 -14.138  0.00  0.00    -0.244 OA
ATOM     12  C   UNL     1      40.528 -25.866 -14.272  0.00  0.00    +0.352 C 
BRANCH  12  13
ATOM     13  O   UNL     1      40.940 -24.640 -14.660  0.00  0.00    -0.476 OA
ATOM     14  H   UNL     1      40.949 -24.415 -15.569  0.00  0.00    +0.295 HD
ENDBRANCH  12  13
ENDBRANCH   5  12
TORSDOF 2
ENDMDL
MODEL 5
REMARK VINA RESULT:      -6.5      1.763      3.260
REMARK  Name = 967
REMARK  2 active torsions:
REMARK  status: ('A' for Active; 'I' for Inactive)
REMARK    1  A    between atoms: CA_5  and  C_12
REMARK    2  A    between atoms: C_12  and  O_13
REMARK                            x       y       z     vdW  Elec       q    Type
REMARK                         _______ _______ _______ _____ _____    ______ ____
ROOT
ATOM      1  O   UNL     1      40.822 -26.117 -15.017  0.00  0.00    -0.252 OA
ATOM      2  O   UNL     1      37.239 -26.327 -12.104  0.00  0.00    -0.270 OA
ATOM      3  N   UNL     1      39.046 -24.680 -15.296  0.00  0.00    -0.263 N 
ATOM      4  N   UNL     1      39.043 -26.240 -13.550  0.00  0.00    -0.236 N 
ATOM      5  CA  UNL     1      37.821 -24.224 -14.891  0.00  0.00    +0.133 C 
ATOM      6  C   UNL     1      37.173 -24.729 -13.839  0.00  0.00    +0.079 C 
ATOM      7  C   UNL     1      39.720 -25.707 -14.651  0.00  0.00    +0.311 C 
ATOM      8  C   UNL     1      37.803 -25.834 -13.076  0.00  0.00    +0.254 C 
ATOM      9  H   UNL     1      39.468 -24.261 -16.081  0.00  0.00    +0.157 HD
ATOM     10  H   UNL     1      39.489 -26.971 -13.064  0.00  0.00    +0.159 HD
ENDROOT
BRANCH   5  12
ATOM     11  OXT UNL     1      37.688 -22.027 -15.791  0.00  0.00    -0.244 OA
ATOM     12  C   UNL     1      37.200 -23.135 -15.646  0.00  0.00    +0.352 C 
BRANCH  12  13
ATOM     13  O   UNL     1      36.016 -23.546 -16.148  0.00  0.00    -0.476 OA
ATOM     14  H   UNL     1      35.244 -23.504 -15.620  0.00  0.00    +0.295 HD
ENDBRANCH  12  13
ENDBRANCH   5  12
TORSDOF 2
ENDMDL
MODEL 6
REMARK VINA RESULT:      -6.4      2.293      3.693
REMARK  Name = 967
REMARK  2 active torsions:
REMARK  status: ('A' for Active; 'I' for Inactive)
REMARK    1  A    between atoms: CA_5  and  C_12
REMARK    2  A    between atoms: C_12  and  O_13
REMARK                            x       y       z     vdW  Elec       q    Type
REMARK                         _______ _______ _______ _____ _____    ______ ____
ROOT
ATOM      1  O   UNL     1      37.238 -22.770 -16.095  0.00  0.00    -0.252 OA
ATOM      2  O   UNL     1      38.750 -26.844 -14.516  0.00  0.00    -0.270 OA
ATOM      3  N   UNL     1      37.182 -23.203 -13.835  0.00  0.00    -0.263 N 
ATOM      4  N   UNL     1      37.999 -24.812 -15.329  0.00  0.00    -0.236 N 
ATOM      5  CA  UNL     1      37.423 -24.053 -12.789  0.00  0.00    +0.133 C 
ATOM      6  C   UNL     1      37.943 -25.272 -12.952  0.00  0.00    +0.079 C 
ATOM      7  C   UNL     1      37.455 -23.535 -15.154  0.00  0.00    +0.311 C 
ATOM      8  C   UNL     1      38.272 -25.730 -14.323  0.00  0.00    +0.254 C 
ATOM      9  H   UNL     1      36.798 -22.318 -13.643  0.00  0.00    +0.157 HD
ATOM     10  H   UNL     1      38.207 -25.085 -16.251  0.00  0.00    +0.159 HD
ENDROOT
BRANCH   5  12
ATOM     11  OXT UNL     1      36.558 -24.288 -10.587  0.00  0.00    -0.244 OA
ATOM     12  C   UNL     1      37.097 -23.599 -11.436  0.00  0.00    +0.352 C 
BRANCH  12  13
ATOM     13  O   UNL     1      37.481 -22.314 -11.282  0.00  0.00    -0.476 OA
ATOM     14  H   UNL     1      38.098 -22.087 -10.615  0.00  0.00    +0.295 HD
ENDBRANCH  12  13
ENDBRANCH   5  12
TORSDOF 2
ENDMDL
MODEL 7
REMARK VINA RESULT:      -6.4      3.249      4.346
REMARK  Name = 967
REMARK  2 active torsions:
REMARK  status: ('A' for Active; 'I' for Inactive)
REMARK    1  A    between atoms: CA_5  and  C_12
REMARK    2  A    between atoms: C_12  and  O_13
REMARK                            x       y       z     vdW  Elec       q    Type
REMARK                         _______ _______ _______ _____ _____    ______ ____
ROOT
ATOM      1  O   UNL     1      38.494 -22.243 -11.872  0.00  0.00    -0.252 OA
ATOM      2  O   UNL     1      35.235 -24.725  -9.730  0.00  0.00    -0.270 OA
ATOM      3  N   UNL     1      36.921 -23.368 -13.119  0.00  0.00    -0.263 N 
ATOM      4  N   UNL     1      36.875 -23.476 -10.781  0.00  0.00    -0.236 N 
ATOM      5  CA  UNL     1      35.821 -24.180 -13.179  0.00  0.00    +0.133 C 
ATOM      6  C   UNL     1      35.217 -24.661 -12.089  0.00  0.00    +0.079 C 
ATOM      7  C   UNL     1      37.504 -22.974 -11.924  0.00  0.00    +0.311 C 
ATOM      8  C   UNL     1      35.760 -24.303 -10.756  0.00  0.00    +0.254 C 
ATOM      9  H   UNL     1      37.315 -23.049 -13.963  0.00  0.00    +0.157 HD
ATOM     10  H   UNL     1      37.260 -23.219  -9.912  0.00  0.00    +0.159 HD
ENDROOT
BRANCH   5  12
ATOM     11  OXT UNL     1      35.908 -24.445 -15.540  0.00  0.00    -0.244 OA
ATOM     12  C   UNL     1      35.287 -24.533 -14.494  0.00  0.00    +0.352 C 
BRANCH  12  13
ATOM     13  O   UNL     1      34.014 -24.967 -14.368  0.00  0.00    -0.476 OA
ATOM     14  H   UNL     1      33.823 -25.881 -14.432  0.00  0.00    +0.295 HD
ENDBRANCH  12  13
ENDBRANCH   5  12
TORSDOF 2
ENDMDL
MODEL 8
REMARK VINA RESULT:      -6.3      2.200      3.822
REMARK  Name = 967
REMARK  2 active torsions:
REMARK  status: ('A' for Active; 'I' for Inactive)
REMARK    1  A    between atoms: CA_5  and  C_12
REMARK    2  A    between atoms: C_12  and  O_13
REMARK                            x       y       z     vdW  Elec       q    Type
REMARK                         _______ _______ _______ _____ _____    ______ ____
ROOT
ATOM      1  O   UNL     1      38.199 -27.285 -14.626  0.00  0.00    -0.252 OA
ATOM      2  O   UNL     1      35.751 -23.658 -16.117  0.00  0.00    -0.270 OA
ATOM      3  N   UNL     1      37.941 -25.451 -13.260  0.00  0.00    -0.263 N 
ATOM      4  N   UNL     1      36.972 -25.485 -15.391  0.00  0.00    -0.236 N 
ATOM      5  CA  UNL     1      37.431 -24.198 -13.048  0.00  0.00    +0.133 C 
ATOM      6  C   UNL     1      36.697 -23.553 -13.958  0.00  0.00    +0.079 C 
ATOM      7  C   UNL     1      37.740 -26.158 -14.436  0.00  0.00    +0.311 C 
ATOM      8  C   UNL     1      36.421 -24.218 -15.254  0.00  0.00    +0.254 C 
ATOM      9  H   UNL     1      38.474 -25.868 -12.545  0.00  0.00    +0.157 HD
ATOM     10  H   UNL     1      36.807 -25.954 -16.240  0.00  0.00    +0.159 HD
ENDROOT
BRANCH   5  12
ATOM     11  OXT UNL     1      38.435 -22.577 -11.628  0.00  0.00    -0.244 OA
ATOM     12  C   UNL     1      37.705 -23.543 -11.769  0.00  0.00    +0.352 C 
BRANCH  12  13
ATOM     13  O   UNL     1      37.030 -24.171 -10.782  0.00  0.00    -0.476 OA
ATOM     14  H   UNL     1      36.374 -24.805 -10.994  0.00  0.00    +0.295 HD
ENDBRANCH  12  13
ENDBRANCH   5  12
TORSDOF 2
ENDMDL
MODEL 9
REMARK VINA RESULT:      -6.2     11.180     12.687
REMARK  Name = 967
REMARK  2 active torsions:
REMARK  status: ('A' for Active; 'I' for Inactive)
REMARK    1  A    between atoms: CA_5  and  C_12
REMARK    2  A    between atoms: C_12  and  O_13
REMARK                            x       y       z     vdW  Elec       q    Type
REMARK                         _______ _______ _______ _____ _____    ______ ____
ROOT
ATOM      1  O   UNL     1      34.901 -15.480 -20.187  0.00  0.00    -0.252 OA
ATOM      2  O   UNL     1      35.252 -19.866 -21.604  0.00  0.00    -0.270 OA
ATOM      3  N   UNL     1      34.662 -15.973 -22.423  0.00  0.00    -0.263 N 
ATOM      4  N   UNL     1      35.080 -17.677 -20.872  0.00  0.00    -0.236 N 
ATOM      5  CA  UNL     1      34.641 -16.897 -23.433  0.00  0.00    +0.133 C 
ATOM      6  C   UNL     1      34.829 -18.202 -23.223  0.00  0.00    +0.079 C 
ATOM      7  C   UNL     1      34.882 -16.311 -21.095  0.00  0.00    +0.311 C 
ATOM      8  C   UNL     1      35.073 -18.675 -21.838  0.00  0.00    +0.254 C 
ATOM      9  H   UNL     1      34.516 -15.026 -22.648  0.00  0.00    +0.157 HD
ATOM     10  H   UNL     1      35.238 -17.958 -19.942  0.00  0.00    +0.159 HD
ENDROOT
BRANCH   5  12
ATOM     11  OXT UNL     1      34.904 -16.916 -25.795  0.00  0.00    -0.244 OA
ATOM     12  C   UNL     1      34.401 -16.429 -24.798  0.00  0.00    +0.352 C 
BRANCH  12  13
ATOM     13  O   UNL     1      33.545 -15.384 -24.777  0.00  0.00    -0.476 OA
ATOM     14  H   UNL     1      32.655 -15.513 -24.515  0.00  0.00    +0.295 HD
ENDBRANCH  12  13
ENDBRANCH   5  12
TORSDOF 2
ENDMDL
