MODEL 1
REMARK VINA RESULT:      -7.5      0.000      0.000
REMARK  Name = 4826
REMARK  4 active torsions:
REMARK  status: ('A' for Active; 'I' for Inactive)
REMARK    1  A    between atoms: N_1  and  C_15
REMARK    2  A    between atoms: N_2  and  C_8
REMARK    3  A    between atoms: N_3  and  C_14
REMARK    4  A    between atoms: C_15  and  C_17
REMARK                            x       y       z     vdW  Elec       q    Type
REMARK                         _______ _______ _______ _____ _____    ______ ____
ROOT
ATOM      1  N   UNL     1      33.559 -11.185 -23.507  0.00  0.00    -0.241 NA
ATOM      2  N   UNL     1      33.942 -13.432 -24.248  0.00  0.00    -0.324 N 
ATOM      3  N   UNL     1      33.803 -11.631 -25.798  0.00  0.00    -0.263 N 
ATOM      4  C   UNL     1      33.781 -12.067 -24.422  0.00  0.00    +0.211 C 
ATOM      5  H   UNL     1      34.248 -13.924 -25.044  0.00  0.00    +0.169 HD
ATOM      6  H   UNL     1      34.003 -10.696 -26.037  0.00  0.00    +0.181 HD
ENDROOT
BRANCH   2   8
ATOM      7  N   UNL     1      33.314 -15.786 -20.820  0.00  0.00    -0.242 NA
ATOM      8  C   UNL     1      33.731 -14.224 -23.096  0.00  0.00    +0.062 C 
ATOM      9  C   UNL     1      34.687 -15.153 -22.707  0.00  0.00    +0.038 C 
ATOM     10  C   UNL     1      32.568 -14.073 -22.353  0.00  0.00    +0.038 C 
ATOM     11  C   UNL     1      34.433 -15.904 -21.570  0.00  0.00    +0.100 C 
ATOM     12  C   UNL     1      32.409 -14.871 -21.232  0.00  0.00    +0.100 C 
ENDBRANCH   2   8
BRANCH   3  14
ATOM     13  N   UNL     1      33.316 -13.355 -27.545  0.00  0.00    -0.171 NA
ATOM     14  C   UNL     1      33.540 -12.552 -26.738  0.00  0.00    +0.184 C 
ENDBRANCH   3  14
BRANCH   1  15
ATOM     15  C   UNL     1      33.347  -9.797 -23.955  0.00  0.00    +0.106 C 
ATOM     16  C   UNL     1      34.713  -9.114 -24.023  0.00  0.00    +0.026 C 
BRANCH  15  17
ATOM     17  C   UNL     1      32.287  -9.104 -23.045  0.00  0.00    +0.021 C 
ATOM     18  C   UNL     1      31.323  -8.207 -23.844  0.00  0.00    +0.002 C 
ATOM     19  C   UNL     1      31.460 -10.177 -22.306  0.00  0.00    +0.002 C 
ATOM     20  C   UNL     1      32.988  -8.235 -21.980  0.00  0.00    +0.002 C 
ENDBRANCH  15  17
ENDBRANCH   1  15
TORSDOF 4
ENDMDL
MODEL 2
REMARK VINA RESULT:      -7.3     14.486     16.636
REMARK  Name = 4826
REMARK  4 active torsions:
REMARK  status: ('A' for Active; 'I' for Inactive)
REMARK    1  A    between atoms: N_1  and  C_15
REMARK    2  A    between atoms: N_2  and  C_8
REMARK    3  A    between atoms: N_3  and  C_14
REMARK    4  A    between atoms: C_15  and  C_17
REMARK                            x       y       z     vdW  Elec       q    Type
REMARK                         _______ _______ _______ _____ _____    ______ ____
ROOT
ATOM      1  N   UNL     1      35.963 -23.951 -14.385  0.00  0.00    -0.241 NA
ATOM      2  N   UNL     1      34.061 -23.721 -12.945  0.00  0.00    -0.324 N 
ATOM      3  N   UNL     1      36.273 -23.773 -12.067  0.00  0.00    -0.263 N 
ATOM      4  C   UNL     1      35.415 -23.799 -13.227  0.00  0.00    +0.211 C 
ATOM      5  H   UNL     1      33.839 -23.459 -12.022  0.00  0.00    +0.169 HD
ATOM      6  H   UNL     1      37.222 -23.519 -12.136  0.00  0.00    +0.181 HD
ENDROOT
BRANCH   2   8
ATOM      7  N   UNL     1      30.759 -24.440 -15.447  0.00  0.00    -0.242 NA
ATOM      8  C   UNL     1      32.950 -23.963 -13.786  0.00  0.00    +0.062 C 
ATOM      9  C   UNL     1      32.754 -23.183 -14.918  0.00  0.00    +0.038 C 
ATOM     10  C   UNL     1      32.056 -24.980 -13.480  0.00  0.00    +0.038 C 
ATOM     11  C   UNL     1      31.651 -23.460 -15.710  0.00  0.00    +0.100 C 
ATOM     12  C   UNL     1      30.985 -25.176 -14.336  0.00  0.00    +0.100 C 
ENDBRANCH   2   8
BRANCH   3  14
ATOM     13  N   UNL     1      35.256 -24.403  -9.868  0.00  0.00    -0.171 NA
ATOM     14  C   UNL     1      35.723 -24.108 -10.889  0.00  0.00    +0.184 C 
ENDBRANCH   3  14
BRANCH   1  15
ATOM     15  C   UNL     1      37.430 -24.084 -14.419  0.00  0.00    +0.106 C 
ATOM     16  C   UNL     1      37.950 -23.237 -15.580  0.00  0.00    +0.026 C 
BRANCH  15  17
ATOM     17  C   UNL     1      37.825 -25.592 -14.451  0.00  0.00    +0.021 C 
ATOM     18  C   UNL     1      36.853 -26.437 -15.295  0.00  0.00    +0.002 C 
ATOM     19  C   UNL     1      39.243 -25.741 -15.042  0.00  0.00    +0.002 C 
ATOM     20  C   UNL     1      37.850 -26.165 -13.019  0.00  0.00    +0.002 C 
ENDBRANCH  15  17
ENDBRANCH   1  15
TORSDOF 4
ENDMDL
MODEL 3
REMARK VINA RESULT:      -7.2      4.104      5.855
REMARK  Name = 4826
REMARK  4 active torsions:
REMARK  status: ('A' for Active; 'I' for Inactive)
REMARK    1  A    between atoms: N_1  and  C_15
REMARK    2  A    between atoms: N_2  and  C_8
REMARK    3  A    between atoms: N_3  and  C_14
REMARK    4  A    between atoms: C_15  and  C_17
REMARK                            x       y       z     vdW  Elec       q    Type
REMARK                         _______ _______ _______ _____ _____    ______ ____
ROOT
ATOM      1  N   UNL     1      34.541 -16.457 -21.122  0.00  0.00    -0.241 NA
ATOM      2  N   UNL     1      35.005 -18.525 -22.242  0.00  0.00    -0.324 N 
ATOM      3  N   UNL     1      34.956 -16.463 -23.430  0.00  0.00    -0.263 N 
ATOM      4  C   UNL     1      34.840 -17.151 -22.167  0.00  0.00    +0.211 C 
ATOM      5  H   UNL     1      35.374 -18.858 -23.092  0.00  0.00    +0.169 HD
ATOM      6  H   UNL     1      35.162 -15.500 -23.474  0.00  0.00    +0.181 HD
ENDROOT
BRANCH   2   8
ATOM      7  N   UNL     1      34.158 -21.483 -19.375  0.00  0.00    -0.242 NA
ATOM      8  C   UNL     1      34.720 -19.520 -21.279  0.00  0.00    +0.062 C 
ATOM      9  C   UNL     1      35.758 -20.202 -20.657  0.00  0.00    +0.038 C 
ATOM     10  C   UNL     1      33.403 -19.815 -20.953  0.00  0.00    +0.038 C 
ATOM     11  C   UNL     1      35.426 -21.167 -19.720  0.00  0.00    +0.100 C 
ATOM     12  C   UNL     1      33.177 -20.797 -20.003  0.00  0.00    +0.100 C 
ENDBRANCH   2   8
BRANCH   3  14
ATOM     13  N   UNL     1      34.612 -17.824 -25.502  0.00  0.00    -0.171 NA
ATOM     14  C   UNL     1      34.774 -17.189 -24.544  0.00  0.00    +0.184 C 
ENDBRANCH   3  14
BRANCH   1  15
ATOM     15  C   UNL     1      34.345 -15.010 -21.314  0.00  0.00    +0.106 C 
ATOM     16  C   UNL     1      35.193 -14.281 -20.273  0.00  0.00    +0.026 C 
BRANCH  15  17
ATOM     17  C   UNL     1      32.822 -14.675 -21.300  0.00  0.00    +0.021 C 
ATOM     18  C   UNL     1      31.965 -15.852 -20.798  0.00  0.00    +0.002 C 
ATOM     19  C   UNL     1      32.568 -13.459 -20.384  0.00  0.00    +0.002 C 
ATOM     20  C   UNL     1      32.348 -14.300 -22.720  0.00  0.00    +0.002 C 
ENDBRANCH  15  17
ENDBRANCH   1  15
TORSDOF 4
ENDMDL
MODEL 4
REMARK VINA RESULT:      -7.1     12.688     15.363
REMARK  Name = 4826
REMARK  4 active torsions:
REMARK  status: ('A' for Active; 'I' for Inactive)
REMARK    1  A    between atoms: N_1  and  C_15
REMARK    2  A    between atoms: N_2  and  C_8
REMARK    3  A    between atoms: N_3  and  C_14
REMARK    4  A    between atoms: C_15  and  C_17
REMARK                            x       y       z     vdW  Elec       q    Type
REMARK                         _______ _______ _______ _____ _____    ______ ____
ROOT
ATOM      1  N   UNL     1      35.649 -24.645 -14.748  0.00  0.00    -0.241 NA
ATOM      2  N   UNL     1      34.605 -23.097 -16.251  0.00  0.00    -0.324 N 
ATOM      3  N   UNL     1      36.976 -23.276 -16.114  0.00  0.00    -0.263 N 
ATOM      4  C   UNL     1      35.684 -23.742 -15.668  0.00  0.00    +0.211 C 
ATOM      5  H   UNL     1      34.821 -22.544 -17.037  0.00  0.00    +0.169 HD
ATOM      6  H   UNL     1      37.783 -23.832 -16.020  0.00  0.00    +0.181 HD
ENDROOT
BRANCH   2   8
ATOM      7  N   UNL     1      30.544 -23.154 -15.162  0.00  0.00    -0.242 NA
ATOM      8  C   UNL     1      33.240 -23.116 -15.885  0.00  0.00    +0.062 C 
ATOM      9  C   UNL     1      32.258 -23.084 -16.866  0.00  0.00    +0.038 C 
ATOM     10  C   UNL     1      32.881 -23.165 -14.545  0.00  0.00    +0.038 C 
ATOM     11  C   UNL     1      30.934 -23.105 -16.455  0.00  0.00    +0.100 C 
ATOM     12  C   UNL     1      31.531 -23.182 -14.238  0.00  0.00    +0.100 C 
ENDBRANCH   2   8
BRANCH   3  14
ATOM     13  N   UNL     1      37.084 -20.999 -17.149  0.00  0.00    -0.171 NA
ATOM     14  C   UNL     1      37.030 -22.053 -16.666  0.00  0.00    +0.184 C 
ENDBRANCH   3  14
BRANCH   1  15
ATOM     15  C   UNL     1      36.943 -25.126 -14.233  0.00  0.00    +0.106 C 
ATOM     16  C   UNL     1      37.150 -26.551 -14.744  0.00  0.00    +0.026 C 
BRANCH  15  17
ATOM     17  C   UNL     1      36.996 -24.948 -12.684  0.00  0.00    +0.021 C 
ATOM     18  C   UNL     1      35.605 -24.695 -12.073  0.00  0.00    +0.002 C 
ATOM     19  C   UNL     1      37.590 -26.218 -12.039  0.00  0.00    +0.002 C 
ATOM     20  C   UNL     1      37.911 -23.762 -12.317  0.00  0.00    +0.002 C 
ENDBRANCH  15  17
ENDBRANCH   1  15
TORSDOF 4
ENDMDL
MODEL 5
REMARK VINA RESULT:      -7.0     11.532     15.572
REMARK  Name = 4826
REMARK  4 active torsions:
REMARK  status: ('A' for Active; 'I' for Inactive)
REMARK    1  A    between atoms: N_1  and  C_15
REMARK    2  A    between atoms: N_2  and  C_8
REMARK    3  A    between atoms: N_3  and  C_14
REMARK    4  A    between atoms: C_15  and  C_17
REMARK                            x       y       z     vdW  Elec       q    Type
REMARK                         _______ _______ _______ _____ _____    ______ ____
ROOT
ATOM      1  N   UNL     1      35.713 -23.906 -14.427  0.00  0.00    -0.241 NA
ATOM      2  N   UNL     1      33.715 -23.382 -15.643  0.00  0.00    -0.324 N 
ATOM      3  N   UNL     1      33.627 -24.549 -13.569  0.00  0.00    -0.263 N 
ATOM      4  C   UNL     1      34.432 -23.897 -14.575  0.00  0.00    +0.211 C 
ATOM      5  H   UNL     1      32.741 -23.336 -15.511  0.00  0.00    +0.169 HD
ATOM      6  H   UNL     1      33.958 -24.678 -12.651  0.00  0.00    +0.181 HD
ENDROOT
BRANCH   2   8
ATOM      7  N   UNL     1      35.087 -21.988 -19.365  0.00  0.00    -0.242 NA
ATOM      8  C   UNL     1      34.176 -22.913 -16.894  0.00  0.00    +0.062 C 
ATOM      9  C   UNL     1      35.475 -22.439 -17.022  0.00  0.00    +0.038 C 
ATOM     10  C   UNL     1      33.331 -22.926 -17.995  0.00  0.00    +0.038 C 
ATOM     11  C   UNL     1      35.879 -21.991 -18.270  0.00  0.00    +0.100 C 
ATOM     12  C   UNL     1      33.830 -22.457 -19.199  0.00  0.00    +0.100 C 
ENDBRANCH   2   8
BRANCH   3  14
ATOM     13  N   UNL     1      31.350 -25.336 -14.247  0.00  0.00    -0.171 NA
ATOM     14  C   UNL     1      32.407 -24.970 -13.938  0.00  0.00    +0.184 C 
ENDBRANCH   3  14
BRANCH   1  15
ATOM     15  C   UNL     1      36.245 -24.585 -13.233  0.00  0.00    +0.106 C 
ATOM     16  C   UNL     1      36.474 -23.526 -12.155  0.00  0.00    +0.026 C 
BRANCH  15  17
ATOM     17  C   UNL     1      37.491 -25.439 -13.619  0.00  0.00    +0.021 C 
ATOM     18  C   UNL     1      37.109 -26.845 -14.120  0.00  0.00    +0.002 C 
ATOM     19  C   UNL     1      38.283 -24.722 -14.733  0.00  0.00    +0.002 C 
ATOM     20  C   UNL     1      38.426 -25.595 -12.402  0.00  0.00    +0.002 C 
ENDBRANCH  15  17
ENDBRANCH   1  15
TORSDOF 4
ENDMDL
MODEL 6
REMARK VINA RESULT:      -6.8      2.123      4.071
REMARK  Name = 4826
REMARK  4 active torsions:
REMARK  status: ('A' for Active; 'I' for Inactive)
REMARK    1  A    between atoms: N_1  and  C_15
REMARK    2  A    between atoms: N_2  and  C_8
REMARK    3  A    between atoms: N_3  and  C_14
REMARK    4  A    between atoms: C_15  and  C_17
REMARK                            x       y       z     vdW  Elec       q    Type
REMARK                         _______ _______ _______ _____ _____    ______ ____
ROOT
ATOM      1  N   UNL     1      32.275 -10.046 -23.055  0.00  0.00    -0.241 NA
ATOM      2  N   UNL     1      31.872 -11.993 -21.717  0.00  0.00    -0.324 N 
ATOM      3  N   UNL     1      31.357  -9.814 -20.909  0.00  0.00    -0.263 N 
ATOM      4  C   UNL     1      31.851 -10.635 -21.989  0.00  0.00    +0.211 C 
ATOM      5  H   UNL     1      31.373 -12.269 -20.914  0.00  0.00    +0.169 HD
ATOM      6  H   UNL     1      31.012  -8.905 -21.071  0.00  0.00    +0.181 HD
ENDROOT
BRANCH   2   8
ATOM      7  N   UNL     1      33.755 -15.115 -23.812  0.00  0.00    -0.242 NA
ATOM      8  C   UNL     1      32.504 -13.043 -22.421  0.00  0.00    +0.062 C 
ATOM      9  C   UNL     1      33.008 -12.819 -23.696  0.00  0.00    +0.038 C 
ATOM     10  C   UNL     1      32.623 -14.298 -21.839  0.00  0.00    +0.038 C 
ATOM     11  C   UNL     1      33.620 -13.880 -24.344  0.00  0.00    +0.100 C 
ATOM     12  C   UNL     1      33.251 -15.292 -22.570  0.00  0.00    +0.100 C 
ENDBRANCH   2   8
BRANCH   3  14
ATOM     13  N   UNL     1      31.414 -10.804 -18.611  0.00  0.00    -0.171 NA
ATOM     14  C   UNL     1      31.387 -10.340 -19.675  0.00  0.00    +0.184 C 
ENDBRANCH   3  14
BRANCH   1  15
ATOM     15  C   UNL     1      32.215  -8.574 -23.076  0.00  0.00    +0.106 C 
ATOM     16  C   UNL     1      31.087  -8.166 -24.024  0.00  0.00    +0.026 C 
BRANCH  15  17
ATOM     17  C   UNL     1      33.622  -7.991 -23.406  0.00  0.00    +0.021 C 
ATOM     18  C   UNL     1      33.547  -6.755 -24.323  0.00  0.00    +0.002 C 
ATOM     19  C   UNL     1      34.333  -7.586 -22.097  0.00  0.00    +0.002 C 
ATOM     20  C   UNL     1      34.491  -9.059 -24.101  0.00  0.00    +0.002 C 
ENDBRANCH  15  17
ENDBRANCH   1  15
TORSDOF 4
ENDMDL
MODEL 7
REMARK VINA RESULT:      -6.5      1.715      1.958
REMARK  Name = 4826
REMARK  4 active torsions:
REMARK  status: ('A' for Active; 'I' for Inactive)
REMARK    1  A    between atoms: N_1  and  C_15
REMARK    2  A    between atoms: N_2  and  C_8
REMARK    3  A    between atoms: N_3  and  C_14
REMARK    4  A    between atoms: C_15  and  C_17
REMARK                            x       y       z     vdW  Elec       q    Type
REMARK                         _______ _______ _______ _____ _____    ______ ____
ROOT
ATOM      1  N   UNL     1      33.502  -9.674 -23.345  0.00  0.00    -0.241 NA
ATOM      2  N   UNL     1      34.450 -11.734 -24.118  0.00  0.00    -0.324 N 
ATOM      3  N   UNL     1      34.980  -9.663 -25.166  0.00  0.00    -0.263 N 
ATOM      4  C   UNL     1      34.269 -10.360 -24.121  0.00  0.00    +0.211 C 
ATOM      5  H   UNL     1      35.184 -12.062 -24.687  0.00  0.00    +0.169 HD
ATOM      6  H   UNL     1      35.180  -8.700 -25.097  0.00  0.00    +0.181 HD
ENDROOT
BRANCH   2   8
ATOM      7  N   UNL     1      32.329 -14.712 -22.041  0.00  0.00    -0.242 NA
ATOM      8  C   UNL     1      33.737 -12.735 -23.420  0.00  0.00    +0.062 C 
ATOM      9  C   UNL     1      34.111 -14.067 -23.542  0.00  0.00    +0.038 C 
ATOM     10  C   UNL     1      32.662 -12.387 -22.613  0.00  0.00    +0.038 C 
ATOM     11  C   UNL     1      33.381 -15.010 -22.836  0.00  0.00    +0.100 C 
ATOM     12  C   UNL     1      31.997 -13.404 -21.950  0.00  0.00    +0.100 C 
ENDBRANCH   2   8
BRANCH   3  14
ATOM     13  N   UNL     1      35.696 -10.999 -27.158  0.00  0.00    -0.171 NA
ATOM     14  C   UNL     1      35.359 -10.380 -26.235  0.00  0.00    +0.184 C 
ENDBRANCH   3  14
BRANCH   1  15
ATOM     15  C   UNL     1      33.421  -8.224 -23.596  0.00  0.00    +0.106 C 
ATOM     16  C   UNL     1      34.750  -7.601 -23.170  0.00  0.00    +0.026 C 
BRANCH  15  17
ATOM     17  C   UNL     1      32.148  -7.638 -22.912  0.00  0.00    +0.021 C 
ATOM     18  C   UNL     1      30.884  -7.811 -23.775  0.00  0.00    +0.002 C 
ATOM     19  C   UNL     1      31.917  -8.344 -21.559  0.00  0.00    +0.002 C 
ATOM     20  C   UNL     1      32.341  -6.133 -22.631  0.00  0.00    +0.002 C 
ENDBRANCH  15  17
ENDBRANCH   1  15
TORSDOF 4
ENDMDL
MODEL 8
REMARK VINA RESULT:      -6.3      2.618      6.754
REMARK  Name = 4826
REMARK  4 active torsions:
REMARK  status: ('A' for Active; 'I' for Inactive)
REMARK    1  A    between atoms: N_1  and  C_15
REMARK    2  A    between atoms: N_2  and  C_8
REMARK    3  A    between atoms: N_3  and  C_14
REMARK    4  A    between atoms: C_15  and  C_17
REMARK                            x       y       z     vdW  Elec       q    Type
REMARK                         _______ _______ _______ _____ _____    ______ ____
ROOT
ATOM      1  N   UNL     1      34.040 -15.686 -22.716  0.00  0.00    -0.241 NA
ATOM      2  N   UNL     1      33.406 -13.434 -23.237  0.00  0.00    -0.324 N 
ATOM      3  N   UNL     1      33.248 -14.278 -21.016  0.00  0.00    -0.263 N 
ATOM      4  C   UNL     1      33.617 -14.512 -22.392  0.00  0.00    +0.211 C 
ATOM      5  H   UNL     1      33.221 -12.577 -22.787  0.00  0.00    +0.169 HD
ATOM      6  H   UNL     1      33.618 -14.824 -20.285  0.00  0.00    +0.181 HD
ENDROOT
BRANCH   2   8
ATOM      7  N   UNL     1      33.439 -13.279 -27.439  0.00  0.00    -0.242 NA
ATOM      8  C   UNL     1      33.417 -13.382 -24.649  0.00  0.00    +0.062 C 
ATOM      9  C   UNL     1      33.774 -12.207 -25.298  0.00  0.00    +0.038 C 
ATOM     10  C   UNL     1      33.071 -14.505 -25.388  0.00  0.00    +0.038 C 
ATOM     11  C   UNL     1      33.769 -12.207 -26.684  0.00  0.00    +0.100 C 
ATOM     12  C   UNL     1      33.097 -14.403 -26.769  0.00  0.00    +0.100 C 
ENDBRANCH   2   8
BRANCH   3  14
ATOM     13  N   UNL     1      31.636 -12.416 -20.566  0.00  0.00    -0.171 NA
ATOM     14  C   UNL     1      32.380 -13.283 -20.774  0.00  0.00    +0.184 C 
ENDBRANCH   3  14
BRANCH   1  15
ATOM     15  C   UNL     1      34.110 -16.692 -21.642  0.00  0.00    +0.106 C 
ATOM     16  C   UNL     1      34.907 -16.088 -20.486  0.00  0.00    +0.026 C 
BRANCH  15  17
ATOM     17  C   UNL     1      34.656 -18.038 -22.211  0.00  0.00    +0.021 C 
ATOM     18  C   UNL     1      34.668 -18.064 -23.751  0.00  0.00    +0.002 C 
ATOM     19  C   UNL     1      36.097 -18.264 -21.707  0.00  0.00    +0.002 C 
ATOM     20  C   UNL     1      33.793 -19.215 -21.712  0.00  0.00    +0.002 C 
ENDBRANCH  15  17
ENDBRANCH   1  15
TORSDOF 4
ENDMDL
MODEL 9
REMARK VINA RESULT:      -6.1      1.624      2.176
REMARK  Name = 4826
REMARK  4 active torsions:
REMARK  status: ('A' for Active; 'I' for Inactive)
REMARK    1  A    between atoms: N_1  and  C_15
REMARK    2  A    between atoms: N_2  and  C_8
REMARK    3  A    between atoms: N_3  and  C_14
REMARK    4  A    between atoms: C_15  and  C_17
REMARK                            x       y       z     vdW  Elec       q    Type
REMARK                         _______ _______ _______ _____ _____    ______ ____
ROOT
ATOM      1  N   UNL     1      33.462 -12.667 -22.970  0.00  0.00    -0.241 NA
ATOM      2  N   UNL     1      34.349 -14.699 -23.881  0.00  0.00    -0.324 N 
ATOM      3  N   UNL     1      33.331 -13.062 -25.278  0.00  0.00    -0.263 N 
ATOM      4  C   UNL     1      33.742 -13.455 -23.952  0.00  0.00    +0.211 C 
ATOM      5  H   UNL     1      34.612 -15.088 -24.746  0.00  0.00    +0.169 HD
ATOM      6  H   UNL     1      33.178 -12.117 -25.509  0.00  0.00    +0.181 HD
ENDROOT
BRANCH   2   8
ATOM      7  N   UNL     1      35.228 -17.062 -20.516  0.00  0.00    -0.242 NA
ATOM      8  C   UNL     1      34.645 -15.493 -22.750  0.00  0.00    +0.062 C 
ATOM      9  C   UNL     1      34.379 -15.012 -21.474  0.00  0.00    +0.038 C 
ATOM     10  C   UNL     1      35.201 -16.755 -22.913  0.00  0.00    +0.038 C 
ATOM     11  C   UNL     1      34.687 -15.829 -20.398  0.00  0.00    +0.100 C 
ATOM     12  C   UNL     1      35.472 -17.494 -21.774  0.00  0.00    +0.100 C 
ENDBRANCH   2   8
BRANCH   3  14
ATOM     13  N   UNL     1      33.019 -14.878 -26.973  0.00  0.00    -0.171 NA
ATOM     14  C   UNL     1      33.168 -14.038 -26.185  0.00  0.00    +0.184 C 
ENDBRANCH   3  14
BRANCH   1  15
ATOM     15  C   UNL     1      32.742 -11.424 -23.295  0.00  0.00    +0.106 C 
ATOM     16  C   UNL     1      33.770 -10.399 -23.772  0.00  0.00    +0.026 C 
BRANCH  15  17
ATOM     17  C   UNL     1      31.863 -10.987 -22.082  0.00  0.00    +0.021 C 
ATOM     18  C   UNL     1      30.372 -10.869 -22.449  0.00  0.00    +0.002 C 
ATOM     19  C   UNL     1      32.007 -12.019 -20.944  0.00  0.00    +0.002 C 
ATOM     20  C   UNL     1      32.341  -9.623 -21.543  0.00  0.00    +0.002 C 
ENDBRANCH  15  17
ENDBRANCH   1  15
TORSDOF 4
ENDMDL
