MODEL 1
REMARK VINA RESULT:      -9.9      0.000      0.000
REMARK  Name = 71605071
REMARK  7 active torsions:
REMARK  status: ('A' for Active; 'I' for Inactive)
REMARK    1  A    between atoms: N_1  and  C_13
REMARK    2  A    between atoms: C_15  and  C_18
REMARK    3  A    between atoms: C_18  and  O_19
REMARK    4  A    between atoms: O_19  and  C_21
REMARK    5  A    between atoms: C_21  and  C_22
REMARK    6  A    between atoms: C_22  and  O_23
REMARK    7  A    between atoms: N_25  and  C_27
REMARK                            x       y       z     vdW  Elec       q    Type
REMARK                         _______ _______ _______ _____ _____    ______ ____
ROOT
ATOM      1  N   UNL     1      34.381 -19.864 -21.056  0.00  0.00    -0.262 N 
ATOM      2  N   UNL     1      32.487 -20.739 -20.275  0.00  0.00    -0.240 NA
ATOM      3  N   UNL     1      34.857 -22.385 -17.961  0.00  0.00    -0.312 NA
ATOM      4  N   UNL     1      35.976 -20.920 -19.560  0.00  0.00    -0.311 NA
ATOM      5  N   UNL     1      37.184 -22.116 -17.951  0.00  0.00    -0.283 N 
ATOM      6  C   UNL     1      33.639 -22.097 -18.480  0.00  0.00    +0.215 C 
ATOM      7  C   UNL     1      34.741 -20.681 -20.023  0.00  0.00    +0.220 C 
ATOM      8  C   UNL     1      33.551 -21.215 -19.552  0.00  0.00    +0.167 C 
ATOM      9  C   UNL     1      33.018 -19.932 -21.168  0.00  0.00    +0.222 C 
ATOM     10  C   UNL     1      35.934 -21.787 -18.525  0.00  0.00    +0.199 C 
ATOM     11  H   UNL     1      37.228 -22.742 -17.193  0.00  0.00    +0.156 HD
ATOM     12  H   UNL     1      38.010 -21.719 -18.310  0.00  0.00    +0.156 HD
ATOM     13  N   UNL     1      32.483 -22.686 -17.938  0.00  0.00    -0.308 N 
ATOM     14  H   UNL     1      31.615 -22.453 -18.340  0.00  0.00    +0.149 HD
ENDROOT
BRANCH   1  15
ATOM     15  C   UNL     1      35.305 -19.033 -21.919  0.00  0.00    +0.077 C 
ATOM     16  C   UNL     1      35.256 -17.528 -21.590  0.00  0.00    +0.024 C 
ATOM     17  C   UNL     1      35.446 -16.798 -22.930  0.00  0.00    +0.046 C 
ATOM     18  C   UNL     1      34.975 -19.057 -23.382  0.00  0.00    +0.020 C 
ATOM     19  C   UNL     1      35.049 -17.839 -23.930  0.00  0.00    +0.005 C 
BRANCH  17  20
ATOM     20  C   UNL     1      34.604 -15.534 -23.021  0.00  0.00    +0.208 C 
BRANCH  20  21
ATOM     21  O   UNL     1      33.772 -15.623 -24.165  0.00  0.00    -0.447 OA
BRANCH  21  23
ATOM     22  O   UNL     1      33.242 -13.379 -24.054  0.00  0.00    -0.247 OA
ATOM     23  C   UNL     1      33.316 -14.433 -24.672  0.00  0.00    +0.347 C 
BRANCH  23  24
ATOM     24  C   UNL     1      32.916 -14.619 -26.112  0.00  0.00    +0.248 C 
BRANCH  24  25
ATOM     25  O   UNL     1      33.303 -15.913 -26.529  0.00  0.00    -0.372 OA
ATOM     26  H   UNL     1      33.537 -15.893 -27.470  0.00  0.00    +0.211 HD
ENDBRANCH  24  25
ENDBRANCH  23  24
ENDBRANCH  21  23
ENDBRANCH  20  21
ENDBRANCH  17  20
ENDBRANCH   1  15
BRANCH  13  27
ATOM     27  C   UNL     1      32.489 -23.621 -16.814  0.00  0.00    +0.071 C 
ATOM     28  C   UNL     1      31.275 -23.830 -15.954  0.00  0.00    +0.021 C 
ATOM     29  C   UNL     1      32.480 -23.137 -15.391  0.00  0.00    +0.021 C 
ENDBRANCH  13  27
TORSDOF 7
ENDMDL
MODEL 2
REMARK VINA RESULT:      -9.7      7.684      9.313
REMARK  Name = 71605071
REMARK  7 active torsions:
REMARK  status: ('A' for Active; 'I' for Inactive)
REMARK    1  A    between atoms: N_1  and  C_13
REMARK    2  A    between atoms: C_15  and  C_18
REMARK    3  A    between atoms: C_18  and  O_19
REMARK    4  A    between atoms: O_19  and  C_21
REMARK    5  A    between atoms: C_21  and  C_22
REMARK    6  A    between atoms: C_22  and  O_23
REMARK    7  A    between atoms: N_25  and  C_27
REMARK                            x       y       z     vdW  Elec       q    Type
REMARK                         _______ _______ _______ _____ _____    ______ ____
ROOT
ATOM      1  N   UNL     1      33.106 -24.033 -14.887  0.00  0.00    -0.262 N 
ATOM      2  N   UNL     1      34.898 -24.073 -16.212  0.00  0.00    -0.240 NA
ATOM      3  N   UNL     1      36.596 -24.546 -12.960  0.00  0.00    -0.312 NA
ATOM      4  N   UNL     1      34.175 -24.342 -12.729  0.00  0.00    -0.311 NA
ATOM      5  N   UNL     1      35.556 -24.652 -10.865  0.00  0.00    -0.283 N 
ATOM      6  C   UNL     1      36.525 -24.410 -14.307  0.00  0.00    +0.215 C 
ATOM      7  C   UNL     1      34.180 -24.213 -14.064  0.00  0.00    +0.220 C 
ATOM      8  C   UNL     1      35.281 -24.235 -14.905  0.00  0.00    +0.167 C 
ATOM      9  C   UNL     1      33.587 -23.954 -16.167  0.00  0.00    +0.222 C 
ATOM     10  C   UNL     1      35.434 -24.505 -12.266  0.00  0.00    +0.199 C 
ATOM     11  H   UNL     1      36.443 -24.774 -10.458  0.00  0.00    +0.156 HD
ATOM     12  H   UNL     1      34.752 -24.631 -10.296  0.00  0.00    +0.156 HD
ATOM     13  N   UNL     1      37.697 -24.445 -15.083  0.00  0.00    -0.308 N 
ATOM     14  H   UNL     1      37.607 -24.343 -16.058  0.00  0.00    +0.149 HD
ENDROOT
BRANCH   1  15
ATOM     15  C   UNL     1      31.654 -23.938 -14.476  0.00  0.00    +0.077 C 
ATOM     16  C   UNL     1      30.680 -24.445 -15.557  0.00  0.00    +0.024 C 
ATOM     17  C   UNL     1      29.433 -23.551 -15.454  0.00  0.00    +0.046 C 
ATOM     18  C   UNL     1      31.168 -22.540 -14.231  0.00  0.00    +0.020 C 
ATOM     19  C   UNL     1      29.961 -22.330 -14.767  0.00  0.00    +0.005 C 
BRANCH  17  20
ATOM     20  C   UNL     1      28.825 -23.251 -16.817  0.00  0.00    +0.208 C 
BRANCH  20  21
ATOM     21  O   UNL     1      28.219 -21.971 -16.772  0.00  0.00    -0.447 OA
BRANCH  21  23
ATOM     22  O   UNL     1      26.175 -22.251 -15.738  0.00  0.00    -0.247 OA
ATOM     23  C   UNL     1      26.849 -21.956 -16.715  0.00  0.00    +0.347 C 
BRANCH  23  24
ATOM     24  C   UNL     1      26.294 -21.519 -18.046  0.00  0.00    +0.248 C 
BRANCH  24  25
ATOM     25  O   UNL     1      25.928 -20.157 -17.964  0.00  0.00    -0.372 OA
ATOM     26  H   UNL     1      25.040 -20.038 -18.333  0.00  0.00    +0.211 HD
ENDBRANCH  24  25
ENDBRANCH  23  24
ENDBRANCH  21  23
ENDBRANCH  20  21
ENDBRANCH  17  20
ENDBRANCH   1  15
BRANCH  13  27
ATOM     27  C   UNL     1      39.040 -24.624 -14.533  0.00  0.00    +0.071 C 
ATOM     28  C   UNL     1      40.118 -25.338 -15.298  0.00  0.00    +0.021 C 
ATOM     29  C   UNL     1      39.526 -25.970 -14.074  0.00  0.00    +0.021 C 
ENDBRANCH  13  27
TORSDOF 7
ENDMDL
MODEL 3
REMARK VINA RESULT:      -9.7      7.661     10.174
REMARK  Name = 71605071
REMARK  7 active torsions:
REMARK  status: ('A' for Active; 'I' for Inactive)
REMARK    1  A    between atoms: N_1  and  C_13
REMARK    2  A    between atoms: C_15  and  C_18
REMARK    3  A    between atoms: C_18  and  O_19
REMARK    4  A    between atoms: O_19  and  C_21
REMARK    5  A    between atoms: C_21  and  C_22
REMARK    6  A    between atoms: C_22  and  O_23
REMARK    7  A    between atoms: N_25  and  C_27
REMARK                            x       y       z     vdW  Elec       q    Type
REMARK                         _______ _______ _______ _____ _____    ______ ____
ROOT
ATOM      1  N   UNL     1      34.626 -24.253 -15.331  0.00  0.00    -0.262 N 
ATOM      2  N   UNL     1      32.629 -24.159 -14.346  0.00  0.00    -0.240 NA
ATOM      3  N   UNL     1      31.730 -22.608 -17.580  0.00  0.00    -0.312 NA
ATOM      4  N   UNL     1      34.084 -23.240 -17.470  0.00  0.00    -0.311 NA
ATOM      5  N   UNL     1      33.182 -22.232 -19.379  0.00  0.00    -0.283 N 
ATOM      6  C   UNL     1      31.500 -23.066 -16.326  0.00  0.00    +0.215 C 
ATOM      7  C   UNL     1      33.786 -23.672 -16.236  0.00  0.00    +0.220 C 
ATOM      8  C   UNL     1      32.552 -23.623 -15.606  0.00  0.00    +0.167 C 
ATOM      9  C   UNL     1      33.886 -24.528 -14.212  0.00  0.00    +0.222 C 
ATOM     10  C   UNL     1      32.989 -22.722 -18.068  0.00  0.00    +0.199 C 
ATOM     11  H   UNL     1      32.427 -21.841 -19.874  0.00  0.00    +0.156 HD
ATOM     12  H   UNL     1      34.072 -22.282 -19.798  0.00  0.00    +0.156 HD
ATOM     13  N   UNL     1      30.214 -22.976 -15.766  0.00  0.00    -0.308 N 
ATOM     14  H   UNL     1      30.084 -23.319 -14.852  0.00  0.00    +0.149 HD
ENDROOT
BRANCH   1  15
ATOM     15  C   UNL     1      36.098 -24.545 -15.517  0.00  0.00    +0.077 C 
ATOM     16  C   UNL     1      36.688 -25.435 -14.405  0.00  0.00    +0.024 C 
ATOM     17  C   UNL     1      38.129 -24.943 -14.193  0.00  0.00    +0.046 C 
ATOM     18  C   UNL     1      36.983 -23.335 -15.468  0.00  0.00    +0.020 C 
ATOM     19  C   UNL     1      38.086 -23.552 -14.744  0.00  0.00    +0.005 C 
BRANCH  17  20
ATOM     20  C   UNL     1      38.544 -24.990 -12.729  0.00  0.00    +0.208 C 
BRANCH  20  21
ATOM     21  O   UNL     1      37.377 -25.057 -11.928  0.00  0.00    -0.447 OA
BRANCH  21  23
ATOM     22  O   UNL     1      37.647 -22.877 -11.218  0.00  0.00    -0.247 OA
ATOM     23  C   UNL     1      36.955 -23.872 -11.380  0.00  0.00    +0.347 C 
BRANCH  23  24
ATOM     24  C   UNL     1      35.500 -23.983 -11.005  0.00  0.00    +0.248 C 
BRANCH  24  25
ATOM     25  O   UNL     1      35.400 -24.625  -9.750  0.00  0.00    -0.372 OA
ATOM     26  H   UNL     1      36.207 -24.464  -9.239  0.00  0.00    +0.211 HD
ENDBRANCH  24  25
ENDBRANCH  23  24
ENDBRANCH  21  23
ENDBRANCH  20  21
ENDBRANCH  17  20
ENDBRANCH   1  15
BRANCH  13  27
ATOM     27  C   UNL     1      29.058 -22.404 -16.454  0.00  0.00    +0.071 C 
ATOM     28  C   UNL     1      27.672 -22.500 -15.882  0.00  0.00    +0.021 C 
ATOM     29  C   UNL     1      28.028 -23.278 -17.113  0.00  0.00    +0.021 C 
ENDBRANCH  13  27
TORSDOF 7
ENDMDL
MODEL 4
REMARK VINA RESULT:      -9.6      2.681      4.406
REMARK  Name = 71605071
REMARK  7 active torsions:
REMARK  status: ('A' for Active; 'I' for Inactive)
REMARK    1  A    between atoms: N_1  and  C_13
REMARK    2  A    between atoms: C_15  and  C_18
REMARK    3  A    between atoms: C_18  and  O_19
REMARK    4  A    between atoms: O_19  and  C_21
REMARK    5  A    between atoms: C_21  and  C_22
REMARK    6  A    between atoms: C_22  and  O_23
REMARK    7  A    between atoms: N_25  and  C_27
REMARK                            x       y       z     vdW  Elec       q    Type
REMARK                         _______ _______ _______ _____ _____    ______ ____
ROOT
ATOM      1  N   UNL     1      35.428 -21.888 -18.494  0.00  0.00    -0.262 N 
ATOM      2  N   UNL     1      37.110 -21.945 -17.033  0.00  0.00    -0.240 NA
ATOM      3  N   UNL     1      34.504 -23.542 -14.949  0.00  0.00    -0.312 NA
ATOM      4  N   UNL     1      33.684 -22.931 -17.165  0.00  0.00    -0.311 NA
ATOM      5  N   UNL     1      32.292 -23.963 -15.592  0.00  0.00    -0.283 N 
ATOM      6  C   UNL     1      35.742 -23.061 -15.224  0.00  0.00    +0.215 C 
ATOM      7  C   UNL     1      34.929 -22.476 -17.367  0.00  0.00    +0.220 C 
ATOM      8  C   UNL     1      35.988 -22.502 -16.473  0.00  0.00    +0.167 C 
ATOM      9  C   UNL     1      36.741 -21.587 -18.245  0.00  0.00    +0.222 C 
ATOM     10  C   UNL     1      33.567 -23.449 -15.922  0.00  0.00    +0.199 C 
ATOM     11  H   UNL     1      32.135 -24.355 -14.703  0.00  0.00    +0.156 HD
ATOM     12  H   UNL     1      31.561 -23.928 -16.251  0.00  0.00    +0.156 HD
ATOM     13  N   UNL     1      36.757 -23.130 -14.254  0.00  0.00    -0.308 N 
ATOM     14  H   UNL     1      37.644 -22.771 -14.489  0.00  0.00    +0.149 HD
ENDROOT
BRANCH   1  15
ATOM     15  C   UNL     1      34.683 -21.616 -19.781  0.00  0.00    +0.077 C 
ATOM     16  C   UNL     1      35.347 -20.533 -20.653  0.00  0.00    +0.024 C 
ATOM     17  C   UNL     1      34.196 -19.772 -21.331  0.00  0.00    +0.046 C 
ATOM     18  C   UNL     1      33.296 -21.076 -19.594  0.00  0.00    +0.020 C 
ATOM     19  C   UNL     1      33.034 -20.070 -20.436  0.00  0.00    +0.005 C 
BRANCH  17  20
ATOM     20  C   UNL     1      34.484 -18.283 -21.456  0.00  0.00    +0.208 C 
BRANCH  20  21
ATOM     21  O   UNL     1      35.472 -18.093 -22.454  0.00  0.00    -0.447 OA
BRANCH  21  23
ATOM     22  O   UNL     1      35.320 -15.926 -23.235  0.00  0.00    -0.247 OA
ATOM     23  C   UNL     1      35.200 -17.133 -23.395  0.00  0.00    +0.347 C 
BRANCH  23  24
ATOM     24  C   UNL     1      34.727 -17.793 -24.664  0.00  0.00    +0.248 C 
BRANCH  24  25
ATOM     25  O   UNL     1      34.823 -16.865 -25.725  0.00  0.00    -0.372 OA
ATOM     26  H   UNL     1      35.394 -17.226 -26.421  0.00  0.00    +0.211 HD
ENDBRANCH  24  25
ENDBRANCH  23  24
ENDBRANCH  21  23
ENDBRANCH  20  21
ENDBRANCH  17  20
ENDBRANCH   1  15
BRANCH  13  27
ATOM     27  C   UNL     1      36.580 -23.701 -12.919  0.00  0.00    +0.071 C 
ATOM     28  C   UNL     1      37.063 -22.990 -11.687  0.00  0.00    +0.021 C 
ATOM     29  C   UNL     1      37.744 -24.246 -12.141  0.00  0.00    +0.021 C 
ENDBRANCH  13  27
TORSDOF 7
ENDMDL
MODEL 5
REMARK VINA RESULT:      -9.4      4.748      9.333
REMARK  Name = 71605071
REMARK  7 active torsions:
REMARK  status: ('A' for Active; 'I' for Inactive)
REMARK    1  A    between atoms: N_1  and  C_13
REMARK    2  A    between atoms: C_15  and  C_18
REMARK    3  A    between atoms: C_18  and  O_19
REMARK    4  A    between atoms: O_19  and  C_21
REMARK    5  A    between atoms: C_21  and  C_22
REMARK    6  A    between atoms: C_22  and  O_23
REMARK    7  A    between atoms: N_25  and  C_27
REMARK                            x       y       z     vdW  Elec       q    Type
REMARK                         _______ _______ _______ _____ _____    ______ ____
ROOT
ATOM      1  N   UNL     1      34.609 -16.699 -22.187  0.00  0.00    -0.262 N 
ATOM      2  N   UNL     1      34.607 -14.623 -21.376  0.00  0.00    -0.240 NA
ATOM      3  N   UNL     1      33.503 -13.875 -24.826  0.00  0.00    -0.312 NA
ATOM      4  N   UNL     1      33.887 -16.258 -24.464  0.00  0.00    -0.311 NA
ATOM      5  N   UNL     1      33.180 -15.439 -26.539  0.00  0.00    -0.283 N 
ATOM      6  C   UNL     1      33.844 -13.579 -23.548  0.00  0.00    +0.215 C 
ATOM      7  C   UNL     1      34.212 -15.892 -23.215  0.00  0.00    +0.220 C 
ATOM      8  C   UNL     1      34.217 -14.609 -22.691  0.00  0.00    +0.167 C 
ATOM      9  C   UNL     1      34.834 -15.891 -21.104  0.00  0.00    +0.222 C 
ATOM     10  C   UNL     1      33.544 -15.177 -25.198  0.00  0.00    +0.199 C 
ATOM     11  H   UNL     1      32.919 -14.699 -27.132  0.00  0.00    +0.156 HD
ATOM     12  H   UNL     1      33.187 -16.364 -26.879  0.00  0.00    +0.156 HD
ATOM     13  N   UNL     1      33.820 -12.246 -23.102  0.00  0.00    -0.308 N 
ATOM     14  H   UNL     1      34.074 -12.068 -22.167  0.00  0.00    +0.149 HD
ENDROOT
BRANCH   1  15
ATOM     15  C   UNL     1      34.772 -18.202 -22.225  0.00  0.00    +0.077 C 
ATOM     16  C   UNL     1      33.506 -18.963 -21.786  0.00  0.00    +0.024 C 
ATOM     17  C   UNL     1      34.002 -20.217 -21.048  0.00  0.00    +0.046 C 
ATOM     18  C   UNL     1      35.814 -18.738 -21.288  0.00  0.00    +0.020 C 
ATOM     19  C   UNL     1      35.392 -19.832 -20.646  0.00  0.00    +0.005 C 
BRANCH  17  20
ATOM     20  C   UNL     1      33.117 -20.576 -19.863  0.00  0.00    +0.208 C 
BRANCH  20  21
ATOM     21  O   UNL     1      33.060 -21.987 -19.748  0.00  0.00    -0.447 OA
BRANCH  21  23
ATOM     22  O   UNL     1      34.978 -22.720 -18.693  0.00  0.00    -0.247 OA
ATOM     23  C   UNL     1      33.768 -22.536 -18.710  0.00  0.00    +0.347 C 
BRANCH  23  24
ATOM     24  C   UNL     1      32.827 -22.880 -17.585  0.00  0.00    +0.248 C 
BRANCH  24  25
ATOM     25  O   UNL     1      33.554 -23.533 -16.565  0.00  0.00    -0.372 OA
ATOM     26  H   UNL     1      33.103 -24.356 -16.322  0.00  0.00    +0.211 HD
ENDBRANCH  24  25
ENDBRANCH  23  24
ENDBRANCH  21  23
ENDBRANCH  20  21
ENDBRANCH  17  20
ENDBRANCH   1  15
BRANCH  13  27
ATOM     27  C   UNL     1      33.442 -11.107 -23.938  0.00  0.00    +0.071 C 
ATOM     28  C   UNL     1      34.362  -9.937 -24.142  0.00  0.00    +0.021 C 
ATOM     29  C   UNL     1      33.108  -9.771 -23.337  0.00  0.00    +0.021 C 
ENDBRANCH  13  27
TORSDOF 7
ENDMDL
MODEL 6
REMARK VINA RESULT:      -9.2      6.367     10.327
REMARK  Name = 71605071
REMARK  7 active torsions:
REMARK  status: ('A' for Active; 'I' for Inactive)
REMARK    1  A    between atoms: N_1  and  C_13
REMARK    2  A    between atoms: C_15  and  C_18
REMARK    3  A    between atoms: C_18  and  O_19
REMARK    4  A    between atoms: O_19  and  C_21
REMARK    5  A    between atoms: C_21  and  C_22
REMARK    6  A    between atoms: C_22  and  O_23
REMARK    7  A    between atoms: N_25  and  C_27
REMARK                            x       y       z     vdW  Elec       q    Type
REMARK                         _______ _______ _______ _____ _____    ______ ____
ROOT
ATOM      1  N   UNL     1      36.356 -23.007 -15.836  0.00  0.00    -0.262 N 
ATOM      2  N   UNL     1      37.573 -21.697 -17.166  0.00  0.00    -0.240 NA
ATOM      3  N   UNL     1      34.421 -21.681 -19.100  0.00  0.00    -0.312 NA
ATOM      4  N   UNL     1      34.265 -23.027 -17.071  0.00  0.00    -0.311 NA
ATOM      5  N   UNL     1      32.447 -22.802 -18.527  0.00  0.00    -0.283 N 
ATOM      6  C   UNL     1      35.709 -21.351 -18.838  0.00  0.00    +0.215 C 
ATOM      7  C   UNL     1      35.540 -22.662 -16.875  0.00  0.00    +0.220 C 
ATOM      8  C   UNL     1      36.314 -21.849 -17.688  0.00  0.00    +0.167 C 
ATOM      9  C   UNL     1      37.566 -22.404 -16.055  0.00  0.00    +0.222 C 
ATOM     10  C   UNL     1      33.788 -22.486 -18.213  0.00  0.00    +0.199 C 
ATOM     11  H   UNL     1      32.034 -22.442 -19.344  0.00  0.00    +0.156 HD
ATOM     12  H   UNL     1      31.925 -23.383 -17.926  0.00  0.00    +0.156 HD
ATOM     13  N   UNL     1      36.419 -20.519 -19.721  0.00  0.00    -0.308 N 
ATOM     14  H   UNL     1      37.353 -20.301 -19.498  0.00  0.00    +0.149 HD
ENDROOT
BRANCH   1  15
ATOM     15  C   UNL     1      36.002 -23.888 -14.659  0.00  0.00    +0.077 C 
ATOM     16  C   UNL     1      36.960 -23.722 -13.464  0.00  0.00    +0.024 C 
ATOM     17  C   UNL     1      37.080 -25.115 -12.823  0.00  0.00    +0.046 C 
ATOM     18  C   UNL     1      36.082 -25.360 -14.938  0.00  0.00    +0.020 C 
ATOM     19  C   UNL     1      36.673 -26.025 -13.940  0.00  0.00    +0.005 C 
BRANCH  17  20
ATOM     20  C   UNL     1      38.485 -25.394 -12.311  0.00  0.00    +0.208 C 
BRANCH  20  21
ATOM     21  O   UNL     1      39.414 -24.706 -13.131  0.00  0.00    -0.447 OA
BRANCH  21  23
ATOM     22  O   UNL     1      40.815 -26.469 -13.638  0.00  0.00    -0.247 OA
ATOM     23  C   UNL     1      40.167 -25.486 -13.971  0.00  0.00    +0.347 C 
BRANCH  23  24
ATOM     24  C   UNL     1      40.077 -24.946 -15.374  0.00  0.00    +0.248 C 
BRANCH  24  25
ATOM     25  O   UNL     1      40.439 -25.968 -16.281  0.00  0.00    -0.372 OA
ATOM     26  H   UNL     1      41.002 -26.616 -15.830  0.00  0.00    +0.211 HD
ENDBRANCH  24  25
ENDBRANCH  23  24
ENDBRANCH  21  23
ENDBRANCH  20  21
ENDBRANCH  17  20
ENDBRANCH   1  15
BRANCH  13  27
ATOM     27  C   UNL     1      35.858 -19.957 -20.949  0.00  0.00    +0.071 C 
ATOM     28  C   UNL     1      36.432 -18.724 -21.587  0.00  0.00    +0.021 C 
ATOM     29  C   UNL     1      35.082 -18.669 -20.937  0.00  0.00    +0.021 C 
ENDBRANCH  13  27
TORSDOF 7
ENDMDL
MODEL 7
REMARK VINA RESULT:      -9.1      5.266      8.178
REMARK  Name = 71605071
REMARK  7 active torsions:
REMARK  status: ('A' for Active; 'I' for Inactive)
REMARK    1  A    between atoms: N_1  and  C_13
REMARK    2  A    between atoms: C_15  and  C_18
REMARK    3  A    between atoms: C_18  and  O_19
REMARK    4  A    between atoms: O_19  and  C_21
REMARK    5  A    between atoms: C_21  and  C_22
REMARK    6  A    between atoms: C_22  and  O_23
REMARK    7  A    between atoms: N_25  and  C_27
REMARK                            x       y       z     vdW  Elec       q    Type
REMARK                         _______ _______ _______ _____ _____    ______ ____
ROOT
ATOM      1  N   UNL     1      32.211 -13.250 -21.301  0.00  0.00    -0.262 N 
ATOM      2  N   UNL     1      33.312 -15.090 -20.692  0.00  0.00    -0.240 NA
ATOM      3  N   UNL     1      33.841 -15.306 -24.346  0.00  0.00    -0.312 NA
ATOM      4  N   UNL     1      32.531 -13.349 -23.706  0.00  0.00    -0.311 NA
ATOM      5  N   UNL     1      33.050 -13.789 -25.945  0.00  0.00    -0.283 N 
ATOM      6  C   UNL     1      33.958 -15.708 -23.057  0.00  0.00    +0.215 C 
ATOM      7  C   UNL     1      32.686 -13.805 -22.454  0.00  0.00    +0.220 C 
ATOM      8  C   UNL     1      33.366 -14.945 -22.055  0.00  0.00    +0.167 C 
ATOM      9  C   UNL     1      32.612 -14.058 -20.270  0.00  0.00    +0.222 C 
ATOM     10  C   UNL     1      33.146 -14.169 -24.587  0.00  0.00    +0.199 C 
ATOM     11  H   UNL     1      33.474 -14.340 -26.641  0.00  0.00    +0.156 HD
ATOM     12  H   UNL     1      32.559 -12.972 -26.195  0.00  0.00    +0.156 HD
ATOM     13  N   UNL     1      34.668 -16.879 -22.744  0.00  0.00    -0.308 N 
ATOM     14  H   UNL     1      34.732 -17.140 -21.796  0.00  0.00    +0.149 HD
ENDROOT
BRANCH   1  15
ATOM     15  C   UNL     1      31.395 -11.984 -21.173  0.00  0.00    +0.077 C 
ATOM     16  C   UNL     1      31.743 -10.925 -22.237  0.00  0.00    +0.024 C 
ATOM     17  C   UNL     1      31.592  -9.562 -21.542  0.00  0.00    +0.046 C 
ATOM     18  C   UNL     1      31.607 -11.235 -19.890  0.00  0.00    +0.020 C 
ATOM     19  C   UNL     1      31.718  -9.918 -20.093  0.00  0.00    +0.005 C 
BRANCH  17  20
ATOM     20  C   UNL     1      32.643  -8.562 -22.001  0.00  0.00    +0.208 C 
BRANCH  20  21
ATOM     21  O   UNL     1      33.070  -8.917 -23.305  0.00  0.00    -0.447 OA
BRANCH  21  23
ATOM     22  O   UNL     1      34.950  -7.579 -23.247  0.00  0.00    -0.247 OA
ATOM     23  C   UNL     1      34.359  -8.580 -23.629  0.00  0.00    +0.347 C 
BRANCH  23  24
ATOM     24  C   UNL     1      34.942  -9.634 -24.533  0.00  0.00    +0.248 C 
BRANCH  24  25
ATOM     25  O   UNL     1      34.581 -10.909 -24.040  0.00  0.00    -0.372 OA
ATOM     26  H   UNL     1      35.169 -11.151 -23.308  0.00  0.00    +0.211 HD
ENDBRANCH  24  25
ENDBRANCH  23  24
ENDBRANCH  21  23
ENDBRANCH  20  21
ENDBRANCH  17  20
ENDBRANCH   1  15
BRANCH  13  27
ATOM     27  C   UNL     1      35.317 -17.736 -23.735  0.00  0.00    +0.071 C 
ATOM     28  C   UNL     1      34.521 -18.582 -24.688  0.00  0.00    +0.021 C 
ATOM     29  C   UNL     1      35.318 -19.232 -23.597  0.00  0.00    +0.021 C 
ENDBRANCH  13  27
TORSDOF 7
ENDMDL
MODEL 8
REMARK VINA RESULT:      -9.0      5.811      8.938
REMARK  Name = 71605071
REMARK  7 active torsions:
REMARK  status: ('A' for Active; 'I' for Inactive)
REMARK    1  A    between atoms: N_1  and  C_13
REMARK    2  A    between atoms: C_15  and  C_18
REMARK    3  A    between atoms: C_18  and  O_19
REMARK    4  A    between atoms: O_19  and  C_21
REMARK    5  A    between atoms: C_21  and  C_22
REMARK    6  A    between atoms: C_22  and  O_23
REMARK    7  A    between atoms: N_25  and  C_27
REMARK                            x       y       z     vdW  Elec       q    Type
REMARK                         _______ _______ _______ _____ _____    ______ ____
ROOT
ATOM      1  N   UNL     1      32.257 -13.106 -21.773  0.00  0.00    -0.262 N 
ATOM      2  N   UNL     1      33.336 -14.917 -21.047  0.00  0.00    -0.240 NA
ATOM      3  N   UNL     1      33.750 -15.439 -24.686  0.00  0.00    -0.312 NA
ATOM      4  N   UNL     1      32.503 -13.406 -24.170  0.00  0.00    -0.311 NA
ATOM      5  N   UNL     1      32.946 -14.037 -26.380  0.00  0.00    -0.283 N 
ATOM      6  C   UNL     1      33.897 -15.738 -23.372  0.00  0.00    +0.215 C 
ATOM      7  C   UNL     1      32.686 -13.763 -22.890  0.00  0.00    +0.220 C 
ATOM      8  C   UNL     1      33.353 -14.883 -22.419  0.00  0.00    +0.167 C 
ATOM      9  C   UNL     1      32.672 -13.838 -20.691  0.00  0.00    +0.222 C 
ATOM     10  C   UNL     1      33.074 -14.309 -24.998  0.00  0.00    +0.199 C 
ATOM     11  H   UNL     1      33.337 -14.652 -27.040  0.00  0.00    +0.156 HD
ATOM     12  H   UNL     1      32.465 -13.232 -26.681  0.00  0.00    +0.156 HD
ATOM     13  N   UNL     1      34.591 -16.898 -22.984  0.00  0.00    -0.308 N 
ATOM     14  H   UNL     1      34.678 -17.083 -22.021  0.00  0.00    +0.149 HD
ENDROOT
BRANCH   1  15
ATOM     15  C   UNL     1      31.473 -11.814 -21.725  0.00  0.00    +0.077 C 
ATOM     16  C   UNL     1      32.102 -10.689 -22.570  0.00  0.00    +0.024 C 
ATOM     17  C   UNL     1      31.828  -9.384 -21.805  0.00  0.00    +0.046 C 
ATOM     18  C   UNL     1      31.389 -11.189 -20.364  0.00  0.00    +0.020 C 
ATOM     19  C   UNL     1      31.585  -9.867 -20.409  0.00  0.00    +0.005 C 
BRANCH  17  20
ATOM     20  C   UNL     1      32.988  -8.404 -21.903  0.00  0.00    +0.208 C 
BRANCH  20  21
ATOM     21  O   UNL     1      32.550  -7.246 -22.591  0.00  0.00    -0.447 OA
BRANCH  21  23
ATOM     22  O   UNL     1      32.055  -6.160 -20.616  0.00  0.00    -0.247 OA
ATOM     23  C   UNL     1      31.935  -6.288 -21.826  0.00  0.00    +0.347 C 
BRANCH  23  24
ATOM     24  C   UNL     1      31.081  -5.413 -22.707  0.00  0.00    +0.248 C 
BRANCH  24  25
ATOM     25  O   UNL     1      30.373  -4.500 -21.893  0.00  0.00    -0.372 OA
ATOM     26  H   UNL     1      30.648  -3.595 -22.109  0.00  0.00    +0.211 HD
ENDBRANCH  24  25
ENDBRANCH  23  24
ENDBRANCH  21  23
ENDBRANCH  20  21
ENDBRANCH  17  20
ENDBRANCH   1  15
BRANCH  13  27
ATOM     27  C   UNL     1      35.191 -17.846 -23.921  0.00  0.00    +0.071 C 
ATOM     28  C   UNL     1      34.350 -18.695 -24.833  0.00  0.00    +0.021 C 
ATOM     29  C   UNL     1      35.100 -19.330 -23.700  0.00  0.00    +0.021 C 
ENDBRANCH  13  27
TORSDOF 7
ENDMDL
MODEL 9
REMARK VINA RESULT:      -8.9      4.023      6.619
REMARK  Name = 71605071
REMARK  7 active torsions:
REMARK  status: ('A' for Active; 'I' for Inactive)
REMARK    1  A    between atoms: N_1  and  C_13
REMARK    2  A    between atoms: C_15  and  C_18
REMARK    3  A    between atoms: C_18  and  O_19
REMARK    4  A    between atoms: O_19  and  C_21
REMARK    5  A    between atoms: C_21  and  C_22
REMARK    6  A    between atoms: C_22  and  O_23
REMARK    7  A    between atoms: N_25  and  C_27
REMARK                            x       y       z     vdW  Elec       q    Type
REMARK                         _______ _______ _______ _____ _____    ______ ____
ROOT
ATOM      1  N   UNL     1      33.645 -14.611 -22.225  0.00  0.00    -0.262 N 
ATOM      2  N   UNL     1      34.598 -15.574 -20.456  0.00  0.00    -0.240 NA
ATOM      3  N   UNL     1      35.205 -18.246 -22.940  0.00  0.00    -0.312 NA
ATOM      4  N   UNL     1      34.020 -16.337 -23.892  0.00  0.00    -0.311 NA
ATOM      5  N   UNL     1      34.565 -18.204 -25.193  0.00  0.00    -0.283 N 
ATOM      6  C   UNL     1      35.260 -17.662 -21.718  0.00  0.00    +0.215 C 
ATOM      7  C   UNL     1      34.110 -15.820 -22.658  0.00  0.00    +0.220 C 
ATOM      8  C   UNL     1      34.698 -16.401 -21.546  0.00  0.00    +0.167 C 
ATOM      9  C   UNL     1      33.962 -14.509 -20.897  0.00  0.00    +0.222 C 
ATOM     10  C   UNL     1      34.599 -17.557 -23.936  0.00  0.00    +0.199 C 
ATOM     11  H   UNL     1      34.968 -19.096 -25.298  0.00  0.00    +0.156 HD
ATOM     12  H   UNL     1      34.140 -17.762 -25.963  0.00  0.00    +0.156 HD
ATOM     13  N   UNL     1      35.878 -18.327 -20.645  0.00  0.00    -0.308 N 
ATOM     14  H   UNL     1      35.899 -17.872 -19.772  0.00  0.00    +0.149 HD
ENDROOT
BRANCH   1  15
ATOM     15  C   UNL     1      32.918 -13.572 -23.048  0.00  0.00    +0.077 C 
ATOM     16  C   UNL     1      33.861 -12.697 -23.897  0.00  0.00    +0.024 C 
ATOM     17  C   UNL     1      33.228 -11.296 -23.923  0.00  0.00    +0.046 C 
ATOM     18  C   UNL     1      32.169 -12.553 -22.241  0.00  0.00    +0.020 C 
ATOM     19  C   UNL     1      32.341 -11.315 -22.716  0.00  0.00    +0.005 C 
BRANCH  17  20
ATOM     20  C   UNL     1      34.272 -10.191 -23.877  0.00  0.00    +0.208 C 
BRANCH  20  21
ATOM     21  O   UNL     1      33.626  -8.945 -24.073  0.00  0.00    -0.447 OA
BRANCH  21  23
ATOM     22  O   UNL     1      35.092  -7.413 -23.162  0.00  0.00    -0.247 OA
ATOM     23  C   UNL     1      33.988  -7.937 -23.216  0.00  0.00    +0.347 C 
BRANCH  23  24
ATOM     24  C   UNL     1      32.815  -7.572 -22.344  0.00  0.00    +0.248 C 
BRANCH  24  25
ATOM     25  O   UNL     1      33.184  -7.738 -20.990  0.00  0.00    -0.372 OA
ATOM     26  H   UNL     1      32.595  -8.385 -20.571  0.00  0.00    +0.211 HD
ENDBRANCH  24  25
ENDBRANCH  23  24
ENDBRANCH  21  23
ENDBRANCH  20  21
ENDBRANCH  17  20
ENDBRANCH   1  15
BRANCH  13  27
ATOM     27  C   UNL     1      36.490 -19.651 -20.743  0.00  0.00    +0.071 C 
ATOM     28  C   UNL     1      35.721 -20.902 -20.426  0.00  0.00    +0.021 C 
ATOM     29  C   UNL     1      36.824 -20.452 -19.516  0.00  0.00    +0.021 C 
ENDBRANCH  13  27
TORSDOF 7
ENDMDL
