MODEL 1
REMARK VINA RESULT:     -10.9      0.000      0.000
REMARK  Name = 118599727
REMARK  3 active torsions:
REMARK  status: ('A' for Active; 'I' for Inactive)
REMARK    1  A    between atoms: C_5  and  C_26
REMARK    2  A    between atoms: C_9  and  C_17
REMARK    3  A    between atoms: C_26  and  C_29
REMARK                            x       y       z     vdW  Elec       q    Type
REMARK                         _______ _______ _______ _____ _____    ______ ____
ROOT
ATOM      1  F   UNL     1      32.591  -6.135 -21.610  0.00  0.00    -0.204 F 
ATOM      2  O   UNL     1      30.964 -10.544 -21.484  0.00  0.00    -0.472 OA
ATOM      3  O   UNL     1      34.492 -11.210 -25.149  0.00  0.00    -0.270 OA
ATOM      4  N   UNL     1      32.985 -11.463 -23.336  0.00  0.00    -0.250 N 
ATOM      5  C   UNL     1      32.159 -12.391 -22.523  0.00  0.00    +0.133 C 
ATOM      6  C   UNL     1      30.812 -11.739 -22.241  0.00  0.00    +0.226 C 
ATOM      7  C   UNL     1      32.890 -10.078 -22.936  0.00  0.00    +0.088 C 
ATOM      8  C   UNL     1      31.894  -9.686 -22.019  0.00  0.00    +0.154 C 
ATOM      9  C   UNL     1      33.777 -11.892 -24.418  0.00  0.00    +0.253 C 
ATOM     10  C   UNL     1      33.777  -9.088 -23.385  0.00  0.00    +0.020 C 
ATOM     11  C   UNL     1      31.799  -8.364 -21.567  0.00  0.00    +0.068 C 
ATOM     12  C   UNL     1      33.671  -7.763 -22.944  0.00  0.00    +0.031 C 
ATOM     13  C   UNL     1      32.684  -7.401 -22.036  0.00  0.00    +0.143 C 
ENDROOT
BRANCH   9  17
ATOM     14  O   UNL     1      33.668 -17.326 -25.868  0.00  0.00    -0.464 OA
ATOM     15  O   UNL     1      35.906 -18.689 -23.379  0.00  0.00    -0.271 OA
ATOM     16  N   UNL     1      35.253 -16.504 -23.675  0.00  0.00    -0.278 N 
ATOM     17  C   UNL     1      33.747 -13.318 -24.774  0.00  0.00    +0.055 C 
ATOM     18  C   UNL     1      34.503 -14.235 -24.042  0.00  0.00    +0.022 C 
ATOM     19  C   UNL     1      34.469 -15.587 -24.383  0.00  0.00    +0.085 C 
ATOM     20  C   UNL     1      32.971 -13.752 -25.848  0.00  0.00    +0.008 C 
ATOM     21  C   UNL     1      33.691 -16.023 -25.455  0.00  0.00    +0.153 C 
ATOM     22  C   UNL     1      32.948 -15.103 -26.195  0.00  0.00    +0.038 C 
ATOM     23  C   UNL     1      34.075 -18.253 -24.881  0.00  0.00    +0.290 C 
ATOM     24  C   UNL     1      35.188 -17.854 -23.927  0.00  0.00    +0.271 C 
ATOM     25  H   UNL     1      35.867 -16.173 -22.980  0.00  0.00    +0.155 HD
ENDBRANCH   9  17
BRANCH   5  26
ATOM     26  C   UNL     1      32.885 -12.801 -21.236  0.00  0.00    +0.109 C 
BRANCH  26  29
ATOM     27  O   UNL     1      32.119 -15.090 -21.396  0.00  0.00    -0.275 OA
ATOM     28  N   UNL     1      34.271 -14.654 -20.631  0.00  0.00    -0.303 N 
ATOM     29  C   UNL     1      33.017 -14.302 -21.109  0.00  0.00    +0.224 C 
ATOM     30  C   UNL     1      34.675 -16.023 -20.409  0.00  0.00    +0.111 C 
ATOM     31  H   UNL     1      34.915 -13.937 -20.434  0.00  0.00    +0.149 HD
ENDBRANCH  26  29
ENDBRANCH   5  26
TORSDOF 3
ENDMDL
MODEL 2
REMARK VINA RESULT:     -10.1     11.017     14.853
REMARK  Name = 118599727
REMARK  3 active torsions:
REMARK  status: ('A' for Active; 'I' for Inactive)
REMARK    1  A    between atoms: C_5  and  C_26
REMARK    2  A    between atoms: C_9  and  C_17
REMARK    3  A    between atoms: C_26  and  C_29
REMARK                            x       y       z     vdW  Elec       q    Type
REMARK                         _______ _______ _______ _____ _____    ______ ____
ROOT
ATOM      1  F   UNL     1      39.253 -23.526 -11.553  0.00  0.00    -0.204 F 
ATOM      2  O   UNL     1      36.760 -24.932 -15.281  0.00  0.00    -0.472 OA
ATOM      3  O   UNL     1      32.821 -23.617 -12.267  0.00  0.00    -0.270 OA
ATOM      4  N   UNL     1      34.273 -24.065 -14.088  0.00  0.00    -0.250 N 
ATOM      5  C   UNL     1      34.397 -24.405 -15.527  0.00  0.00    +0.133 C 
ATOM      6  C   UNL     1      35.499 -25.442 -15.700  0.00  0.00    +0.226 C 
ATOM      7  C   UNL     1      35.535 -23.942 -13.396  0.00  0.00    +0.088 C 
ATOM      8  C   UNL     1      36.720 -24.367 -14.029  0.00  0.00    +0.154 C 
ATOM      9  C   UNL     1      33.031 -23.897 -13.445  0.00  0.00    +0.253 C 
ATOM     10  C   UNL     1      35.657 -23.372 -12.119  0.00  0.00    +0.020 C 
ATOM     11  C   UNL     1      37.968 -24.220 -13.414  0.00  0.00    +0.068 C 
ATOM     12  C   UNL     1      36.906 -23.239 -11.499  0.00  0.00    +0.031 C 
ATOM     13  C   UNL     1      38.060 -23.662 -12.145  0.00  0.00    +0.143 C 
ENDROOT
BRANCH   9  17
ATOM     14  O   UNL     1      28.332 -24.772 -16.411  0.00  0.00    -0.464 OA
ATOM     15  O   UNL     1      27.404 -21.357 -17.146  0.00  0.00    -0.271 OA
ATOM     16  N   UNL     1      29.216 -22.124 -15.955  0.00  0.00    -0.278 N 
ATOM     17  C   UNL     1      31.810 -24.109 -14.236  0.00  0.00    +0.055 C 
ATOM     18  C   UNL     1      31.104 -23.013 -14.734  0.00  0.00    +0.022 C 
ATOM     19  C   UNL     1      29.946 -23.221 -15.485  0.00  0.00    +0.085 C 
ATOM     20  C   UNL     1      31.353 -25.404 -14.480  0.00  0.00    +0.008 C 
ATOM     21  C   UNL     1      29.491 -24.515 -15.733  0.00  0.00    +0.153 C 
ATOM     22  C   UNL     1      30.189 -25.608 -15.221  0.00  0.00    +0.038 C 
ATOM     23  C   UNL     1      27.900 -23.711 -17.241  0.00  0.00    +0.290 C 
ATOM     24  C   UNL     1      28.116 -22.285 -16.765  0.00  0.00    +0.271 C 
ATOM     25  H   UNL     1      29.496 -21.216 -15.699  0.00  0.00    +0.155 HD
ENDBRANCH   9  17
BRANCH   5  26
ATOM     26  C   UNL     1      34.644 -23.152 -16.376  0.00  0.00    +0.109 C 
BRANCH  26  29
ATOM     27  O   UNL     1      32.664 -23.722 -17.644  0.00  0.00    -0.275 OA
ATOM     28  N   UNL     1      34.159 -22.159 -18.498  0.00  0.00    -0.303 N 
ATOM     29  C   UNL     1      33.698 -23.066 -17.553  0.00  0.00    +0.224 C 
ATOM     30  C   UNL     1      33.456 -21.876 -19.728  0.00  0.00    +0.111 C 
ATOM     31  H   UNL     1      35.004 -21.687 -18.321  0.00  0.00    +0.149 HD
ENDBRANCH  26  29
ENDBRANCH   5  26
TORSDOF 3
ENDMDL
MODEL 3
REMARK VINA RESULT:      -9.6      2.193      4.165
REMARK  Name = 118599727
REMARK  3 active torsions:
REMARK  status: ('A' for Active; 'I' for Inactive)
REMARK    1  A    between atoms: C_5  and  C_26
REMARK    2  A    between atoms: C_9  and  C_17
REMARK    3  A    between atoms: C_26  and  C_29
REMARK                            x       y       z     vdW  Elec       q    Type
REMARK                         _______ _______ _______ _____ _____    ______ ____
ROOT
ATOM      1  F   UNL     1      30.885  -8.012 -22.874  0.00  0.00    -0.204 F 
ATOM      2  O   UNL     1      33.732 -11.376 -24.509  0.00  0.00    -0.472 OA
ATOM      3  O   UNL     1      32.237 -13.757 -20.217  0.00  0.00    -0.270 OA
ATOM      4  N   UNL     1      32.965 -13.205 -22.405  0.00  0.00    -0.250 N 
ATOM      5  C   UNL     1      33.696 -13.642 -23.620  0.00  0.00    +0.133 C 
ATOM      6  C   UNL     1      34.543 -12.484 -24.133  0.00  0.00    +0.226 C 
ATOM      7  C   UNL     1      32.436 -11.864 -22.479  0.00  0.00    +0.088 C 
ATOM      8  C   UNL     1      32.832 -11.017 -23.534  0.00  0.00    +0.154 C 
ATOM      9  C   UNL     1      32.819 -14.022 -21.266  0.00  0.00    +0.253 C 
ATOM     10  C   UNL     1      31.497 -11.357 -21.566  0.00  0.00    +0.020 C 
ATOM     11  C   UNL     1      32.305  -9.728 -23.671  0.00  0.00    +0.068 C 
ATOM     12  C   UNL     1      30.983 -10.062 -21.697  0.00  0.00    +0.031 C 
ATOM     13  C   UNL     1      31.385  -9.247 -22.748  0.00  0.00    +0.143 C 
ENDROOT
BRANCH   9  17
ATOM     14  O   UNL     1      35.324 -19.057 -21.276  0.00  0.00    -0.464 OA
ATOM     15  O   UNL     1      32.544 -21.148 -20.295  0.00  0.00    -0.271 OA
ATOM     16  N   UNL     1      32.586 -18.868 -20.593  0.00  0.00    -0.278 N 
ATOM     17  C   UNL     1      33.454 -15.347 -21.279  0.00  0.00    +0.055 C 
ATOM     18  C   UNL     1      32.710 -16.479 -20.945  0.00  0.00    +0.022 C 
ATOM     19  C   UNL     1      33.319 -17.735 -20.962  0.00  0.00    +0.085 C 
ATOM     20  C   UNL     1      34.802 -15.470 -21.616  0.00  0.00    +0.008 C 
ATOM     21  C   UNL     1      34.665 -17.860 -21.302  0.00  0.00    +0.153 C 
ATOM     22  C   UNL     1      35.411 -16.726 -21.620  0.00  0.00    +0.038 C 
ATOM     23  C   UNL     1      34.477 -20.187 -21.361  0.00  0.00    +0.290 C 
ATOM     24  C   UNL     1      33.124 -20.132 -20.672  0.00  0.00    +0.271 C 
ATOM     25  H   UNL     1      31.663 -18.758 -20.268  0.00  0.00    +0.155 HD
ENDBRANCH   9  17
BRANCH   5  26
ATOM     26  C   UNL     1      32.733 -14.172 -24.689  0.00  0.00    +0.109 C 
BRANCH  26  29
ATOM     27  O   UNL     1      33.421 -15.189 -26.773  0.00  0.00    -0.275 OA
ATOM     28  N   UNL     1      33.869 -16.275 -24.768  0.00  0.00    -0.303 N 
ATOM     29  C   UNL     1      33.367 -15.243 -25.548  0.00  0.00    +0.224 C 
ATOM     30  C   UNL     1      34.528 -17.435 -25.322  0.00  0.00    +0.111 C 
ATOM     31  H   UNL     1      33.770 -16.215 -23.790  0.00  0.00    +0.149 HD
ENDBRANCH  26  29
ENDBRANCH   5  26
TORSDOF 3
ENDMDL
MODEL 4
REMARK VINA RESULT:      -9.3      3.203      7.333
REMARK  Name = 118599727
REMARK  3 active torsions:
REMARK  status: ('A' for Active; 'I' for Inactive)
REMARK    1  A    between atoms: C_5  and  C_26
REMARK    2  A    between atoms: C_9  and  C_17
REMARK    3  A    between atoms: C_26  and  C_29
REMARK                            x       y       z     vdW  Elec       q    Type
REMARK                         _______ _______ _______ _____ _____    ______ ____
ROOT
ATOM      1  F   UNL     1      34.070 -18.933 -25.127  0.00  0.00    -0.204 F 
ATOM      2  O   UNL     1      34.291 -15.446 -21.982  0.00  0.00    -0.472 OA
ATOM      3  O   UNL     1      33.932 -12.552 -26.204  0.00  0.00    -0.270 OA
ATOM      4  N   UNL     1      33.816 -13.437 -24.007  0.00  0.00    -0.250 N 
ATOM      5  C   UNL     1      33.710 -13.153 -22.554  0.00  0.00    +0.133 C 
ATOM      6  C   UNL     1      34.650 -14.082 -21.796  0.00  0.00    +0.226 C 
ATOM      7  C   UNL     1      33.908 -14.842 -24.333  0.00  0.00    +0.088 C 
ATOM      8  C   UNL     1      34.127 -15.781 -23.305  0.00  0.00    +0.154 C 
ATOM      9  C   UNL     1      33.847 -12.424 -24.984  0.00  0.00    +0.253 C 
ATOM     10  C   UNL     1      33.747 -15.339 -25.635  0.00  0.00    +0.020 C 
ATOM     11  C   UNL     1      34.172 -17.155 -23.570  0.00  0.00    +0.068 C 
ATOM     12  C   UNL     1      33.808 -16.713 -25.901  0.00  0.00    +0.031 C 
ATOM     13  C   UNL     1      34.020 -17.620 -24.870  0.00  0.00    +0.143 C 
ENDROOT
BRANCH   9  17
ATOM     14  O   UNL     1      33.763  -7.052 -23.320  0.00  0.00    -0.464 OA
ATOM     15  O   UNL     1      30.239  -6.663 -22.617  0.00  0.00    -0.271 OA
ATOM     16  N   UNL     1      31.351  -8.528 -23.375  0.00  0.00    -0.278 N 
ATOM     17  C   UNL     1      33.810 -11.026 -24.532  0.00  0.00    +0.055 C 
ATOM     18  C   UNL     1      32.597 -10.449 -24.152  0.00  0.00    +0.022 C 
ATOM     19  C   UNL     1      32.569  -9.121 -23.722  0.00  0.00    +0.085 C 
ATOM     20  C   UNL     1      34.985 -10.275 -24.491  0.00  0.00    +0.008 C 
ATOM     21  C   UNL     1      33.743  -8.371 -23.677  0.00  0.00    +0.153 C 
ATOM     22  C   UNL     1      34.952  -8.945 -24.071  0.00  0.00    +0.038 C 
ATOM     23  C   UNL     1      32.645  -6.643 -22.555  0.00  0.00    +0.290 C 
ATOM     24  C   UNL     1      31.289  -7.250 -22.871  0.00  0.00    +0.271 C 
ATOM     25  H   UNL     1      30.517  -9.038 -23.496  0.00  0.00    +0.155 HD
ENDBRANCH   9  17
BRANCH   5  26
ATOM     26  C   UNL     1      32.261 -13.274 -22.068  0.00  0.00    +0.109 C 
BRANCH  26  29
ATOM     27  O   UNL     1      32.293 -13.075 -19.657  0.00  0.00    -0.275 OA
ATOM     28  N   UNL     1      31.526 -11.296 -20.942  0.00  0.00    -0.303 N 
ATOM     29  C   UNL     1      32.042 -12.570 -20.748  0.00  0.00    +0.224 C 
ATOM     30  C   UNL     1      31.217 -10.396 -19.855  0.00  0.00    +0.111 C 
ATOM     31  H   UNL     1      31.363 -10.992 -21.863  0.00  0.00    +0.149 HD
ENDBRANCH  26  29
ENDBRANCH   5  26
TORSDOF 3
ENDMDL
MODEL 5
REMARK VINA RESULT:      -8.9     12.646     14.899
REMARK  Name = 118599727
REMARK  3 active torsions:
REMARK  status: ('A' for Active; 'I' for Inactive)
REMARK    1  A    between atoms: C_5  and  C_26
REMARK    2  A    between atoms: C_9  and  C_17
REMARK    3  A    between atoms: C_26  and  C_29
REMARK                            x       y       z     vdW  Elec       q    Type
REMARK                         _______ _______ _______ _____ _____    ______ ____
ROOT
ATOM      1  F   UNL     1      28.229 -21.931 -16.002  0.00  0.00    -0.204 F 
ATOM      2  O   UNL     1      30.992 -24.539 -13.234  0.00  0.00    -0.472 OA
ATOM      3  O   UNL     1      34.311 -23.861 -17.087  0.00  0.00    -0.270 OA
ATOM      4  N   UNL     1      33.267 -24.191 -14.984  0.00  0.00    -0.250 N 
ATOM      5  C   UNL     1      33.391 -24.713 -13.600  0.00  0.00    +0.133 C 
ATOM      6  C   UNL     1      32.102 -25.430 -13.222  0.00  0.00    +0.226 C 
ATOM      7  C   UNL     1      31.975 -23.623 -15.290  0.00  0.00    +0.088 C 
ATOM      8  C   UNL     1      30.902 -23.811 -14.396  0.00  0.00    +0.154 C 
ATOM      9  C   UNL     1      34.312 -24.261 -15.925  0.00  0.00    +0.253 C 
ATOM     10  C   UNL     1      31.731 -22.842 -16.431  0.00  0.00    +0.020 C 
ATOM     11  C   UNL     1      29.648 -23.236 -14.630  0.00  0.00    +0.068 C 
ATOM     12  C   UNL     1      30.471 -22.280 -16.672  0.00  0.00    +0.031 C 
ATOM     13  C   UNL     1      29.430 -22.476 -15.773  0.00  0.00    +0.143 C 
ENDROOT
BRANCH   9  17
ATOM     14  O   UNL     1      39.073 -26.850 -14.422  0.00  0.00    -0.464 OA
ATOM     15  O   UNL     1      41.443 -24.175 -14.955  0.00  0.00    -0.271 OA
ATOM     16  N   UNL     1      39.167 -24.157 -15.280  0.00  0.00    -0.278 N 
ATOM     17  C   UNL     1      35.563 -24.918 -15.521  0.00  0.00    +0.055 C 
ATOM     18  C   UNL     1      36.768 -24.217 -15.578  0.00  0.00    +0.022 C 
ATOM     19  C   UNL     1      37.952 -24.846 -15.190  0.00  0.00    +0.085 C 
ATOM     20  C   UNL     1      35.546 -26.245 -15.089  0.00  0.00    +0.008 C 
ATOM     21  C   UNL     1      37.936 -26.170 -14.755  0.00  0.00    +0.153 C 
ATOM     22  C   UNL     1      36.733 -26.874 -14.714  0.00  0.00    +0.038 C 
ATOM     23  C   UNL     1      40.167 -26.020 -14.082  0.00  0.00    +0.290 C 
ATOM     24  C   UNL     1      40.344 -24.712 -14.835  0.00  0.00    +0.271 C 
ATOM     25  H   UNL     1      39.179 -23.255 -15.673  0.00  0.00    +0.155 HD
ENDBRANCH   9  17
BRANCH   5  26
ATOM     26  C   UNL     1      33.742 -23.595 -12.612  0.00  0.00    +0.109 C 
BRANCH  26  29
ATOM     27  O   UNL     1      35.142 -24.669 -10.958  0.00  0.00    -0.275 OA
ATOM     28  N   UNL     1      36.070 -23.093 -12.391  0.00  0.00    -0.303 N 
ATOM     29  C   UNL     1      35.038 -23.866 -11.881  0.00  0.00    +0.224 C 
ATOM     30  C   UNL     1      37.421 -23.144 -11.881  0.00  0.00    +0.111 C 
ATOM     31  H   UNL     1      35.873 -22.480 -13.135  0.00  0.00    +0.149 HD
ENDBRANCH  26  29
ENDBRANCH   5  26
TORSDOF 3
ENDMDL
MODEL 6
REMARK VINA RESULT:      -8.8      3.953      8.085
REMARK  Name = 118599727
REMARK  3 active torsions:
REMARK  status: ('A' for Active; 'I' for Inactive)
REMARK    1  A    between atoms: C_5  and  C_26
REMARK    2  A    between atoms: C_9  and  C_17
REMARK    3  A    between atoms: C_26  and  C_29
REMARK                            x       y       z     vdW  Elec       q    Type
REMARK                         _______ _______ _______ _____ _____    ______ ____
ROOT
ATOM      1  F   UNL     1      31.172 -11.445 -17.900  0.00  0.00    -0.204 F 
ATOM      2  O   UNL     1      31.621 -11.237 -22.575  0.00  0.00    -0.472 OA
ATOM      3  O   UNL     1      32.794  -6.349 -21.546  0.00  0.00    -0.270 OA
ATOM      4  N   UNL     1      32.619  -8.525 -22.472  0.00  0.00    -0.250 N 
ATOM      5  C   UNL     1      32.729  -9.375 -23.684  0.00  0.00    +0.133 C 
ATOM      6  C   UNL     1      31.574 -10.368 -23.701  0.00  0.00    +0.226 C 
ATOM      7  C   UNL     1      32.224  -9.238 -21.279  0.00  0.00    +0.088 C 
ATOM      8  C   UNL     1      31.758 -10.564 -21.385  0.00  0.00    +0.154 C 
ATOM      9  C   UNL     1      32.858  -7.137 -22.487  0.00  0.00    +0.253 C 
ATOM     10  C   UNL     1      32.320  -8.690 -19.991  0.00  0.00    +0.020 C 
ATOM     11  C   UNL     1      31.413 -11.308 -20.250  0.00  0.00    +0.068 C 
ATOM     12  C   UNL     1      31.960  -9.431 -18.858  0.00  0.00    +0.031 C 
ATOM     13  C   UNL     1      31.507 -10.738 -18.986  0.00  0.00    +0.143 C 
ENDROOT
BRANCH   9  17
ATOM     14  O   UNL     1      34.167  -4.809 -27.437  0.00  0.00    -0.464 OA
ATOM     15  O   UNL     1      31.284  -2.684 -27.918  0.00  0.00    -0.271 OA
ATOM     16  N   UNL     1      31.745  -4.096 -26.162  0.00  0.00    -0.278 N 
ATOM     17  C   UNL     1      33.192  -6.508 -23.772  0.00  0.00    +0.055 C 
ATOM     18  C   UNL     1      32.314  -5.587 -24.346  0.00  0.00    +0.022 C 
ATOM     19  C   UNL     1      32.639  -4.991 -25.566  0.00  0.00    +0.085 C 
ATOM     20  C   UNL     1      34.382  -6.838 -24.422  0.00  0.00    +0.008 C 
ATOM     21  C   UNL     1      33.830  -5.318 -26.214  0.00  0.00    +0.153 C 
ATOM     22  C   UNL     1      34.698  -6.250 -25.646  0.00  0.00    +0.038 C 
ATOM     23  C   UNL     1      33.503  -3.604 -27.766  0.00  0.00    +0.290 C 
ATOM     24  C   UNL     1      32.061  -3.427 -27.322  0.00  0.00    +0.271 C 
ATOM     25  H   UNL     1      30.869  -3.941 -25.742  0.00  0.00    +0.155 HD
ENDBRANCH   9  17
BRANCH   5  26
ATOM     26  C   UNL     1      34.092 -10.074 -23.752  0.00  0.00    +0.109 C 
BRANCH  26  29
ATOM     27  O   UNL     1      34.044 -11.365 -25.796  0.00  0.00    -0.275 OA
ATOM     28  N   UNL     1      33.989 -12.463 -23.748  0.00  0.00    -0.303 N 
ATOM     29  C   UNL     1      34.041 -11.345 -24.569  0.00  0.00    +0.224 C 
ATOM     30  C   UNL     1      33.931 -13.814 -24.258  0.00  0.00    +0.111 C 
ATOM     31  H   UNL     1      33.992 -12.330 -22.773  0.00  0.00    +0.149 HD
ENDBRANCH  26  29
ENDBRANCH   5  26
TORSDOF 3
ENDMDL
MODEL 7
REMARK VINA RESULT:      -8.5      1.740      3.793
REMARK  Name = 118599727
REMARK  3 active torsions:
REMARK  status: ('A' for Active; 'I' for Inactive)
REMARK    1  A    between atoms: C_5  and  C_26
REMARK    2  A    between atoms: C_9  and  C_17
REMARK    3  A    between atoms: C_26  and  C_29
REMARK                            x       y       z     vdW  Elec       q    Type
REMARK                         _______ _______ _______ _____ _____    ______ ____
ROOT
ATOM      1  F   UNL     1      31.579  -7.326 -23.310  0.00  0.00    -0.204 F 
ATOM      2  O   UNL     1      33.896 -11.187 -24.657  0.00  0.00    -0.472 OA
ATOM      3  O   UNL     1      31.929 -13.044 -20.297  0.00  0.00    -0.270 OA
ATOM      4  N   UNL     1      32.793 -12.745 -22.485  0.00  0.00    -0.250 N 
ATOM      5  C   UNL     1      33.477 -13.362 -23.648  0.00  0.00    +0.133 C 
ATOM      6  C   UNL     1      34.510 -12.385 -24.193  0.00  0.00    +0.226 C 
ATOM      7  C   UNL     1      32.486 -11.343 -22.651  0.00  0.00    +0.088 C 
ATOM      8  C   UNL     1      33.040 -10.634 -23.736  0.00  0.00    +0.154 C 
ATOM      9  C   UNL     1      32.489 -13.458 -21.309  0.00  0.00    +0.253 C 
ATOM     10  C   UNL     1      31.617 -10.642 -21.801  0.00  0.00    +0.020 C 
ATOM     11  C   UNL     1      32.728  -9.288 -23.962  0.00  0.00    +0.068 C 
ATOM     12  C   UNL     1      31.319  -9.291 -22.020  0.00  0.00    +0.031 C 
ATOM     13  C   UNL     1      31.873  -8.615 -23.099  0.00  0.00    +0.143 C 
ENDROOT
BRANCH   9  17
ATOM     14  O   UNL     1      34.000 -18.869 -21.027  0.00  0.00    -0.464 OA
ATOM     15  O   UNL     1      37.336 -18.665 -22.400  0.00  0.00    -0.271 OA
ATOM     16  N   UNL     1      35.818 -16.970 -22.070  0.00  0.00    -0.278 N 
ATOM     17  C   UNL     1      32.905 -14.865 -21.228  0.00  0.00    +0.055 C 
ATOM     18  C   UNL     1      34.172 -15.244 -21.673  0.00  0.00    +0.022 C 
ATOM     19  C   UNL     1      34.563 -16.581 -21.591  0.00  0.00    +0.085 C 
ATOM     20  C   UNL     1      32.030 -15.823 -20.714  0.00  0.00    +0.008 C 
ATOM     21  C   UNL     1      33.690 -17.538 -21.075  0.00  0.00    +0.153 C 
ATOM     22  C   UNL     1      32.419 -17.161 -20.644  0.00  0.00    +0.038 C 
ATOM     23  C   UNL     1      35.387 -19.143 -21.071  0.00  0.00    +0.290 C 
ATOM     24  C   UNL     1      36.272 -18.261 -21.936  0.00  0.00    +0.271 C 
ATOM     25  H   UNL     1      36.389 -16.303 -22.515  0.00  0.00    +0.155 HD
ENDBRANCH   9  17
BRANCH   5  26
ATOM     26  C   UNL     1      32.470 -13.797 -24.720  0.00  0.00    +0.109 C 
BRANCH  26  29
ATOM     27  O   UNL     1      32.895 -14.868 -26.846  0.00  0.00    -0.275 OA
ATOM     28  N   UNL     1      33.701 -15.840 -24.894  0.00  0.00    -0.303 N 
ATOM     29  C   UNL     1      33.029 -14.870 -25.625  0.00  0.00    +0.224 C 
ATOM     30  C   UNL     1      34.335 -16.988 -25.501  0.00  0.00    +0.111 C 
ATOM     31  H   UNL     1      33.746 -15.741 -23.916  0.00  0.00    +0.149 HD
ENDBRANCH  26  29
ENDBRANCH   5  26
TORSDOF 3
ENDMDL
MODEL 8
REMARK VINA RESULT:      -8.4      3.276      7.256
REMARK  Name = 118599727
REMARK  3 active torsions:
REMARK  status: ('A' for Active; 'I' for Inactive)
REMARK    1  A    between atoms: C_5  and  C_26
REMARK    2  A    between atoms: C_9  and  C_17
REMARK    3  A    between atoms: C_26  and  C_29
REMARK                            x       y       z     vdW  Elec       q    Type
REMARK                         _______ _______ _______ _____ _____    ______ ____
ROOT
ATOM      1  F   UNL     1      35.039 -19.975 -24.760  0.00  0.00    -0.204 F 
ATOM      2  O   UNL     1      34.872 -16.452 -21.652  0.00  0.00    -0.472 OA
ATOM      3  O   UNL     1      33.542 -13.768 -25.818  0.00  0.00    -0.270 OA
ATOM      4  N   UNL     1      33.816 -14.616 -23.621  0.00  0.00    -0.250 N 
ATOM      5  C   UNL     1      33.797 -14.329 -22.164  0.00  0.00    +0.133 C 
ATOM      6  C   UNL     1      34.970 -15.040 -21.503  0.00  0.00    +0.226 C 
ATOM      7  C   UNL     1      34.151 -15.981 -23.954  0.00  0.00    +0.088 C 
ATOM      8  C   UNL     1      34.649 -16.838 -22.952  0.00  0.00    +0.154 C 
ATOM      9  C   UNL     1      33.551 -13.635 -24.596  0.00  0.00    +0.253 C 
ATOM     10  C   UNL     1      33.966 -16.526 -25.234  0.00  0.00    +0.020 C 
ATOM     11  C   UNL     1      34.939 -18.181 -23.221  0.00  0.00    +0.068 C 
ATOM     12  C   UNL     1      34.271 -17.865 -25.504  0.00  0.00    +0.031 C 
ATOM     13  C   UNL     1      34.757 -18.693 -24.500  0.00  0.00    +0.143 C 
ENDROOT
BRANCH   9  17
ATOM     14  O   UNL     1      32.503  -8.417 -22.776  0.00  0.00    -0.464 OA
ATOM     15  O   UNL     1      35.305  -6.664 -24.237  0.00  0.00    -0.271 OA
ATOM     16  N   UNL     1      34.784  -8.899 -24.378  0.00  0.00    -0.278 N 
ATOM     17  C   UNL     1      33.283 -12.263 -24.142  0.00  0.00    +0.055 C 
ATOM     18  C   UNL     1      34.155 -11.231 -24.492  0.00  0.00    +0.022 C 
ATOM     19  C   UNL     1      33.893  -9.930 -24.060  0.00  0.00    +0.085 C 
ATOM     20  C   UNL     1      32.163 -11.996 -23.354  0.00  0.00    +0.008 C 
ATOM     21  C   UNL     1      32.773  -9.661 -23.275  0.00  0.00    +0.153 C 
ATOM     22  C   UNL     1      31.912 -10.696 -22.914  0.00  0.00    +0.038 C 
ATOM     23  C   UNL     1      33.130  -7.363 -23.481  0.00  0.00    +0.290 C 
ATOM     24  C   UNL     1      34.523  -7.592 -24.040  0.00  0.00    +0.271 C 
ATOM     25  H   UNL     1      35.618  -9.116 -24.855  0.00  0.00    +0.155 HD
ENDBRANCH   9  17
BRANCH   5  26
ATOM     26  C   UNL     1      32.454 -14.723 -21.537  0.00  0.00    +0.109 C 
BRANCH  26  29
ATOM     27  O   UNL     1      32.253 -14.632 -19.128  0.00  0.00    -0.275 OA
ATOM     28  N   UNL     1      31.985 -12.687 -20.373  0.00  0.00    -0.303 N 
ATOM     29  C   UNL     1      32.226 -14.043 -20.206  0.00  0.00    +0.224 C 
ATOM     30  C   UNL     1      31.731 -11.789 -19.271  0.00  0.00    +0.111 C 
ATOM     31  H   UNL     1      31.987 -12.320 -21.286  0.00  0.00    +0.149 HD
ENDBRANCH  26  29
ENDBRANCH   5  26
TORSDOF 3
ENDMDL
MODEL 9
REMARK VINA RESULT:      -8.1      9.910     13.615
REMARK  Name = 118599727
REMARK  3 active torsions:
REMARK  status: ('A' for Active; 'I' for Inactive)
REMARK    1  A    between atoms: C_5  and  C_26
REMARK    2  A    between atoms: C_9  and  C_17
REMARK    3  A    between atoms: C_26  and  C_29
REMARK                            x       y       z     vdW  Elec       q    Type
REMARK                         _______ _______ _______ _____ _____    ______ ____
ROOT
ATOM      1  F   UNL     1      34.487 -19.687 -21.841  0.00  0.00    -0.204 F 
ATOM      2  O   UNL     1      33.235 -22.986 -18.735  0.00  0.00    -0.472 OA
ATOM      3  O   UNL     1      37.930 -22.043 -16.892  0.00  0.00    -0.270 OA
ATOM      4  N   UNL     1      35.643 -22.598 -17.182  0.00  0.00    -0.250 N 
ATOM      5  C   UNL     1      34.469 -23.349 -16.670  0.00  0.00    +0.133 C 
ATOM      6  C   UNL     1      33.731 -23.978 -17.844  0.00  0.00    +0.226 C 
ATOM      7  C   UNL     1      35.390 -21.856 -18.395  0.00  0.00    +0.088 C 
ATOM      8  C   UNL     1      34.193 -22.074 -19.106  0.00  0.00    +0.154 C 
ATOM      9  C   UNL     1      36.902 -22.625 -16.552  0.00  0.00    +0.253 C 
ATOM     10  C   UNL     1      36.266 -20.879 -18.893  0.00  0.00    +0.020 C 
ATOM     11  C   UNL     1      33.886 -21.339 -20.258  0.00  0.00    +0.068 C 
ATOM     12  C   UNL     1      35.964 -20.156 -20.054  0.00  0.00    +0.031 C 
ATOM     13  C   UNL     1      34.776 -20.386 -20.736  0.00  0.00    +0.143 C 
ENDROOT
BRANCH   9  17
ATOM     14  O   UNL     1      37.596 -25.844 -11.992  0.00  0.00    -0.464 OA
ATOM     15  O   UNL     1      35.244 -24.271  -9.744  0.00  0.00    -0.271 OA
ATOM     16  N   UNL     1      35.743 -23.708 -11.917  0.00  0.00    -0.278 N 
ATOM     17  C   UNL     1      37.060 -23.466 -15.357  0.00  0.00    +0.055 C 
ATOM     18  C   UNL     1      36.311 -23.195 -14.210  0.00  0.00    +0.022 C 
ATOM     19  C   UNL     1      36.464 -23.999 -13.080  0.00  0.00    +0.085 C 
ATOM     20  C   UNL     1      37.963 -24.529 -15.367  0.00  0.00    +0.008 C 
ATOM     21  C   UNL     1      37.364 -25.063 -13.090  0.00  0.00    +0.153 C 
ATOM     22  C   UNL     1      38.123 -25.323 -14.231  0.00  0.00    +0.038 C 
ATOM     23  C   UNL     1      36.552 -25.823 -11.037  0.00  0.00    +0.290 C 
ATOM     24  C   UNL     1      35.804 -24.521 -10.809  0.00  0.00    +0.271 C 
ATOM     25  H   UNL     1      35.179 -22.902 -11.891  0.00  0.00    +0.155 HD
ENDBRANCH   9  17
BRANCH   5  26
ATOM     26  C   UNL     1      33.557 -22.449 -15.828  0.00  0.00    +0.109 C 
BRANCH  26  29
ATOM     27  O   UNL     1      31.197 -22.963 -15.692  0.00  0.00    -0.275 OA
ATOM     28  N   UNL     1      32.703 -24.142 -14.370  0.00  0.00    -0.303 N 
ATOM     29  C   UNL     1      32.343 -23.190 -15.314  0.00  0.00    +0.224 C 
ATOM     30  C   UNL     1      31.745 -24.998 -13.708  0.00  0.00    +0.111 C 
ATOM     31  H   UNL     1      33.655 -24.239 -14.142  0.00  0.00    +0.149 HD
ENDBRANCH  26  29
ENDBRANCH   5  26
TORSDOF 3
ENDMDL
