MODEL 1
REMARK VINA RESULT:      -9.9      0.000      0.000
REMARK  Name = 129539
REMARK  6 active torsions:
REMARK  status: ('A' for Active; 'I' for Inactive)
REMARK    1  A    between atoms: C_3  and  C_11
REMARK    2  A    between atoms: C_4  and  O_14
REMARK    3  A    between atoms: O_14  and  C_15
REMARK    4  A    between atoms: C_15  and  C_16
REMARK    5  A    between atoms: C_16  and  C_17
REMARK    6  A    between atoms: C_17  and  C_20
REMARK                            x       y       z     vdW  Elec       q    Type
REMARK                         _______ _______ _______ _____ _____    ______ ____
ROOT
ATOM      1 CL   UNL     1      34.758 -17.731 -25.349  0.00  0.00    -0.079 Cl
ATOM      2 CL   UNL     1      34.653 -14.732 -20.813  0.00  0.00    -0.079 Cl
ATOM      3  C   UNL     1      34.699 -18.673 -21.467  0.00  0.00    +0.055 C 
ATOM      4  C   UNL     1      34.705 -16.345 -23.005  0.00  0.00    +0.159 C 
ATOM      5  C   UNL     1      34.723 -18.757 -22.860  0.00  0.00    +0.019 C 
ATOM      6  C   UNL     1      34.677 -17.425 -20.845  0.00  0.00    +0.019 C 
ATOM      7  C   UNL     1      34.726 -17.594 -23.629  0.00  0.00    +0.093 C 
ATOM      8  C   UNL     1      34.680 -16.261 -21.614  0.00  0.00    +0.093 C 
ENDROOT
BRANCH   3  11
ATOM      9  O   UNL     1      33.486 -20.497 -20.543  0.00  0.00    -0.458 OA
ATOM     10  N   UNL     1      35.720 -20.424 -20.063  0.00  0.00    -0.234 NA
ATOM     11  C   UNL     1      34.695 -19.899 -20.657  0.00  0.00    +0.220 C 
ATOM     12  C   UNL     1      33.679 -21.508 -19.566  0.00  0.00    +0.233 C 
ATOM     13  C   UNL     1      35.180 -21.654 -19.472  0.00  0.00    +0.176 C 
ENDBRANCH   3  11
BRANCH   4  14
ATOM     14  O   UNL     1      34.706 -15.207 -23.759  0.00  0.00    -0.474 OA
BRANCH  14  15
ATOM     15  C   UNL     1      33.438 -14.687 -24.146  0.00  0.00    +0.206 C 
BRANCH  15  16
ATOM     16  C   UNL     1      33.341 -13.236 -23.695  0.00  0.00    +0.055 C 
BRANCH  16  17
ATOM     17  C   UNL     1      33.829 -12.275 -24.779  0.00  0.00    +0.071 C 
BRANCH  17  20
ATOM     18  O   UNL     1      32.942 -10.499 -23.424  0.00  0.00    -0.358 OA
ATOM     19  N   UNL     1      33.174  -9.181 -23.047  0.00  0.00    -0.082 NA
ATOM     20  C   UNL     1      33.922 -10.861 -24.263  0.00  0.00    +0.154 C 
ATOM     21  C   UNL     1      34.805  -9.872 -24.478  0.00  0.00    +0.054 C 
ATOM     22  C   UNL     1      34.291  -8.829 -23.689  0.00  0.00    +0.101 C 
ATOM     23  C   UNL     1      34.838  -7.474 -23.518  0.00  0.00    +0.056 C 
ENDBRANCH  17  20
ENDBRANCH  16  17
ENDBRANCH  15  16
ENDBRANCH  14  15
ENDBRANCH   4  14
TORSDOF 6
ENDMDL
MODEL 2
REMARK VINA RESULT:      -9.9      0.767      2.101
REMARK  Name = 129539
REMARK  6 active torsions:
REMARK  status: ('A' for Active; 'I' for Inactive)
REMARK    1  A    between atoms: C_3  and  C_11
REMARK    2  A    between atoms: C_4  and  O_14
REMARK    3  A    between atoms: O_14  and  C_15
REMARK    4  A    between atoms: C_15  and  C_16
REMARK    5  A    between atoms: C_16  and  C_17
REMARK    6  A    between atoms: C_17  and  C_20
REMARK                            x       y       z     vdW  Elec       q    Type
REMARK                         _______ _______ _______ _____ _____    ______ ____
ROOT
ATOM      1 CL   UNL     1      34.615 -14.598 -20.768  0.00  0.00    -0.079 Cl
ATOM      2 CL   UNL     1      34.766 -17.544 -25.336  0.00  0.00    -0.079 Cl
ATOM      3  C   UNL     1      34.968 -18.515 -21.466  0.00  0.00    +0.055 C 
ATOM      4  C   UNL     1      34.704 -16.185 -22.979  0.00  0.00    +0.159 C 
ATOM      5  C   UNL     1      34.869 -17.277 -20.830  0.00  0.00    +0.019 C 
ATOM      6  C   UNL     1      34.935 -18.586 -22.859  0.00  0.00    +0.019 C 
ATOM      7  C   UNL     1      34.737 -16.112 -21.585  0.00  0.00    +0.093 C 
ATOM      8  C   UNL     1      34.803 -17.422 -23.616  0.00  0.00    +0.093 C 
ENDROOT
BRANCH   3  11
ATOM      9  O   UNL     1      36.357 -19.976 -20.207  0.00  0.00    -0.458 OA
ATOM     10  N   UNL     1      34.161 -20.585 -20.395  0.00  0.00    -0.234 NA
ATOM     11  C   UNL     1      35.107 -19.742 -20.670  0.00  0.00    +0.220 C 
ATOM     12  C   UNL     1      36.298 -21.287 -19.668  0.00  0.00    +0.233 C 
ATOM     13  C   UNL     1      34.820 -21.566 -19.525  0.00  0.00    +0.176 C 
ENDBRANCH   3  11
BRANCH   4  14
ATOM     14  O   UNL     1      34.576 -15.044 -23.718  0.00  0.00    -0.474 OA
BRANCH  14  15
ATOM     15  C   UNL     1      33.255 -14.651 -24.075  0.00  0.00    +0.206 C 
BRANCH  15  16
ATOM     16  C   UNL     1      33.078 -13.172 -23.760  0.00  0.00    +0.055 C 
BRANCH  16  17
ATOM     17  C   UNL     1      33.870 -12.292 -24.726  0.00  0.00    +0.071 C 
BRANCH  17  20
ATOM     18  O   UNL     1      32.910 -10.484 -23.467  0.00  0.00    -0.358 OA
ATOM     19  N   UNL     1      33.113  -9.153 -23.120  0.00  0.00    -0.082 NA
ATOM     20  C   UNL     1      33.929 -10.862 -24.250  0.00  0.00    +0.154 C 
ATOM     21  C   UNL     1      34.812  -9.871 -24.456  0.00  0.00    +0.054 C 
ATOM     22  C   UNL     1      34.255  -8.810 -23.722  0.00  0.00    +0.101 C 
ATOM     23  C   UNL     1      34.783  -7.445 -23.567  0.00  0.00    +0.056 C 
ENDBRANCH  17  20
ENDBRANCH  16  17
ENDBRANCH  15  16
ENDBRANCH  14  15
ENDBRANCH   4  14
TORSDOF 6
ENDMDL
MODEL 3
REMARK VINA RESULT:      -9.4      2.880      9.463
REMARK  Name = 129539
REMARK  6 active torsions:
REMARK  status: ('A' for Active; 'I' for Inactive)
REMARK    1  A    between atoms: C_3  and  C_11
REMARK    2  A    between atoms: C_4  and  O_14
REMARK    3  A    between atoms: O_14  and  C_15
REMARK    4  A    between atoms: C_15  and  C_16
REMARK    5  A    between atoms: C_16  and  C_17
REMARK    6  A    between atoms: C_17  and  C_20
REMARK                            x       y       z     vdW  Elec       q    Type
REMARK                         _______ _______ _______ _____ _____    ______ ____
ROOT
ATOM      1 CL   UNL     1      34.636 -16.282 -20.634  0.00  0.00    -0.079 Cl
ATOM      2 CL   UNL     1      34.863 -19.799 -24.775  0.00  0.00    -0.079 Cl
ATOM      3  C   UNL     1      34.111 -15.881 -24.573  0.00  0.00    +0.055 C 
ATOM      4  C   UNL     1      34.719 -17.940 -22.792  0.00  0.00    +0.159 C 
ATOM      5  C   UNL     1      34.212 -15.615 -23.207  0.00  0.00    +0.019 C 
ATOM      6  C   UNL     1      34.314 -17.177 -25.047  0.00  0.00    +0.019 C 
ATOM      7  C   UNL     1      34.516 -16.644 -22.316  0.00  0.00    +0.093 C 
ATOM      8  C   UNL     1      34.618 -18.207 -24.157  0.00  0.00    +0.093 C 
ENDROOT
BRANCH   3  11
ATOM      9  O   UNL     1      33.819 -13.555 -24.971  0.00  0.00    -0.458 OA
ATOM     10  N   UNL     1      33.489 -14.935 -26.764  0.00  0.00    -0.234 NA
ATOM     11  C   UNL     1      33.790 -14.796 -25.511  0.00  0.00    +0.220 C 
ATOM     12  C   UNL     1      33.280 -12.715 -25.979  0.00  0.00    +0.233 C 
ATOM     13  C   UNL     1      33.339 -13.553 -27.235  0.00  0.00    +0.176 C 
ENDBRANCH   3  11
BRANCH   4  14
ATOM     14  O   UNL     1      35.016 -18.948 -21.919  0.00  0.00    -0.474 OA
BRANCH  14  15
ATOM     15  C   UNL     1      33.937 -19.781 -21.505  0.00  0.00    +0.206 C 
BRANCH  15  16
ATOM     16  C   UNL     1      34.252 -20.345 -20.126  0.00  0.00    +0.055 C 
BRANCH  16  17
ATOM     17  C   UNL     1      35.618 -21.031 -20.096  0.00  0.00    +0.071 C 
BRANCH  17  20
ATOM     18  O   UNL     1      34.973 -22.480 -18.290  0.00  0.00    -0.358 OA
ATOM     19  N   UNL     1      35.387 -22.937 -17.045  0.00  0.00    -0.082 NA
ATOM     20  C   UNL     1      35.906 -21.631 -18.743  0.00  0.00    +0.154 C 
ATOM     21  C   UNL     1      36.928 -21.485 -17.883  0.00  0.00    +0.054 C 
ATOM     22  C   UNL     1      36.556 -22.330 -16.823  0.00  0.00    +0.101 C 
ATOM     23  C   UNL     1      37.291 -22.588 -15.575  0.00  0.00    +0.056 C 
ENDBRANCH  17  20
ENDBRANCH  16  17
ENDBRANCH  15  16
ENDBRANCH  14  15
ENDBRANCH   4  14
TORSDOF 6
ENDMDL
MODEL 4
REMARK VINA RESULT:      -9.4      2.884      9.185
REMARK  Name = 129539
REMARK  6 active torsions:
REMARK  status: ('A' for Active; 'I' for Inactive)
REMARK    1  A    between atoms: C_3  and  C_11
REMARK    2  A    between atoms: C_4  and  O_14
REMARK    3  A    between atoms: O_14  and  C_15
REMARK    4  A    between atoms: C_15  and  C_16
REMARK    5  A    between atoms: C_16  and  C_17
REMARK    6  A    between atoms: C_17  and  C_20
REMARK                            x       y       z     vdW  Elec       q    Type
REMARK                         _______ _______ _______ _____ _____    ______ ____
ROOT
ATOM      1 CL   UNL     1      34.915 -19.769 -24.489  0.00  0.00    -0.079 Cl
ATOM      2 CL   UNL     1      34.687 -16.064 -20.516  0.00  0.00    -0.079 Cl
ATOM      3  C   UNL     1      34.119 -15.855 -24.464  0.00  0.00    +0.055 C 
ATOM      4  C   UNL     1      34.770 -17.820 -22.594  0.00  0.00    +0.159 C 
ATOM      5  C   UNL     1      34.333 -17.170 -24.879  0.00  0.00    +0.019 C 
ATOM      6  C   UNL     1      34.231 -15.524 -23.114  0.00  0.00    +0.019 C 
ATOM      7  C   UNL     1      34.658 -18.152 -23.944  0.00  0.00    +0.093 C 
ATOM      8  C   UNL     1      34.556 -16.506 -22.178  0.00  0.00    +0.093 C 
ENDROOT
BRANCH   3  11
ATOM      9  O   UNL     1      33.803 -13.554 -24.971  0.00  0.00    -0.458 OA
ATOM     10  N   UNL     1      33.458 -15.022 -26.689  0.00  0.00    -0.234 NA
ATOM     11  C   UNL     1      33.776 -14.820 -25.450  0.00  0.00    +0.220 C 
ATOM     12  C   UNL     1      33.243 -12.768 -26.010  0.00  0.00    +0.233 C 
ATOM     13  C   UNL     1      33.291 -13.666 -27.225  0.00  0.00    +0.176 C 
ENDBRANCH   3  11
BRANCH   4  14
ATOM     14  O   UNL     1      35.089 -18.782 -21.679  0.00  0.00    -0.474 OA
BRANCH  14  15
ATOM     15  C   UNL     1      36.454 -18.866 -21.280  0.00  0.00    +0.206 C 
BRANCH  15  16
ATOM     16  C   UNL     1      36.578 -19.885 -20.155  0.00  0.00    +0.055 C 
BRANCH  16  17
ATOM     17  C   UNL     1      35.976 -21.234 -20.549  0.00  0.00    +0.071 C 
BRANCH  17  20
ATOM     18  O   UNL     1      35.963 -22.213 -18.354  0.00  0.00    -0.358 OA
ATOM     19  N   UNL     1      35.116 -22.762 -17.399  0.00  0.00    -0.082 NA
ATOM     20  C   UNL     1      35.213 -21.854 -19.405  0.00  0.00    +0.154 C 
ATOM     21  C   UNL     1      33.911 -22.126 -19.223  0.00  0.00    +0.054 C 
ATOM     22  C   UNL     1      33.896 -22.699 -17.940  0.00  0.00    +0.101 C 
ATOM     23  C   UNL     1      32.735 -23.203 -17.190  0.00  0.00    +0.056 C 
ENDBRANCH  17  20
ENDBRANCH  16  17
ENDBRANCH  15  16
ENDBRANCH  14  15
ENDBRANCH   4  14
TORSDOF 6
ENDMDL
MODEL 5
REMARK VINA RESULT:      -9.1      2.304      8.548
REMARK  Name = 129539
REMARK  6 active torsions:
REMARK  status: ('A' for Active; 'I' for Inactive)
REMARK    1  A    between atoms: C_3  and  C_11
REMARK    2  A    between atoms: C_4  and  O_14
REMARK    3  A    between atoms: O_14  and  C_15
REMARK    4  A    between atoms: C_15  and  C_16
REMARK    5  A    between atoms: C_16  and  C_17
REMARK    6  A    between atoms: C_17  and  C_20
REMARK                            x       y       z     vdW  Elec       q    Type
REMARK                         _______ _______ _______ _____ _____    ______ ____
ROOT
ATOM      1 CL   UNL     1      34.956 -16.391 -20.629  0.00  0.00    -0.079 Cl
ATOM      2 CL   UNL     1      33.816 -15.498 -25.871  0.00  0.00    -0.079 Cl
ATOM      3  C   UNL     1      32.896 -13.536 -22.515  0.00  0.00    +0.055 C 
ATOM      4  C   UNL     1      34.316 -15.832 -23.216  0.00  0.00    +0.159 C 
ATOM      5  C   UNL     1      33.504 -14.309 -21.526  0.00  0.00    +0.019 C 
ATOM      6  C   UNL     1      32.999 -13.912 -23.855  0.00  0.00    +0.019 C 
ATOM      7  C   UNL     1      34.214 -15.457 -21.876  0.00  0.00    +0.093 C 
ATOM      8  C   UNL     1      33.708 -15.060 -24.206  0.00  0.00    +0.093 C 
ENDROOT
BRANCH   3  11
ATOM      9  O   UNL     1      31.552 -12.379 -20.932  0.00  0.00    -0.458 OA
ATOM     10  N   UNL     1      32.017 -11.259 -22.870  0.00  0.00    -0.234 NA
ATOM     11  C   UNL     1      32.148 -12.325 -22.146  0.00  0.00    +0.220 C 
ATOM     12  C   UNL     1      30.732 -11.222 -20.886  0.00  0.00    +0.233 C 
ATOM     13  C   UNL     1      31.252 -10.352 -22.007  0.00  0.00    +0.176 C 
ENDBRANCH   3  11
BRANCH   4  14
ATOM     14  O   UNL     1      35.010 -16.957 -23.558  0.00  0.00    -0.474 OA
BRANCH  14  15
ATOM     15  C   UNL     1      34.249 -18.136 -23.804  0.00  0.00    +0.206 C 
BRANCH  15  16
ATOM     16  C   UNL     1      34.866 -19.293 -23.029  0.00  0.00    +0.055 C 
BRANCH  16  17
ATOM     17  C   UNL     1      34.115 -19.559 -21.724  0.00  0.00    +0.071 C 
BRANCH  17  20
ATOM     18  O   UNL     1      36.203 -19.453 -20.537  0.00  0.00    -0.358 OA
ATOM     19  N   UNL     1      36.926 -20.070 -19.523  0.00  0.00    -0.082 NA
ATOM     20  C   UNL     1      35.035 -20.099 -20.658  0.00  0.00    +0.154 C 
ATOM     21  C   UNL     1      34.920 -21.116 -19.788  0.00  0.00    +0.054 C 
ATOM     22  C   UNL     1      36.139 -21.060 -19.091  0.00  0.00    +0.101 C 
ATOM     23  C   UNL     1      36.596 -21.936 -18.001  0.00  0.00    +0.056 C 
ENDBRANCH  17  20
ENDBRANCH  16  17
ENDBRANCH  15  16
ENDBRANCH  14  15
ENDBRANCH   4  14
TORSDOF 6
ENDMDL
MODEL 6
REMARK VINA RESULT:      -9.0      1.441      8.796
REMARK  Name = 129539
REMARK  6 active torsions:
REMARK  status: ('A' for Active; 'I' for Inactive)
REMARK    1  A    between atoms: C_3  and  C_11
REMARK    2  A    between atoms: C_4  and  O_14
REMARK    3  A    between atoms: O_14  and  C_15
REMARK    4  A    between atoms: C_15  and  C_16
REMARK    5  A    between atoms: C_16  and  C_17
REMARK    6  A    between atoms: C_17  and  C_20
REMARK                            x       y       z     vdW  Elec       q    Type
REMARK                         _______ _______ _______ _____ _____    ______ ____
ROOT
ATOM      1 CL   UNL     1      34.425 -15.617 -20.836  0.00  0.00    -0.079 Cl
ATOM      2 CL   UNL     1      33.215 -15.812 -26.134  0.00  0.00    -0.079 Cl
ATOM      3  C   UNL     1      33.589 -12.798 -23.540  0.00  0.00    +0.055 C 
ATOM      4  C   UNL     1      33.808 -15.578 -23.488  0.00  0.00    +0.159 C 
ATOM      5  C   UNL     1      33.912 -13.450 -22.350  0.00  0.00    +0.019 C 
ATOM      6  C   UNL     1      33.376 -13.537 -24.703  0.00  0.00    +0.019 C 
ATOM      7  C   UNL     1      34.022 -14.840 -22.324  0.00  0.00    +0.093 C 
ATOM      8  C   UNL     1      33.485 -14.927 -24.678  0.00  0.00    +0.093 C 
ENDROOT
BRANCH   3  11
ATOM      9  O   UNL     1      32.470 -10.832 -22.808  0.00  0.00    -0.458 OA
ATOM     10  N   UNL     1      34.224 -10.520 -24.241  0.00  0.00    -0.234 NA
ATOM     11  C   UNL     1      33.473 -11.333 -23.567  0.00  0.00    +0.220 C 
ATOM     12  C   UNL     1      32.415  -9.456 -23.153  0.00  0.00    +0.233 C 
ATOM     13  C   UNL     1      33.729  -9.195 -23.853  0.00  0.00    +0.176 C 
ENDBRANCH   3  11
BRANCH   4  14
ATOM     14  O   UNL     1      33.915 -16.939 -23.462  0.00  0.00    -0.474 OA
BRANCH  14  15
ATOM     15  C   UNL     1      35.154 -17.498 -23.888  0.00  0.00    +0.206 C 
BRANCH  15  16
ATOM     16  C   UNL     1      35.321 -18.871 -23.249  0.00  0.00    +0.055 C 
BRANCH  16  17
ATOM     17  C   UNL     1      35.628 -18.762 -21.756  0.00  0.00    +0.071 C 
BRANCH  17  20
ATOM     18  O   UNL     1      33.447 -19.432 -20.998  0.00  0.00    -0.358 OA
ATOM     19  N   UNL     1      32.798 -20.368 -20.204  0.00  0.00    -0.082 NA
ATOM     20  C   UNL     1      34.761 -19.692 -20.944  0.00  0.00    +0.154 C 
ATOM     21  C   UNL     1      35.043 -20.747 -20.163  0.00  0.00    +0.054 C 
ATOM     22  C   UNL     1      33.770 -21.143 -19.716  0.00  0.00    +0.101 C 
ATOM     23  C   UNL     1      33.437 -22.260 -18.819  0.00  0.00    +0.056 C 
ENDBRANCH  17  20
ENDBRANCH  16  17
ENDBRANCH  15  16
ENDBRANCH  14  15
ENDBRANCH   4  14
TORSDOF 6
ENDMDL
MODEL 7
REMARK VINA RESULT:      -8.9     10.676     12.886
REMARK  Name = 129539
REMARK  6 active torsions:
REMARK  status: ('A' for Active; 'I' for Inactive)
REMARK    1  A    between atoms: C_3  and  C_11
REMARK    2  A    between atoms: C_4  and  O_14
REMARK    3  A    between atoms: O_14  and  C_15
REMARK    4  A    between atoms: C_15  and  C_16
REMARK    5  A    between atoms: C_16  and  C_17
REMARK    6  A    between atoms: C_17  and  C_20
REMARK                            x       y       z     vdW  Elec       q    Type
REMARK                         _______ _______ _______ _____ _____    ______ ____
ROOT
ATOM      1 CL   UNL     1      34.030 -22.665 -18.563  0.00  0.00    -0.079 Cl
ATOM      2 CL   UNL     1      33.442 -24.411 -13.447  0.00  0.00    -0.079 Cl
ATOM      3  C   UNL     1      30.860 -23.020 -16.159  0.00  0.00    +0.055 C 
ATOM      4  C   UNL     1      33.602 -23.513 -16.011  0.00  0.00    +0.159 C 
ATOM      5  C   UNL     1      31.677 -22.755 -17.259  0.00  0.00    +0.019 C 
ATOM      6  C   UNL     1      31.416 -23.532 -14.986  0.00  0.00    +0.019 C 
ATOM      7  C   UNL     1      33.048 -23.002 -17.185  0.00  0.00    +0.093 C 
ATOM      8  C   UNL     1      32.786 -23.778 -14.912  0.00  0.00    +0.093 C 
ENDROOT
BRANCH   3  11
ATOM      9  O   UNL     1      28.826 -23.186 -17.379  0.00  0.00    -0.458 OA
ATOM     10  N   UNL     1      28.696 -22.173 -15.333  0.00  0.00    -0.234 NA
ATOM     11  C   UNL     1      29.415 -22.760 -16.237  0.00  0.00    +0.220 C 
ATOM     12  C   UNL     1      27.514 -22.648 -17.324  0.00  0.00    +0.233 C 
ATOM     13  C   UNL     1      27.336 -22.244 -15.879  0.00  0.00    +0.176 C 
ENDBRANCH   3  11
BRANCH   4  14
ATOM     14  O   UNL     1      34.944 -23.753 -15.940  0.00  0.00    -0.474 OA
BRANCH  14  15
ATOM     15  C   UNL     1      35.761 -22.705 -15.427  0.00  0.00    +0.206 C 
BRANCH  15  16
ATOM     16  C   UNL     1      37.207 -22.965 -15.829  0.00  0.00    +0.055 C 
BRANCH  16  17
ATOM     17  C   UNL     1      37.855 -24.028 -14.942  0.00  0.00    +0.071 C 
BRANCH  17  20
ATOM     18  O   UNL     1      37.928 -22.878 -12.833  0.00  0.00    -0.358 OA
ATOM     19  N   UNL     1      37.412 -22.909 -11.543  0.00  0.00    -0.082 NA
ATOM     20  C   UNL     1      37.399 -23.906 -13.510  0.00  0.00    +0.154 C 
ATOM     21  C   UNL     1      36.555 -24.633 -12.760  0.00  0.00    +0.054 C 
ATOM     22  C   UNL     1      36.594 -23.965 -11.524  0.00  0.00    +0.101 C 
ATOM     23  C   UNL     1      35.864 -24.303 -10.292  0.00  0.00    +0.056 C 
ENDBRANCH  17  20
ENDBRANCH  16  17
ENDBRANCH  15  16
ENDBRANCH  14  15
ENDBRANCH   4  14
TORSDOF 6
ENDMDL
MODEL 8
REMARK VINA RESULT:      -8.9      5.114      8.138
REMARK  Name = 129539
REMARK  6 active torsions:
REMARK  status: ('A' for Active; 'I' for Inactive)
REMARK    1  A    between atoms: C_3  and  C_11
REMARK    2  A    between atoms: C_4  and  O_14
REMARK    3  A    between atoms: O_14  and  C_15
REMARK    4  A    between atoms: C_15  and  C_16
REMARK    5  A    between atoms: C_16  and  C_17
REMARK    6  A    between atoms: C_17  and  C_20
REMARK                            x       y       z     vdW  Elec       q    Type
REMARK                         _______ _______ _______ _____ _____    ______ ____
ROOT
ATOM      1 CL   UNL     1      36.855 -21.467 -19.049  0.00  0.00    -0.079 Cl
ATOM      2 CL   UNL     1      32.111 -23.401 -17.227  0.00  0.00    -0.079 Cl
ATOM      3  C   UNL     1      35.700 -22.961 -15.530  0.00  0.00    +0.055 C 
ATOM      4  C   UNL     1      34.540 -22.460 -18.017  0.00  0.00    +0.159 C 
ATOM      5  C   UNL     1      36.464 -22.407 -16.557  0.00  0.00    +0.019 C 
ATOM      6  C   UNL     1      34.356 -23.265 -15.747  0.00  0.00    +0.019 C 
ATOM      7  C   UNL     1      35.884 -22.156 -17.800  0.00  0.00    +0.093 C 
ATOM      8  C   UNL     1      33.775 -23.014 -16.991  0.00  0.00    +0.093 C 
ENDROOT
BRANCH   3  11
ATOM      9  O   UNL     1      35.430 -23.522 -13.235  0.00  0.00    -0.458 OA
ATOM     10  N   UNL     1      37.578 -23.192 -13.948  0.00  0.00    -0.234 NA
ATOM     11  C   UNL     1      36.311 -23.226 -14.219  0.00  0.00    +0.220 C 
ATOM     12  C   UNL     1      36.208 -23.524 -12.049  0.00  0.00    +0.233 C 
ATOM     13  C   UNL     1      37.636 -23.601 -12.539  0.00  0.00    +0.176 C 
ENDBRANCH   3  11
BRANCH   4  14
ATOM     14  O   UNL     1      33.973 -22.215 -19.234  0.00  0.00    -0.474 OA
BRANCH  14  15
ATOM     15  C   UNL     1      33.087 -21.103 -19.322  0.00  0.00    +0.206 C 
BRANCH  15  16
ATOM     16  C   UNL     1      33.293 -20.413 -20.665  0.00  0.00    +0.055 C 
BRANCH  16  17
ATOM     17  C   UNL     1      34.695 -19.817 -20.782  0.00  0.00    +0.071 C 
BRANCH  17  20
ATOM     18  O   UNL     1      35.100 -17.583 -21.571  0.00  0.00    -0.358 OA
ATOM     19  N   UNL     1      35.141 -16.814 -22.728  0.00  0.00    -0.082 NA
ATOM     20  C   UNL     1      34.786 -18.837 -21.924  0.00  0.00    +0.154 C 
ATOM     21  C   UNL     1      34.611 -18.967 -23.249  0.00  0.00    +0.054 C 
ATOM     22  C   UNL     1      34.846 -17.663 -23.717  0.00  0.00    +0.101 C 
ATOM     23  C   UNL     1      34.799 -17.180 -25.106  0.00  0.00    +0.056 C 
ENDBRANCH  17  20
ENDBRANCH  16  17
ENDBRANCH  15  16
ENDBRANCH  14  15
ENDBRANCH   4  14
TORSDOF 6
ENDMDL
MODEL 9
REMARK VINA RESULT:      -8.9      6.568     12.508
REMARK  Name = 129539
REMARK  6 active torsions:
REMARK  status: ('A' for Active; 'I' for Inactive)
REMARK    1  A    between atoms: C_3  and  C_11
REMARK    2  A    between atoms: C_4  and  O_14
REMARK    3  A    between atoms: O_14  and  C_15
REMARK    4  A    between atoms: C_15  and  C_16
REMARK    5  A    between atoms: C_16  and  C_17
REMARK    6  A    between atoms: C_17  and  C_20
REMARK                            x       y       z     vdW  Elec       q    Type
REMARK                         _______ _______ _______ _____ _____    ______ ____
ROOT
ATOM      1 CL   UNL     1      32.675 -23.537 -17.503  0.00  0.00    -0.079 Cl
ATOM      2 CL   UNL     1      37.907 -22.441 -16.506  0.00  0.00    -0.079 Cl
ATOM      3  C   UNL     1      35.342 -21.157 -19.286  0.00  0.00    +0.055 C 
ATOM      4  C   UNL     1      35.294 -22.904 -17.111  0.00  0.00    +0.159 C 
ATOM      5  C   UNL     1      34.167 -21.838 -18.963  0.00  0.00    +0.019 C 
ATOM      6  C   UNL     1      36.491 -21.351 -18.520  0.00  0.00    +0.019 C 
ATOM      7  C   UNL     1      34.143 -22.711 -17.876  0.00  0.00    +0.093 C 
ATOM      8  C   UNL     1      36.468 -22.224 -17.433  0.00  0.00    +0.093 C 
ENDROOT
BRANCH   3  11
ATOM      9  O   UNL     1      36.465 -19.447 -20.497  0.00  0.00    -0.458 OA
ATOM     10  N   UNL     1      34.451 -20.126 -21.342  0.00  0.00    -0.234 NA
ATOM     11  C   UNL     1      35.367 -20.237 -20.431  0.00  0.00    +0.220 C 
ATOM     12  C   UNL     1      36.175 -18.518 -21.530  0.00  0.00    +0.233 C 
ATOM     13  C   UNL     1      35.009 -19.134 -22.268  0.00  0.00    +0.176 C 
ENDBRANCH   3  11
BRANCH   4  14
ATOM     14  O   UNL     1      35.270 -23.760 -16.048  0.00  0.00    -0.474 OA
BRANCH  14  15
ATOM     15  C   UNL     1      35.029 -23.190 -14.765  0.00  0.00    +0.206 C 
BRANCH  15  16
ATOM     16  C   UNL     1      34.719 -24.308 -13.778  0.00  0.00    +0.055 C 
BRANCH  16  17
ATOM     17  C   UNL     1      35.844 -24.487 -12.759  0.00  0.00    +0.071 C 
BRANCH  17  20
ATOM     18  O   UNL     1      36.860 -26.307 -13.956  0.00  0.00    -0.358 OA
ATOM     19  N   UNL     1      38.072 -26.740 -14.481  0.00  0.00    -0.082 NA
ATOM     20  C   UNL     1      37.065 -25.111 -13.387  0.00  0.00    +0.154 C 
ATOM     21  C   UNL     1      38.340 -24.705 -13.494  0.00  0.00    +0.054 C 
ATOM     22  C   UNL     1      38.940 -25.766 -14.193  0.00  0.00    +0.101 C 
ATOM     23  C   UNL     1      40.346 -25.893 -14.609  0.00  0.00    +0.056 C 
ENDBRANCH  17  20
ENDBRANCH  16  17
ENDBRANCH  15  16
ENDBRANCH  14  15
ENDBRANCH   4  14
TORSDOF 6
ENDMDL
