MODEL 1
REMARK VINA RESULT:      -7.2      0.000      0.000
REMARK  Name = 5289518
REMARK  6 active torsions:
REMARK  status: ('A' for Active; 'I' for Inactive)
REMARK    1  A    between atoms: C_4  and  C_8
REMARK    2  A    between atoms: C_5  and  C_12
REMARK    3  A    between atoms: C_12  and  CA_13
REMARK    4  A    between atoms: CA_13  and  N_14
REMARK    5  A    between atoms: CA_13  and  C_19
REMARK    6  A    between atoms: C_19  and  O_20
REMARK                            x       y       z     vdW  Elec       q    Type
REMARK                         _______ _______ _______ _____ _____    ______ ____
ROOT
ATOM      1  S   UNL     1      35.275 -23.876 -11.621  0.00  0.00    -0.015 S 
ATOM      2  O   UNL     1      39.021 -23.464 -11.758  0.00  0.00    -0.267 OA
ATOM      3  N   UNL     1      36.828 -23.636 -11.011  0.00  0.00    -0.292 N 
ATOM      4  C   UNL     1      35.905 -23.972 -13.245  0.00  0.00    +0.023 A 
ATOM      5  C   UNL     1      37.239 -23.829 -13.319  0.00  0.00    +0.036 A 
ATOM      6  C   UNL     1      37.825 -23.621 -11.962  0.00  0.00    +0.259 A 
ATOM      7  H   UNL     1      37.008 -23.516 -10.049  0.00  0.00    +0.177 HD
ENDROOT
BRANCH   4   8
ATOM      8  C   UNL     1      34.941 -24.198 -14.379  0.00  0.00    +0.026 C 
ATOM      9  C   UNL     1      33.535 -24.315 -13.788  0.00  0.00    +0.005 C 
ATOM     10  C   UNL     1      35.324 -25.490 -15.104  0.00  0.00    +0.005 C 
ATOM     11  C   UNL     1      35.018 -23.009 -15.340  0.00  0.00    +0.005 C 
ENDBRANCH   4   8
BRANCH   5  12
ATOM     12  C   UNL     1      38.139 -23.850 -14.504  0.00  0.00    +0.020 C 
BRANCH  12  13
ATOM     13  CA  UNL     1      38.707 -25.257 -14.719  0.00  0.00    +0.040 C 
BRANCH  13  14
ATOM     14  N   UNL     1      38.502 -26.073 -13.523  0.00  0.00    +0.389 N 
ATOM     15  H1  UNL     1      37.868 -25.589 -12.886  0.00  0.00    -0.088 HD
ATOM     16  H2  UNL     1      39.398 -26.226 -13.059  0.00  0.00    -0.088 HD
ATOM     17  H3  UNL     1      38.099 -26.970 -13.788  0.00  0.00    -0.088 HD
ENDBRANCH  13  14
BRANCH  13  19
ATOM     18  OXT UNL     1      41.027 -24.603 -14.333  0.00  0.00    -0.253 OA
ATOM     19  C   UNL     1      40.206 -25.244 -14.976  0.00  0.00    +0.293 C 
BRANCH  19  20
ATOM     20  O   UNL     1      40.550 -26.022 -16.037  0.00  0.00    -0.482 OA
ATOM     21  H   UNL     1      40.190 -26.883 -16.123  0.00  0.00    +0.295 HD
ENDBRANCH  19  20
ENDBRANCH  13  19
ENDBRANCH  12  13
ENDBRANCH   5  12
TORSDOF 6
ENDMDL
MODEL 2
REMARK VINA RESULT:      -7.1     12.183     13.663
REMARK  Name = 5289518
REMARK  6 active torsions:
REMARK  status: ('A' for Active; 'I' for Inactive)
REMARK    1  A    between atoms: C_4  and  C_8
REMARK    2  A    between atoms: C_5  and  C_12
REMARK    3  A    between atoms: C_12  and  CA_13
REMARK    4  A    between atoms: CA_13  and  N_14
REMARK    5  A    between atoms: CA_13  and  C_19
REMARK    6  A    between atoms: C_19  and  O_20
REMARK                            x       y       z     vdW  Elec       q    Type
REMARK                         _______ _______ _______ _____ _____    ______ ____
ROOT
ATOM      1  S   UNL     1      34.784 -19.241 -24.040  0.00  0.00    -0.015 S 
ATOM      2  O   UNL     1      34.371 -16.010 -25.941  0.00  0.00    -0.267 OA
ATOM      3  N   UNL     1      34.574 -18.259 -25.394  0.00  0.00    -0.292 N 
ATOM      4  C   UNL     1      34.806 -17.840 -23.001  0.00  0.00    +0.023 A 
ATOM      5  C   UNL     1      34.659 -16.676 -23.656  0.00  0.00    +0.036 A 
ATOM      6  C   UNL     1      34.516 -16.908 -25.124  0.00  0.00    +0.259 A 
ATOM      7  H   UNL     1      34.500 -18.622 -26.307  0.00  0.00    +0.177 HD
ENDROOT
BRANCH   4   8
ATOM      8  C   UNL     1      34.980 -18.044 -21.520  0.00  0.00    +0.026 C 
ATOM      9  C   UNL     1      36.337 -18.712 -21.291  0.00  0.00    +0.005 C 
ATOM     10  C   UNL     1      33.851 -18.943 -21.008  0.00  0.00    +0.005 C 
ATOM     11  C   UNL     1      34.931 -16.683 -20.821  0.00  0.00    +0.005 C 
ENDBRANCH   4   8
BRANCH   5  12
ATOM     12  C   UNL     1      34.624 -15.283 -23.134  0.00  0.00    +0.020 C 
BRANCH  12  13
ATOM     13  CA  UNL     1      33.344 -14.574 -23.588  0.00  0.00    +0.040 C 
BRANCH  13  14
ATOM     14  N   UNL     1      33.671 -13.302 -24.231  0.00  0.00    +0.389 N 
ATOM     15  H1  UNL     1      32.810 -12.803 -24.455  0.00  0.00    -0.088 HD
ATOM     16  H2  UNL     1      34.195 -13.480 -25.089  0.00  0.00    -0.088 HD
ATOM     17  H3  UNL     1      34.237 -12.737 -23.599  0.00  0.00    -0.088 HD
ENDBRANCH  13  14
BRANCH  13  19
ATOM     18  OXT UNL     1      32.156 -14.992 -21.496  0.00  0.00    -0.253 OA
ATOM     19  C   UNL     1      32.423 -14.240 -22.424  0.00  0.00    +0.293 C 
BRANCH  19  20
ATOM     20  O   UNL     1      31.894 -12.992 -22.532  0.00  0.00    -0.482 OA
ATOM     21  H   UNL     1      31.832 -12.580 -23.372  0.00  0.00    +0.295 HD
ENDBRANCH  19  20
ENDBRANCH  13  19
ENDBRANCH  12  13
ENDBRANCH   5  12
TORSDOF 6
ENDMDL
MODEL 3
REMARK VINA RESULT:      -6.8     10.359     11.771
REMARK  Name = 5289518
REMARK  6 active torsions:
REMARK  status: ('A' for Active; 'I' for Inactive)
REMARK    1  A    between atoms: C_4  and  C_8
REMARK    2  A    between atoms: C_5  and  C_12
REMARK    3  A    between atoms: C_12  and  CA_13
REMARK    4  A    between atoms: CA_13  and  N_14
REMARK    5  A    between atoms: CA_13  and  C_19
REMARK    6  A    between atoms: C_19  and  O_20
REMARK                            x       y       z     vdW  Elec       q    Type
REMARK                         _______ _______ _______ _____ _____    ______ ____
ROOT
ATOM      1  S   UNL     1      33.818 -15.467 -24.242  0.00  0.00    -0.015 S 
ATOM      2  O   UNL     1      35.691 -18.718 -23.863  0.00  0.00    -0.267 OA
ATOM      3  N   UNL     1      34.663 -16.833 -24.751  0.00  0.00    -0.292 N 
ATOM      4  C   UNL     1      33.969 -15.967 -22.577  0.00  0.00    +0.023 A 
ATOM      5  C   UNL     1      34.634 -17.124 -22.417  0.00  0.00    +0.036 A 
ATOM      6  C   UNL     1      35.068 -17.673 -23.736  0.00  0.00    +0.259 A 
ATOM      7  H   UNL     1      34.852 -17.017 -25.701  0.00  0.00    +0.177 HD
ENDROOT
BRANCH   4   8
ATOM      8  C   UNL     1      33.367 -15.098 -21.506  0.00  0.00    +0.026 C 
ATOM      9  C   UNL     1      32.739 -13.878 -22.184  0.00  0.00    +0.005 C 
ATOM     10  C   UNL     1      34.473 -14.662 -20.542  0.00  0.00    +0.005 C 
ATOM     11  C   UNL     1      32.299 -15.900 -20.758  0.00  0.00    +0.005 C 
ENDBRANCH   4   8
BRANCH   5  12
ATOM     12  C   UNL     1      34.967 -17.871 -21.174  0.00  0.00    +0.020 C 
BRANCH  12  13
ATOM     13  CA  UNL     1      34.480 -19.320 -21.275  0.00  0.00    +0.040 C 
BRANCH  13  14
ATOM     14  N   UNL     1      33.097 -19.423 -20.809  0.00  0.00    +0.389 N 
ATOM     15  H1  UNL     1      33.043 -20.107 -20.055  0.00  0.00    -0.088 HD
ATOM     16  H2  UNL     1      32.500 -19.720 -21.581  0.00  0.00    -0.088 HD
ATOM     17  H3  UNL     1      32.785 -18.514 -20.468  0.00  0.00    -0.088 HD
ENDBRANCH  13  14
BRANCH  13  19
ATOM     18  OXT UNL     1      34.879 -21.307 -19.913  0.00  0.00    -0.253 OA
ATOM     19  C   UNL     1      35.295 -20.267 -20.407  0.00  0.00    +0.293 C 
BRANCH  19  20
ATOM     20  O   UNL     1      36.564 -19.819 -20.213  0.00  0.00    -0.482 OA
ATOM     21  H   UNL     1      36.723 -19.100 -19.633  0.00  0.00    +0.295 HD
ENDBRANCH  19  20
ENDBRANCH  13  19
ENDBRANCH  12  13
ENDBRANCH   5  12
TORSDOF 6
ENDMDL
MODEL 4
REMARK VINA RESULT:      -6.7     11.285     12.622
REMARK  Name = 5289518
REMARK  6 active torsions:
REMARK  status: ('A' for Active; 'I' for Inactive)
REMARK    1  A    between atoms: C_4  and  C_8
REMARK    2  A    between atoms: C_5  and  C_12
REMARK    3  A    between atoms: C_12  and  CA_13
REMARK    4  A    between atoms: CA_13  and  N_14
REMARK    5  A    between atoms: CA_13  and  C_19
REMARK    6  A    between atoms: C_19  and  O_20
REMARK                            x       y       z     vdW  Elec       q    Type
REMARK                         _______ _______ _______ _____ _____    ______ ____
ROOT
ATOM      1  S   UNL     1      33.437 -14.044 -23.995  0.00  0.00    -0.015 S 
ATOM      2  O   UNL     1      34.596 -17.328 -25.441  0.00  0.00    -0.267 OA
ATOM      3  N   UNL     1      33.943 -15.112 -25.197  0.00  0.00    -0.292 N 
ATOM      4  C   UNL     1      33.573 -15.299 -22.791  0.00  0.00    +0.023 A 
ATOM      5  C   UNL     1      33.986 -16.480 -23.283  0.00  0.00    +0.036 A 
ATOM      6  C   UNL     1      34.218 -16.388 -24.755  0.00  0.00    +0.259 A 
ATOM      7  H   UNL     1      34.034 -14.844 -26.140  0.00  0.00    +0.177 HD
ENDROOT
BRANCH   4   8
ATOM      8  C   UNL     1      33.231 -14.969 -21.363  0.00  0.00    +0.026 C 
ATOM      9  C   UNL     1      34.537 -14.897 -20.569  0.00  0.00    +0.005 C 
ATOM     10  C   UNL     1      32.327 -16.070 -20.803  0.00  0.00    +0.005 C 
ATOM     11  C   UNL     1      32.509 -13.620 -21.325  0.00  0.00    +0.005 C 
ENDBRANCH   4   8
BRANCH   5  12
ATOM     12  C   UNL     1      34.223 -17.775 -22.589  0.00  0.00    +0.020 C 
BRANCH  12  13
ATOM     13  CA  UNL     1      35.658 -17.841 -22.056  0.00  0.00    +0.040 C 
BRANCH  13  14
ATOM     14  N   UNL     1      36.573 -18.256 -23.117  0.00  0.00    +0.389 N 
ATOM     15  H1  UNL     1      36.312 -19.186 -23.446  0.00  0.00    -0.088 HD
ATOM     16  H2  UNL     1      37.527 -18.280 -22.754  0.00  0.00    -0.088 HD
ATOM     17  H3  UNL     1      36.521 -17.594 -23.891  0.00  0.00    -0.088 HD
ENDBRANCH  13  14
BRANCH  13  19
ATOM     18  OXT UNL     1      36.878 -19.215 -20.449  0.00  0.00    -0.253 OA
ATOM     19  C   UNL     1      35.813 -18.857 -20.934  0.00  0.00    +0.293 C 
BRANCH  19  20
ATOM     20  O   UNL     1      34.616 -19.357 -20.527  0.00  0.00    -0.482 OA
ATOM     21  H   UNL     1      34.452 -19.495 -19.615  0.00  0.00    +0.295 HD
ENDBRANCH  19  20
ENDBRANCH  13  19
ENDBRANCH  12  13
ENDBRANCH   5  12
TORSDOF 6
ENDMDL
MODEL 5
REMARK VINA RESULT:      -6.7     16.890     18.216
REMARK  Name = 5289518
REMARK  6 active torsions:
REMARK  status: ('A' for Active; 'I' for Inactive)
REMARK    1  A    between atoms: C_4  and  C_8
REMARK    2  A    between atoms: C_5  and  C_12
REMARK    3  A    between atoms: C_12  and  CA_13
REMARK    4  A    between atoms: CA_13  and  N_14
REMARK    5  A    between atoms: CA_13  and  C_19
REMARK    6  A    between atoms: C_19  and  O_20
REMARK                            x       y       z     vdW  Elec       q    Type
REMARK                         _______ _______ _______ _____ _____    ______ ____
ROOT
ATOM      1  S   UNL     1      32.296  -7.115 -20.232  0.00  0.00    -0.015 S 
ATOM      2  O   UNL     1      31.725 -10.834 -19.980  0.00  0.00    -0.267 OA
ATOM      3  N   UNL     1      32.100  -8.601 -19.460  0.00  0.00    -0.292 N 
ATOM      4  C   UNL     1      32.102  -7.874 -21.790  0.00  0.00    +0.023 A 
ATOM      5  C   UNL     1      31.896  -9.200 -21.726  0.00  0.00    +0.036 A 
ATOM      6  C   UNL     1      31.892  -9.668 -20.308  0.00  0.00    +0.259 A 
ATOM      7  H   UNL     1      32.133  -8.699 -18.480  0.00  0.00    +0.177 HD
ENDROOT
BRANCH   4   8
ATOM      8  C   UNL     1      32.178  -7.015 -23.024  0.00  0.00    +0.026 C 
ATOM      9  C   UNL     1      31.906  -5.568 -22.610  0.00  0.00    +0.005 C 
ATOM     10  C   UNL     1      31.121  -7.491 -24.024  0.00  0.00    +0.005 C 
ATOM     11  C   UNL     1      33.577  -7.142 -23.632  0.00  0.00    +0.005 C 
ENDBRANCH   4   8
BRANCH   5  12
ATOM     12  C   UNL     1      31.687 -10.190 -22.818  0.00  0.00    +0.020 C 
BRANCH  12  13
ATOM     13  CA  UNL     1      32.985 -10.952 -23.105  0.00  0.00    +0.040 C 
BRANCH  13  14
ATOM     14  N   UNL     1      33.452 -10.663 -24.460  0.00  0.00    +0.389 N 
ATOM     15  H1  UNL     1      34.346 -11.127 -24.617  0.00  0.00    -0.088 HD
ATOM     16  H2  UNL     1      33.566  -9.655 -24.573  0.00  0.00    -0.088 HD
ATOM     17  H3  UNL     1      32.769 -11.004 -25.135  0.00  0.00    -0.088 HD
ENDBRANCH  13  14
BRANCH  13  19
ATOM     18  OXT UNL     1      33.542 -13.289 -23.540  0.00  0.00    -0.253 OA
ATOM     19  C   UNL     1      32.802 -12.459 -23.028  0.00  0.00    +0.293 C 
BRANCH  19  20
ATOM     20  O   UNL     1      31.687 -12.804 -22.328  0.00  0.00    -0.482 OA
ATOM     21  H   UNL     1      31.687 -12.752 -21.392  0.00  0.00    +0.295 HD
ENDBRANCH  19  20
ENDBRANCH  13  19
ENDBRANCH  12  13
ENDBRANCH   5  12
TORSDOF 6
ENDMDL
MODEL 6
REMARK VINA RESULT:      -6.6      3.747      4.933
REMARK  Name = 5289518
REMARK  6 active torsions:
REMARK  status: ('A' for Active; 'I' for Inactive)
REMARK    1  A    between atoms: C_4  and  C_8
REMARK    2  A    between atoms: C_5  and  C_12
REMARK    3  A    between atoms: C_12  and  CA_13
REMARK    4  A    between atoms: CA_13  and  N_14
REMARK    5  A    between atoms: CA_13  and  C_19
REMARK    6  A    between atoms: C_19  and  O_20
REMARK                            x       y       z     vdW  Elec       q    Type
REMARK                         _______ _______ _______ _____ _____    ______ ____
ROOT
ATOM      1  S   UNL     1      31.492 -23.123 -17.006  0.00  0.00    -0.015 S 
ATOM      2  O   UNL     1      35.231 -22.923 -17.459  0.00  0.00    -0.267 OA
ATOM      3  N   UNL     1      32.940 -22.923 -17.846  0.00  0.00    -0.292 N 
ATOM      4  C   UNL     1      32.366 -23.370 -15.516  0.00  0.00    +0.023 A 
ATOM      5  C   UNL     1      33.701 -23.302 -15.652  0.00  0.00    +0.036 A 
ATOM      6  C   UNL     1      34.075 -23.030 -17.072  0.00  0.00    +0.259 A 
ATOM      7  H   UNL     1      32.971 -22.744 -18.814  0.00  0.00    +0.177 HD
ENDROOT
BRANCH   4   8
ATOM      8  C   UNL     1      31.584 -23.627 -14.256  0.00  0.00    +0.026 C 
ATOM      9  C   UNL     1      30.136 -23.195 -14.502  0.00  0.00    +0.005 C 
ATOM     10  C   UNL     1      32.198 -22.812 -13.116  0.00  0.00    +0.005 C 
ATOM     11  C   UNL     1      31.644 -25.122 -13.931  0.00  0.00    +0.005 C 
ENDBRANCH   4   8
BRANCH   5  12
ATOM     12  C   UNL     1      34.775 -23.455 -14.634  0.00  0.00    +0.020 C 
BRANCH  12  13
ATOM     13  CA  UNL     1      35.053 -24.938 -14.368  0.00  0.00    +0.040 C 
BRANCH  13  14
ATOM     14  N   UNL     1      35.525 -25.126 -12.997  0.00  0.00    +0.389 N 
ATOM     15  H1  UNL     1      34.907 -24.631 -12.354  0.00  0.00    -0.088 HD
ATOM     16  H2  UNL     1      36.473 -24.758 -12.911  0.00  0.00    -0.088 HD
ATOM     17  H3  UNL     1      35.525 -26.120 -12.770  0.00  0.00    -0.088 HD
ENDBRANCH  13  14
BRANCH  13  19
ATOM     18  OXT UNL     1      36.213 -26.658 -15.655  0.00  0.00    -0.253 OA
ATOM     19  C   UNL     1      36.138 -25.497 -15.275  0.00  0.00    +0.293 C 
BRANCH  19  20
ATOM     20  O   UNL     1      37.057 -24.553 -15.616  0.00  0.00    -0.482 OA
ATOM     21  H   UNL     1      36.841 -23.898 -16.249  0.00  0.00    +0.295 HD
ENDBRANCH  19  20
ENDBRANCH  13  19
ENDBRANCH  12  13
ENDBRANCH   5  12
TORSDOF 6
ENDMDL
MODEL 7
REMARK VINA RESULT:      -6.6      2.249      3.322
REMARK  Name = 5289518
REMARK  6 active torsions:
REMARK  status: ('A' for Active; 'I' for Inactive)
REMARK    1  A    between atoms: C_4  and  C_8
REMARK    2  A    between atoms: C_5  and  C_12
REMARK    3  A    between atoms: C_12  and  CA_13
REMARK    4  A    between atoms: CA_13  and  N_14
REMARK    5  A    between atoms: CA_13  and  C_19
REMARK    6  A    between atoms: C_19  and  O_20
REMARK                            x       y       z     vdW  Elec       q    Type
REMARK                         _______ _______ _______ _____ _____    ______ ____
ROOT
ATOM      1  S   UNL     1      34.576 -24.105 -13.370  0.00  0.00    -0.015 S 
ATOM      2  O   UNL     1      35.992 -26.430 -15.980  0.00  0.00    -0.267 OA
ATOM      3  N   UNL     1      34.596 -24.994 -14.802  0.00  0.00    -0.292 N 
ATOM      4  C   UNL     1      36.176 -24.673 -12.969  0.00  0.00    +0.023 A 
ATOM      5  C   UNL     1      36.703 -25.503 -13.885  0.00  0.00    +0.036 A 
ATOM      6  C   UNL     1      35.751 -25.715 -15.017  0.00  0.00    +0.259 A 
ATOM      7  H   UNL     1      33.841 -24.999 -15.434  0.00  0.00    +0.177 HD
ENDROOT
BRANCH   4   8
ATOM      8  C   UNL     1      36.806 -24.206 -11.685  0.00  0.00    +0.026 C 
ATOM      9  C   UNL     1      35.715 -24.163 -10.612  0.00  0.00    +0.005 C 
ATOM     10  C   UNL     1      37.395 -22.810 -11.902  0.00  0.00    +0.005 C 
ATOM     11  C   UNL     1      37.908 -25.190 -11.285  0.00  0.00    +0.005 C 
ENDBRANCH   4   8
BRANCH   5  12
ATOM     12  C   UNL     1      38.023 -26.188 -13.909  0.00  0.00    +0.020 C 
BRANCH  12  13
ATOM     13  CA  UNL     1      39.117 -25.225 -14.382  0.00  0.00    +0.040 C 
BRANCH  13  14
ATOM     14  N   UNL     1      38.647 -24.451 -15.530  0.00  0.00    +0.389 N 
ATOM     15  H1  UNL     1      38.566 -25.063 -16.342  0.00  0.00    -0.088 HD
ATOM     16  H2  UNL     1      39.312 -23.705 -15.732  0.00  0.00    -0.088 HD
ATOM     17  H3  UNL     1      37.736 -24.046 -15.317  0.00  0.00    -0.088 HD
ENDBRANCH  13  14
BRANCH  13  19
ATOM     18  OXT UNL     1      41.192 -26.481 -14.102  0.00  0.00    -0.253 OA
ATOM     19  C   UNL     1      40.371 -25.953 -14.841  0.00  0.00    +0.293 C 
BRANCH  19  20
ATOM     20  O   UNL     1      40.504 -25.940 -16.194  0.00  0.00    -0.482 OA
ATOM     21  H   UNL     1      40.533 -25.124 -16.654  0.00  0.00    +0.295 HD
ENDBRANCH  19  20
ENDBRANCH  13  19
ENDBRANCH  12  13
ENDBRANCH   5  12
TORSDOF 6
ENDMDL
MODEL 8
REMARK VINA RESULT:      -6.5     11.783     13.174
REMARK  Name = 5289518
REMARK  6 active torsions:
REMARK  status: ('A' for Active; 'I' for Inactive)
REMARK    1  A    between atoms: C_4  and  C_8
REMARK    2  A    between atoms: C_5  and  C_12
REMARK    3  A    between atoms: C_12  and  CA_13
REMARK    4  A    between atoms: CA_13  and  N_14
REMARK    5  A    between atoms: CA_13  and  C_19
REMARK    6  A    between atoms: C_19  and  O_20
REMARK                            x       y       z     vdW  Elec       q    Type
REMARK                         _______ _______ _______ _____ _____    ______ ____
ROOT
ATOM      1  S   UNL     1      32.552 -14.184 -24.367  0.00  0.00    -0.015 S 
ATOM      2  O   UNL     1      34.948 -16.745 -25.754  0.00  0.00    -0.267 OA
ATOM      3  N   UNL     1      33.319 -15.099 -25.556  0.00  0.00    -0.292 N 
ATOM      4  C   UNL     1      33.496 -14.966 -23.125  0.00  0.00    +0.023 A 
ATOM      5  C   UNL     1      34.358 -15.883 -23.596  0.00  0.00    +0.036 A 
ATOM      6  C   UNL     1      34.267 -15.981 -25.083  0.00  0.00    +0.259 A 
ATOM      7  H   UNL     1      33.107 -15.010 -26.514  0.00  0.00    +0.177 HD
ENDROOT
BRANCH   4   8
ATOM      8  C   UNL     1      33.274 -14.565 -21.692  0.00  0.00    +0.026 C 
ATOM      9  C   UNL     1      32.530 -13.227 -21.684  0.00  0.00    +0.005 C 
ATOM     10  C   UNL     1      34.633 -14.423 -21.001  0.00  0.00    +0.005 C 
ATOM     11  C   UNL     1      32.437 -15.643 -20.998  0.00  0.00    +0.005 C 
ENDBRANCH   4   8
BRANCH   5  12
ATOM     12  C   UNL     1      35.324 -16.750 -22.868  0.00  0.00    +0.020 C 
BRANCH  12  13
ATOM     13  CA  UNL     1      34.586 -17.883 -22.146  0.00  0.00    +0.040 C 
BRANCH  13  14
ATOM     14  N   UNL     1      35.066 -18.002 -20.770  0.00  0.00    +0.389 N 
ATOM     15  H1  UNL     1      34.655 -18.829 -20.337  0.00  0.00    -0.088 HD
ATOM     16  H2  UNL     1      34.795 -17.172 -20.243  0.00  0.00    -0.088 HD
ATOM     17  H3  UNL     1      36.082 -18.088 -20.770  0.00  0.00    -0.088 HD
ENDBRANCH  13  14
BRANCH  13  19
ATOM     18  OXT UNL     1      34.855 -19.441 -24.007  0.00  0.00    -0.253 OA
ATOM     19  C   UNL     1      34.821 -19.236 -22.800  0.00  0.00    +0.293 C 
BRANCH  19  20
ATOM     20  O   UNL     1      34.974 -20.228 -21.883  0.00  0.00    -0.482 OA
ATOM     21  H   UNL     1      34.265 -20.815 -21.706  0.00  0.00    +0.295 HD
ENDBRANCH  19  20
ENDBRANCH  13  19
ENDBRANCH  12  13
ENDBRANCH   5  12
TORSDOF 6
ENDMDL
MODEL 9
REMARK VINA RESULT:      -6.5     16.733     18.319
REMARK  Name = 5289518
REMARK  6 active torsions:
REMARK  status: ('A' for Active; 'I' for Inactive)
REMARK    1  A    between atoms: C_4  and  C_8
REMARK    2  A    between atoms: C_5  and  C_12
REMARK    3  A    between atoms: C_12  and  CA_13
REMARK    4  A    between atoms: CA_13  and  N_14
REMARK    5  A    between atoms: CA_13  and  C_19
REMARK    6  A    between atoms: C_19  and  O_20
REMARK                            x       y       z     vdW  Elec       q    Type
REMARK                         _______ _______ _______ _____ _____    ______ ____
ROOT
ATOM      1  S   UNL     1      34.981  -9.748 -24.647  0.00  0.00    -0.015 S 
ATOM      2  O   UNL     1      32.758 -12.498 -23.336  0.00  0.00    -0.267 OA
ATOM      3  N   UNL     1      34.465 -11.333 -24.399  0.00  0.00    -0.292 N 
ATOM      4  C   UNL     1      33.636  -9.141 -23.717  0.00  0.00    +0.023 A 
ATOM      5  C   UNL     1      32.829 -10.103 -23.238  0.00  0.00    +0.036 A 
ATOM      6  C   UNL     1      33.317 -11.454 -23.644  0.00  0.00    +0.259 A 
ATOM      7  H   UNL     1      34.945 -12.111 -24.765  0.00  0.00    +0.177 HD
ENDROOT
BRANCH   4   8
ATOM      8  C   UNL     1      33.497  -7.653 -23.536  0.00  0.00    +0.026 C 
ATOM      9  C   UNL     1      34.640  -6.976 -24.297  0.00  0.00    +0.005 C 
ATOM     10  C   UNL     1      33.583  -7.325 -22.044  0.00  0.00    +0.005 C 
ATOM     11  C   UNL     1      32.145  -7.208 -24.100  0.00  0.00    +0.005 C 
ENDBRANCH   4   8
BRANCH   5  12
ATOM     12  C   UNL     1      31.596  -9.994 -22.412  0.00  0.00    +0.020 C 
BRANCH  12  13
ATOM     13  CA  UNL     1      31.713 -10.869 -21.159  0.00  0.00    +0.040 C 
BRANCH  13  14
ATOM     14  N   UNL     1      30.609 -11.825 -21.105  0.00  0.00    +0.389 N 
ATOM     15  H1  UNL     1      29.858 -11.445 -20.530  0.00  0.00    -0.088 HD
ATOM     16  H2  UNL     1      30.938 -12.702 -20.700  0.00  0.00    -0.088 HD
ATOM     17  H3  UNL     1      30.261 -11.997 -22.048  0.00  0.00    -0.088 HD
ENDBRANCH  13  14
BRANCH  13  19
ATOM     18  OXT UNL     1      32.450  -9.208 -19.528  0.00  0.00    -0.253 OA
ATOM     19  C   UNL     1      31.638 -10.056 -19.876  0.00  0.00    +0.293 C 
BRANCH  19  20
ATOM     20  O   UNL     1      30.557 -10.389 -19.121  0.00  0.00    -0.482 OA
ATOM     21  H   UNL     1      30.291 -11.286 -19.054  0.00  0.00    +0.295 HD
ENDBRANCH  19  20
ENDBRANCH  13  19
ENDBRANCH  12  13
ENDBRANCH   5  12
TORSDOF 6
ENDMDL
