MODEL 1
REMARK VINA RESULT:      -8.9      0.000      0.000
REMARK  Name = 10450387
REMARK  4 active torsions:
REMARK  status: ('A' for Active; 'I' for Inactive)
REMARK    1  A    between atoms: N_2  and  C_11
REMARK    2  A    between atoms: C_4  and  C_20
REMARK    3  A    between atoms: C_20  and  C_21
REMARK    4  A    between atoms: C_21  and  N_22
REMARK                            x       y       z     vdW  Elec       q    Type
REMARK                         _______ _______ _______ _____ _____    ______ ____
ROOT
ATOM      1  S   UNL     1      34.158 -15.347 -20.483  0.00  0.00    -0.018 S 
ATOM      2  N   UNL     1      34.574 -16.830 -22.822  0.00  0.00    -0.270 N 
ATOM      3  N   UNL     1      34.050 -14.662 -23.121  0.00  0.00    -0.294 N 
ATOM      4  C   UNL     1      34.535 -16.541 -24.184  0.00  0.00    +0.043 C 
ATOM      5  C   UNL     1      34.265 -15.632 -22.115  0.00  0.00    +0.142 C 
ATOM      6  C   UNL     1      34.222 -15.246 -24.347  0.00  0.00    +0.074 C 
ATOM      7  H   UNL     1      33.816 -13.718 -22.965  0.00  0.00    +0.154 HD
ENDROOT
BRANCH   2  11
ATOM      8  F   UNL     1      37.251 -21.622 -19.683  0.00  0.00    -0.201 F 
ATOM      9  F   UNL     1      32.732 -22.534 -18.633  0.00  0.00    -0.204 F 
ATOM     10  O   UNL     1      36.564 -19.426 -21.058  0.00  0.00    -0.472 OA
ATOM     11  C   UNL     1      34.878 -18.129 -22.278  0.00  0.00    +0.127 C 
ATOM     12  C   UNL     1      33.757 -18.620 -21.363  0.00  0.00    +0.054 C 
ATOM     13  C   UNL     1      36.183 -18.115 -21.491  0.00  0.00    +0.226 C 
ATOM     14  C   UNL     1      34.202 -19.832 -20.593  0.00  0.00    +0.018 C 
ATOM     15  C   UNL     1      35.560 -20.155 -20.476  0.00  0.00    +0.162 C 
ATOM     16  C   UNL     1      33.251 -20.641 -19.956  0.00  0.00    +0.029 C 
ATOM     17  C   UNL     1      35.956 -21.292 -19.766  0.00  0.00    +0.176 C 
ATOM     18  C   UNL     1      33.648 -21.768 -19.238  0.00  0.00    +0.142 C 
ATOM     19  C   UNL     1      35.000 -22.096 -19.147  0.00  0.00    +0.062 C 
ENDBRANCH   2  11
BRANCH   4  20
ATOM     20  C   UNL     1      34.807 -17.556 -25.231  0.00  0.00    +0.019 C 
BRANCH  20  21
ATOM     21  C   UNL     1      33.895 -18.773 -25.083  0.00  0.00    -0.080 C 
BRANCH  21  22
ATOM     22  N   UNL     1      34.684 -19.999 -25.032  0.00  0.00    +0.381 N 
ATOM     23  H   UNL     1      35.321 -19.961 -24.236  0.00  0.00    -0.089 HD
ATOM     24  H   UNL     1      35.222 -20.093 -25.893  0.00  0.00    -0.089 HD
ATOM     25  H   UNL     1      34.061 -20.800 -24.931  0.00  0.00    -0.089 HD
ENDBRANCH  21  22
ENDBRANCH  20  21
ENDBRANCH   4  20
TORSDOF 4
ENDMDL
MODEL 2
REMARK VINA RESULT:      -8.7      5.608      7.881
REMARK  Name = 10450387
REMARK  4 active torsions:
REMARK  status: ('A' for Active; 'I' for Inactive)
REMARK    1  A    between atoms: N_2  and  C_11
REMARK    2  A    between atoms: C_4  and  C_20
REMARK    3  A    between atoms: C_20  and  C_21
REMARK    4  A    between atoms: C_21  and  N_22
REMARK                            x       y       z     vdW  Elec       q    Type
REMARK                         _______ _______ _______ _____ _____    ______ ____
ROOT
ATOM      1  S   UNL     1      32.941 -14.778 -26.579  0.00  0.00    -0.018 S 
ATOM      2  N   UNL     1      33.991 -15.176 -24.013  0.00  0.00    -0.270 N 
ATOM      3  N   UNL     1      34.018 -16.973 -25.369  0.00  0.00    -0.294 N 
ATOM      4  C   UNL     1      34.550 -16.261 -23.342  0.00  0.00    +0.043 C 
ATOM      5  C   UNL     1      33.640 -15.611 -25.324  0.00  0.00    +0.142 C 
ATOM      6  C   UNL     1      34.560 -17.323 -24.161  0.00  0.00    +0.074 C 
ATOM      7  H   UNL     1      33.910 -17.571 -26.143  0.00  0.00    +0.154 HD
ENDROOT
BRANCH   2  11
ATOM      8  F   UNL     1      32.988  -8.987 -23.192  0.00  0.00    -0.201 F 
ATOM      9  F   UNL     1      30.305 -10.608 -19.652  0.00  0.00    -0.204 F 
ATOM     10  O   UNL     1      33.615 -11.479 -23.955  0.00  0.00    -0.472 OA
ATOM     11  C   UNL     1      33.820 -13.867 -23.436  0.00  0.00    +0.127 C 
ATOM     12  C   UNL     1      32.606 -13.827 -22.509  0.00  0.00    +0.054 C 
ATOM     13  C   UNL     1      33.652 -12.798 -24.510  0.00  0.00    +0.226 C 
ATOM     14  C   UNL     1      32.276 -12.409 -22.136  0.00  0.00    +0.018 C 
ATOM     15  C   UNL     1      32.783 -11.332 -22.876  0.00  0.00    +0.162 C 
ATOM     16  C   UNL     1      31.429 -12.153 -21.049  0.00  0.00    +0.029 C 
ATOM     17  C   UNL     1      32.476 -10.019 -22.507  0.00  0.00    +0.176 C 
ATOM     18  C   UNL     1      31.116 -10.842 -20.691  0.00  0.00    +0.142 C 
ATOM     19  C   UNL     1      31.642  -9.775 -21.417  0.00  0.00    +0.062 C 
ENDBRANCH   2  11
BRANCH   4  20
ATOM     20  C   UNL     1      35.037 -16.179 -21.943  0.00  0.00    +0.019 C 
BRANCH  20  21
ATOM     21  C   UNL     1      34.621 -17.406 -21.133  0.00  0.00    -0.080 C 
BRANCH  21  22
ATOM     22  N   UNL     1      35.786 -18.223 -20.809  0.00  0.00    +0.381 N 
ATOM     23  H   UNL     1      35.894 -18.954 -21.511  0.00  0.00    -0.089 HD
ATOM     24  H   UNL     1      35.658 -18.649 -19.891  0.00  0.00    -0.089 HD
ATOM     25  H   UNL     1      36.620 -17.636 -20.798  0.00  0.00    -0.089 HD
ENDBRANCH  21  22
ENDBRANCH  20  21
ENDBRANCH   4  20
TORSDOF 4
ENDMDL
MODEL 3
REMARK VINA RESULT:      -8.7      4.406      6.680
REMARK  Name = 10450387
REMARK  4 active torsions:
REMARK  status: ('A' for Active; 'I' for Inactive)
REMARK    1  A    between atoms: N_2  and  C_11
REMARK    2  A    between atoms: C_4  and  C_20
REMARK    3  A    between atoms: C_20  and  C_21
REMARK    4  A    between atoms: C_21  and  N_22
REMARK                            x       y       z     vdW  Elec       q    Type
REMARK                         _______ _______ _______ _____ _____    ______ ____
ROOT
ATOM      1  S   UNL     1      34.677 -10.800 -25.236  0.00  0.00    -0.018 S 
ATOM      2  N   UNL     1      32.889 -11.702 -23.278  0.00  0.00    -0.270 N 
ATOM      3  N   UNL     1      33.115  -9.468 -23.439  0.00  0.00    -0.294 N 
ATOM      4  C   UNL     1      32.070 -11.079 -22.338  0.00  0.00    +0.043 C 
ATOM      5  C   UNL     1      33.574 -10.682 -24.000  0.00  0.00    +0.142 C 
ATOM      6  C   UNL     1      32.215  -9.749 -22.446  0.00  0.00    +0.074 C 
ATOM      7  H   UNL     1      33.397  -8.567 -23.717  0.00  0.00    +0.154 HD
ENDROOT
BRANCH   2  11
ATOM      8  F   UNL     1      33.830 -17.483 -25.658  0.00  0.00    -0.201 F 
ATOM      9  F   UNL     1      35.954 -18.093 -21.478  0.00  0.00    -0.204 F 
ATOM     10  O   UNL     1      33.293 -14.918 -25.094  0.00  0.00    -0.472 OA
ATOM     11  C   UNL     1      32.989 -13.129 -23.445  0.00  0.00    +0.127 C 
ATOM     12  C   UNL     1      34.056 -13.719 -22.525  0.00  0.00    +0.054 C 
ATOM     13  C   UNL     1      33.323 -13.503 -24.885  0.00  0.00    +0.226 C 
ATOM     14  C   UNL     1      34.344 -15.145 -22.901  0.00  0.00    +0.018 C 
ATOM     15  C   UNL     1      33.962 -15.654 -24.150  0.00  0.00    +0.162 C 
ATOM     16  C   UNL     1      35.027 -15.979 -22.005  0.00  0.00    +0.029 C 
ATOM     17  C   UNL     1      34.226 -16.986 -24.479  0.00  0.00    +0.176 C 
ATOM     18  C   UNL     1      35.300 -17.305 -22.340  0.00  0.00    +0.142 C 
ATOM     19  C   UNL     1      34.896 -17.809 -23.575  0.00  0.00    +0.062 C 
ENDBRANCH   2  11
BRANCH   4  20
ATOM     20  C   UNL     1      31.202 -11.832 -21.401  0.00  0.00    +0.019 C 
BRANCH  20  21
ATOM     21  C   UNL     1      31.667 -11.671 -19.955  0.00  0.00    -0.080 C 
BRANCH  21  22
ATOM     22  N   UNL     1      30.913 -10.613 -19.290  0.00  0.00    +0.381 N 
ATOM     23  H   UNL     1      29.953 -10.924 -19.141  0.00  0.00    -0.089 HD
ATOM     24  H   UNL     1      30.912  -9.777 -19.874  0.00  0.00    -0.089 HD
ATOM     25  H   UNL     1      31.345 -10.400 -18.391  0.00  0.00    -0.089 HD
ENDBRANCH  21  22
ENDBRANCH  20  21
ENDBRANCH   4  20
TORSDOF 4
ENDMDL
MODEL 4
REMARK VINA RESULT:      -8.6      8.351     10.114
REMARK  Name = 10450387
REMARK  4 active torsions:
REMARK  status: ('A' for Active; 'I' for Inactive)
REMARK    1  A    between atoms: N_2  and  C_11
REMARK    2  A    between atoms: C_4  and  C_20
REMARK    3  A    between atoms: C_20  and  C_21
REMARK    4  A    between atoms: C_21  and  N_22
REMARK                            x       y       z     vdW  Elec       q    Type
REMARK                         _______ _______ _______ _____ _____    ______ ____
ROOT
ATOM      1  S   UNL     1      36.574 -21.858 -16.637  0.00  0.00    -0.018 S 
ATOM      2  N   UNL     1      36.437 -24.206 -15.117  0.00  0.00    -0.270 N 
ATOM      3  N   UNL     1      38.497 -23.597 -15.788  0.00  0.00    -0.294 N 
ATOM      4  C   UNL     1      37.373 -25.129 -14.654  0.00  0.00    +0.043 C 
ATOM      5  C   UNL     1      37.139 -23.207 -15.852  0.00  0.00    +0.142 C 
ATOM      6  C   UNL     1      38.595 -24.753 -15.061  0.00  0.00    +0.074 C 
ATOM      7  H   UNL     1      39.250 -23.114 -16.199  0.00  0.00    +0.154 HD
ENDROOT
BRANCH   2  11
ATOM      8  F   UNL     1      30.671 -23.639 -12.584  0.00  0.00    -0.201 F 
ATOM      9  F   UNL     1      29.552 -22.720 -17.086  0.00  0.00    -0.204 F 
ATOM     10  O   UNL     1      33.268 -23.885 -13.203  0.00  0.00    -0.472 OA
ATOM     11  C   UNL     1      35.020 -24.295 -14.868  0.00  0.00    +0.127 C 
ATOM     12  C   UNL     1      34.222 -23.591 -15.964  0.00  0.00    +0.054 C 
ATOM     13  C   UNL     1      34.649 -23.684 -13.522  0.00  0.00    +0.226 C 
ATOM     14  C   UNL     1      32.783 -23.449 -15.557  0.00  0.00    +0.018 C 
ATOM     15  C   UNL     1      32.394 -23.591 -14.218  0.00  0.00    +0.162 C 
ATOM     16  C   UNL     1      31.812 -23.145 -16.521  0.00  0.00    +0.029 C 
ATOM     17  C   UNL     1      31.049 -23.469 -13.858  0.00  0.00    +0.176 C 
ATOM     18  C   UNL     1      30.472 -23.011 -16.157  0.00  0.00    +0.142 C 
ATOM     19  C   UNL     1      30.090 -23.178 -14.827  0.00  0.00    +0.062 C 
ENDBRANCH   2  11
BRANCH   4  20
ATOM     20  C   UNL     1      37.002 -26.315 -13.844  0.00  0.00    +0.019 C 
BRANCH  20  21
ATOM     21  C   UNL     1      37.568 -26.224 -12.428  0.00  0.00    -0.080 C 
BRANCH  21  22
ATOM     22  N   UNL     1      37.392 -24.879 -11.893  0.00  0.00    +0.381 N 
ATOM     23  H   UNL     1      36.514 -24.489 -12.235  0.00  0.00    -0.089 HD
ATOM     24  H   UNL     1      38.167 -24.288 -12.196  0.00  0.00    -0.089 HD
ATOM     25  H   UNL     1      37.372 -24.918 -10.874  0.00  0.00    -0.089 HD
ENDBRANCH  21  22
ENDBRANCH  20  21
ENDBRANCH   4  20
TORSDOF 4
ENDMDL
MODEL 5
REMARK VINA RESULT:      -8.6      7.170      9.449
REMARK  Name = 10450387
REMARK  4 active torsions:
REMARK  status: ('A' for Active; 'I' for Inactive)
REMARK    1  A    between atoms: N_2  and  C_11
REMARK    2  A    between atoms: C_4  and  C_20
REMARK    3  A    between atoms: C_20  and  C_21
REMARK    4  A    between atoms: C_21  and  N_22
REMARK                            x       y       z     vdW  Elec       q    Type
REMARK                         _______ _______ _______ _____ _____    ______ ____
ROOT
ATOM      1  S   UNL     1      37.245 -26.634 -13.717  0.00  0.00    -0.018 S 
ATOM      2  N   UNL     1      36.326 -24.339 -15.032  0.00  0.00    -0.270 N 
ATOM      3  N   UNL     1      38.557 -24.638 -15.036  0.00  0.00    -0.294 N 
ATOM      4  C   UNL     1      36.938 -23.291 -15.717  0.00  0.00    +0.043 C 
ATOM      5  C   UNL     1      37.351 -25.221 -14.582  0.00  0.00    +0.142 C 
ATOM      6  C   UNL     1      38.267 -23.484 -15.712  0.00  0.00    +0.074 C 
ATOM      7  H   UNL     1      39.459 -25.004 -14.889  0.00  0.00    +0.154 HD
ENDROOT
BRANCH   2  11
ATOM      8  F   UNL     1      30.486 -24.099 -12.620  0.00  0.00    -0.201 F 
ATOM      9  F   UNL     1      29.499 -22.601 -16.995  0.00  0.00    -0.204 F 
ATOM     10  O   UNL     1      33.101 -24.266 -13.188  0.00  0.00    -0.472 OA
ATOM     11  C   UNL     1      34.903 -24.458 -14.839  0.00  0.00    +0.127 C 
ATOM     12  C   UNL     1      34.136 -23.616 -15.857  0.00  0.00    +0.054 C 
ATOM     13  C   UNL     1      34.490 -24.027 -13.436  0.00  0.00    +0.226 C 
ATOM     14  C   UNL     1      32.685 -23.527 -15.478  0.00  0.00    +0.018 C 
ATOM     15  C   UNL     1      32.257 -23.841 -14.182  0.00  0.00    +0.162 C 
ATOM     16  C   UNL     1      31.742 -23.099 -16.423  0.00  0.00    +0.029 C 
ATOM     17  C   UNL     1      30.901 -23.765 -13.849  0.00  0.00    +0.176 C 
ATOM     18  C   UNL     1      30.392 -23.012 -16.086  0.00  0.00    +0.142 C 
ATOM     19  C   UNL     1      29.971 -23.349 -14.801  0.00  0.00    +0.062 C 
ENDBRANCH   2  11
BRANCH   4  20
ATOM     20  C   UNL     1      36.178 -22.176 -16.331  0.00  0.00    +0.019 C 
BRANCH  20  21
ATOM     21  C   UNL     1      36.839 -21.689 -17.619  0.00  0.00    -0.080 C 
BRANCH  21  22
ATOM     22  N   UNL     1      35.894 -21.739 -18.729  0.00  0.00    +0.381 N 
ATOM     23  H   UNL     1      34.959 -21.933 -18.371  0.00  0.00    -0.089 HD
ATOM     24  H   UNL     1      36.169 -22.476 -19.378  0.00  0.00    -0.089 HD
ATOM     25  H   UNL     1      35.892 -20.842 -19.215  0.00  0.00    -0.089 HD
ENDBRANCH  21  22
ENDBRANCH  20  21
ENDBRANCH   4  20
TORSDOF 4
ENDMDL
MODEL 6
REMARK VINA RESULT:      -8.4      5.684      8.324
REMARK  Name = 10450387
REMARK  4 active torsions:
REMARK  status: ('A' for Active; 'I' for Inactive)
REMARK    1  A    between atoms: N_2  and  C_11
REMARK    2  A    between atoms: C_4  and  C_20
REMARK    3  A    between atoms: C_20  and  C_21
REMARK    4  A    between atoms: C_21  and  N_22
REMARK                            x       y       z     vdW  Elec       q    Type
REMARK                         _______ _______ _______ _____ _____    ______ ____
ROOT
ATOM      1  S   UNL     1      34.882 -15.815 -21.504  0.00  0.00    -0.018 S 
ATOM      2  N   UNL     1      33.641 -15.177 -23.933  0.00  0.00    -0.270 N 
ATOM      3  N   UNL     1      34.995 -16.974 -23.971  0.00  0.00    -0.294 N 
ATOM      4  C   UNL     1      33.658 -15.724 -25.214  0.00  0.00    +0.043 C 
ATOM      5  C   UNL     1      34.497 -15.967 -23.112  0.00  0.00    +0.142 C 
ATOM      6  C   UNL     1      34.468 -16.794 -25.222  0.00  0.00    +0.074 C 
ATOM      7  H   UNL     1      35.620 -17.690 -23.711  0.00  0.00    +0.154 HD
ENDROOT
BRANCH   2  11
ATOM      8  F   UNL     1      30.450 -10.804 -20.665  0.00  0.00    -0.201 F 
ATOM      9  F   UNL     1      33.010  -7.911 -23.393  0.00  0.00    -0.204 F 
ATOM     10  O   UNL     1      31.626 -12.966 -21.728  0.00  0.00    -0.472 OA
ATOM     11  C   UNL     1      32.876 -14.015 -23.558  0.00  0.00    +0.127 C 
ATOM     12  C   UNL     1      33.652 -12.729 -23.840  0.00  0.00    +0.054 C 
ATOM     13  C   UNL     1      32.497 -14.045 -22.082  0.00  0.00    +0.226 C 
ATOM     14  C   UNL     1      32.971 -11.554 -23.198  0.00  0.00    +0.018 C 
ATOM     15  C   UNL     1      32.019 -11.735 -22.186  0.00  0.00    +0.162 C 
ATOM     16  C   UNL     1      33.306 -10.252 -23.594  0.00  0.00    +0.029 C 
ATOM     17  C   UNL     1      31.385 -10.631 -21.609  0.00  0.00    +0.176 C 
ATOM     18  C   UNL     1      32.682  -9.151 -23.008  0.00  0.00    +0.142 C 
ATOM     19  C   UNL     1      31.719  -9.341 -22.019  0.00  0.00    +0.062 C 
ENDBRANCH   2  11
BRANCH   4  20
ATOM     20  C   UNL     1      32.877 -15.159 -26.342  0.00  0.00    +0.019 C 
BRANCH  20  21
ATOM     21  C   UNL     1      33.697 -14.146 -27.139  0.00  0.00    -0.080 C 
BRANCH  21  22
ATOM     22  N   UNL     1      32.939 -12.914 -27.332  0.00  0.00    +0.381 N 
ATOM     23  H   UNL     1      33.548 -12.198 -27.725  0.00  0.00    -0.089 HD
ATOM     24  H   UNL     1      32.575 -12.595 -26.434  0.00  0.00    -0.089 HD
ATOM     25  H   UNL     1      32.163 -13.089 -27.971  0.00  0.00    -0.089 HD
ENDBRANCH  21  22
ENDBRANCH  20  21
ENDBRANCH   4  20
TORSDOF 4
ENDMDL
MODEL 7
REMARK VINA RESULT:      -8.4      6.957      9.644
REMARK  Name = 10450387
REMARK  4 active torsions:
REMARK  status: ('A' for Active; 'I' for Inactive)
REMARK    1  A    between atoms: N_2  and  C_11
REMARK    2  A    between atoms: C_4  and  C_20
REMARK    3  A    between atoms: C_20  and  C_21
REMARK    4  A    between atoms: C_21  and  N_22
REMARK                            x       y       z     vdW  Elec       q    Type
REMARK                         _______ _______ _______ _____ _____    ______ ____
ROOT
ATOM      1  S   UNL     1      32.964 -12.909 -26.991  0.00  0.00    -0.018 S 
ATOM      2  N   UNL     1      33.762 -13.325 -24.339  0.00  0.00    -0.270 N 
ATOM      3  N   UNL     1      33.286 -15.182 -25.518  0.00  0.00    -0.294 N 
ATOM      4  C   UNL     1      33.945 -14.449 -23.536  0.00  0.00    +0.043 C 
ATOM      5  C   UNL     1      33.337 -13.773 -25.624  0.00  0.00    +0.142 C 
ATOM      6  C   UNL     1      33.658 -15.547 -24.252  0.00  0.00    +0.074 C 
ATOM      7  H   UNL     1      33.027 -15.800 -26.239  0.00  0.00    +0.154 HD
ENDROOT
BRANCH   2  11
ATOM      8  F   UNL     1      35.102  -7.149 -24.127  0.00  0.00    -0.201 F 
ATOM      9  F   UNL     1      31.185  -7.108 -21.479  0.00  0.00    -0.204 F 
ATOM     10  O   UNL     1      34.870  -9.785 -24.558  0.00  0.00    -0.472 OA
ATOM     11  C   UNL     1      33.977 -11.970 -23.897  0.00  0.00    +0.127 C 
ATOM     12  C   UNL     1      32.684 -11.347 -23.377  0.00  0.00    +0.054 C 
ATOM     13  C   UNL     1      34.527 -11.096 -25.019  0.00  0.00    +0.226 C 
ATOM     14  C   UNL     1      32.855  -9.867 -23.181  0.00  0.00    +0.018 C 
ATOM     15  C   UNL     1      33.916  -9.178 -23.783  0.00  0.00    +0.162 C 
ATOM     16  C   UNL     1      31.928  -9.154 -22.409  0.00  0.00    +0.029 C 
ATOM     17  C   UNL     1      34.068  -7.803 -23.581  0.00  0.00    +0.176 C 
ATOM     18  C   UNL     1      32.075  -7.780 -22.218  0.00  0.00    +0.142 C 
ATOM     19  C   UNL     1      33.147  -7.106 -22.801  0.00  0.00    +0.062 C 
ENDBRANCH   2  11
BRANCH   4  20
ATOM     20  C   UNL     1      34.388 -14.367 -22.124  0.00  0.00    +0.019 C 
BRANCH  20  21
ATOM     21  C   UNL     1      33.824 -15.517 -21.292  0.00  0.00    -0.080 C 
BRANCH  21  22
ATOM     22  N   UNL     1      34.890 -16.429 -20.891  0.00  0.00    +0.381 N 
ATOM     23  H   UNL     1      34.629 -16.896 -20.022  0.00  0.00    -0.089 HD
ATOM     24  H   UNL     1      35.752 -15.902 -20.748  0.00  0.00    -0.089 HD
ATOM     25  H   UNL     1      35.035 -17.126 -21.621  0.00  0.00    -0.089 HD
ENDBRANCH  21  22
ENDBRANCH  20  21
ENDBRANCH   4  20
TORSDOF 4
ENDMDL
MODEL 8
REMARK VINA RESULT:      -8.4      6.510      9.429
REMARK  Name = 10450387
REMARK  4 active torsions:
REMARK  status: ('A' for Active; 'I' for Inactive)
REMARK    1  A    between atoms: N_2  and  C_11
REMARK    2  A    between atoms: C_4  and  C_20
REMARK    3  A    between atoms: C_20  and  C_21
REMARK    4  A    between atoms: C_21  and  N_22
REMARK                            x       y       z     vdW  Elec       q    Type
REMARK                         _______ _______ _______ _____ _____    ______ ____
ROOT
ATOM      1  S   UNL     1      32.710 -14.498 -26.918  0.00  0.00    -0.018 S 
ATOM      2  N   UNL     1      33.490 -14.052 -24.266  0.00  0.00    -0.270 N 
ATOM      3  N   UNL     1      33.910 -16.110 -25.074  0.00  0.00    -0.294 N 
ATOM      4  C   UNL     1      34.102 -14.826 -23.281  0.00  0.00    +0.043 C 
ATOM      5  C   UNL     1      33.356 -14.860 -25.432  0.00  0.00    +0.142 C 
ATOM      6  C   UNL     1      34.346 -16.049 -23.778  0.00  0.00    +0.074 C 
ATOM      7  H   UNL     1      33.973 -16.897 -25.662  0.00  0.00    +0.154 HD
ENDROOT
BRANCH   2  11
ATOM      8  F   UNL     1      31.352  -8.632 -21.809  0.00  0.00    -0.201 F 
ATOM      9  F   UNL     1      35.129  -6.928 -24.086  0.00  0.00    -0.204 F 
ATOM     10  O   UNL     1      31.940 -11.138 -22.559  0.00  0.00    -0.472 OA
ATOM     11  C   UNL     1      33.084 -12.682 -24.082  0.00  0.00    +0.127 C 
ATOM     12  C   UNL     1      34.266 -11.729 -24.251  0.00  0.00    +0.054 C 
ATOM     13  C   UNL     1      32.468 -12.461 -22.705  0.00  0.00    +0.226 C 
ATOM     14  C   UNL     1      33.897 -10.348 -23.788  0.00  0.00    +0.018 C 
ATOM     15  C   UNL     1      32.778 -10.135 -22.972  0.00  0.00    +0.162 C 
ATOM     16  C   UNL     1      34.693  -9.254 -24.153  0.00  0.00    +0.029 C 
ATOM     17  C   UNL     1      32.441  -8.842 -22.561  0.00  0.00    +0.176 C 
ATOM     18  C   UNL     1      34.362  -7.966 -23.732  0.00  0.00    +0.142 C 
ATOM     19  C   UNL     1      33.234  -7.760 -22.940  0.00  0.00    +0.062 C 
ENDBRANCH   2  11
BRANCH   4  20
ATOM     20  C   UNL     1      34.404 -14.312 -21.924  0.00  0.00    +0.019 C 
BRANCH  20  21
ATOM     21  C   UNL     1      34.094 -15.353 -20.849  0.00  0.00    -0.080 C 
BRANCH  21  22
ATOM     22  N   UNL     1      32.658 -15.417 -20.599  0.00  0.00    +0.381 N 
ATOM     23  H   UNL     1      32.203 -14.608 -21.022  0.00  0.00    -0.089 HD
ATOM     24  H   UNL     1      32.487 -15.415 -19.593  0.00  0.00    -0.089 HD
ATOM     25  H   UNL     1      32.279 -16.272 -21.007  0.00  0.00    -0.089 HD
ENDBRANCH  21  22
ENDBRANCH  20  21
ENDBRANCH   4  20
TORSDOF 4
ENDMDL
MODEL 9
REMARK VINA RESULT:      -8.2      4.185      6.203
REMARK  Name = 10450387
REMARK  4 active torsions:
REMARK  status: ('A' for Active; 'I' for Inactive)
REMARK    1  A    between atoms: N_2  and  C_11
REMARK    2  A    between atoms: C_4  and  C_20
REMARK    3  A    between atoms: C_20  and  C_21
REMARK    4  A    between atoms: C_21  and  N_22
REMARK                            x       y       z     vdW  Elec       q    Type
REMARK                         _______ _______ _______ _____ _____    ______ ____
ROOT
ATOM      1  S   UNL     1      31.152 -11.850 -20.876  0.00  0.00    -0.018 S 
ATOM      2  N   UNL     1      32.778 -11.921 -23.155  0.00  0.00    -0.270 N 
ATOM      3  N   UNL     1      32.223  -9.869 -22.415  0.00  0.00    -0.294 N 
ATOM      4  C   UNL     1      33.353 -10.954 -23.979  0.00  0.00    +0.043 C 
ATOM      5  C   UNL     1      32.044 -11.244 -22.138  0.00  0.00    +0.142 C 
ATOM      6  C   UNL     1      33.014  -9.737 -23.525  0.00  0.00    +0.074 C 
ATOM      7  H   UNL     1      31.842  -9.126 -21.893  0.00  0.00    +0.154 HD
ENDROOT
BRANCH   2  11
ATOM      8  F   UNL     1      33.935 -17.624 -25.628  0.00  0.00    -0.201 F 
ATOM      9  F   UNL     1      36.069 -18.225 -21.451  0.00  0.00    -0.204 F 
ATOM     10  O   UNL     1      33.304 -15.090 -25.023  0.00  0.00    -0.472 OA
ATOM     11  C   UNL     1      32.930 -13.341 -23.346  0.00  0.00    +0.127 C 
ATOM     12  C   UNL     1      34.015 -13.907 -22.432  0.00  0.00    +0.054 C 
ATOM     13  C   UNL     1      33.281 -13.678 -24.791  0.00  0.00    +0.226 C 
ATOM     14  C   UNL     1      34.356 -15.315 -22.831  0.00  0.00    +0.018 C 
ATOM     15  C   UNL     1      33.996 -15.816 -24.089  0.00  0.00    +0.162 C 
ATOM     16  C   UNL     1      35.067 -16.138 -21.946  0.00  0.00    +0.029 C 
ATOM     17  C   UNL     1      34.309 -17.132 -24.439  0.00  0.00    +0.176 C 
ATOM     18  C   UNL     1      35.389 -17.447 -22.303  0.00  0.00    +0.142 C 
ATOM     19  C   UNL     1      35.006 -17.946 -23.547  0.00  0.00    +0.062 C 
ENDBRANCH   2  11
BRANCH   4  20
ATOM     20  C   UNL     1      34.195 -11.292 -25.152  0.00  0.00    +0.019 C 
BRANCH  20  21
ATOM     21  C   UNL     1      35.333 -10.290 -25.331  0.00  0.00    -0.080 C 
BRANCH  21  22
ATOM     22  N   UNL     1      35.870 -10.363 -26.686  0.00  0.00    +0.381 N 
ATOM     23  H   UNL     1      35.314  -9.774 -27.305  0.00  0.00    -0.089 HD
ATOM     24  H   UNL     1      35.834 -11.329 -27.014  0.00  0.00    -0.089 HD
ATOM     25  H   UNL     1      36.838 -10.040 -26.687  0.00  0.00    -0.089 HD
ENDBRANCH  21  22
ENDBRANCH  20  21
ENDBRANCH   4  20
TORSDOF 4
ENDMDL
