MODEL 1
REMARK VINA RESULT:     -11.4      0.000      0.000
REMARK  Name = 16045340
REMARK  6 active torsions:
REMARK  status: ('A' for Active; 'I' for Inactive)
REMARK    1  A    between atoms: C_2  and  O_8
REMARK    2  A    between atoms: C_4  and  O_20
REMARK    3  A    between atoms: O_8  and  C_9
REMARK    4  A    between atoms: C_9  and  C_13
REMARK    5  A    between atoms: O_20  and  C_22
REMARK    6  A    between atoms: C_25  and  C_29
REMARK                            x       y       z     vdW  Elec       q    Type
REMARK                         _______ _______ _______ _____ _____    ______ ____
ROOT
ATOM      1 CL   UNL     1      32.905 -14.765 -26.531  0.00  0.00    -0.079 Cl
ATOM      2  C   UNL     1      34.680 -16.339 -22.698  0.00  0.00    +0.142 C 
ATOM      3  C   UNL     1      33.769 -15.288 -22.648  0.00  0.00    +0.075 C 
ATOM      4  C   UNL     1      33.215 -14.794 -23.829  0.00  0.00    +0.159 C 
ATOM      5  C   UNL     1      35.041 -16.902 -23.919  0.00  0.00    +0.038 C 
ATOM      6  C   UNL     1      33.573 -15.355 -25.054  0.00  0.00    +0.092 C 
ATOM      7  C   UNL     1      34.487 -16.408 -25.099  0.00  0.00    +0.018 C 
ENDROOT
BRANCH   2   8
ATOM      8  O   UNL     1      35.223 -16.822 -21.539  0.00  0.00    -0.469 OA
BRANCH   8   9
ATOM      9  C   UNL     1      35.691 -18.171 -21.568  0.00  0.00    +0.248 C 
BRANCH   9  13
ATOM     10  N   UNL     1      33.327 -18.835 -21.191  0.00  0.00    -0.228 N 
ATOM     11  N   UNL     1      32.517 -19.757 -20.630  0.00  0.00    -0.128 NA
ATOM     12  N   UNL     1      33.069 -21.760 -19.379  0.00  0.00    -0.192 NA
ATOM     13  C   UNL     1      34.664 -19.074 -21.022  0.00  0.00    +0.093 C 
ATOM     14  C   UNL     1      34.723 -20.235 -20.300  0.00  0.00    +0.060 C 
ATOM     15  C   UNL     1      33.368 -20.628 -20.077  0.00  0.00    +0.050 C 
ATOM     16  C   UNL     1      35.878 -20.878 -19.885  0.00  0.00    +0.065 C 
ATOM     17  C   UNL     1      35.550 -22.036 -19.171  0.00  0.00    +0.001 C 
ATOM     18  C   UNL     1      34.201 -22.410 -18.959  0.00  0.00    +0.105 C 
ATOM     19  H   UNL     1      32.984 -18.054 -21.680  0.00  0.00    +0.175 HD
ENDBRANCH   9  13
ENDBRANCH   8   9
ENDBRANCH   2   8
BRANCH   4  20
ATOM     20  O   UNL     1      32.324 -13.766 -23.755  0.00  0.00    -0.452 OA
BRANCH  20  22
ATOM     21 CL   UNL     1      35.544 -10.414 -25.824  0.00  0.00    -0.082 Cl
ATOM     22  C   UNL     1      32.827 -12.477 -23.767  0.00  0.00    +0.147 C 
ATOM     23  C   UNL     1      32.336 -11.551 -22.863  0.00  0.00    +0.048 C 
ATOM     24  C   UNL     1      33.811 -12.147 -24.682  0.00  0.00    +0.049 C 
ATOM     25  C   UNL     1      32.845 -10.253 -22.876  0.00  0.00    +0.072 C 
ATOM     26  C   UNL     1      34.320 -10.848 -24.694  0.00  0.00    +0.061 C 
ATOM     27  C   UNL     1      33.837  -9.901 -23.791  0.00  0.00    +0.022 C 
BRANCH  25  29
ATOM     28  N   UNL     1      31.944  -8.494 -21.197  0.00  0.00    -0.191 NA
ATOM     29  C   UNL     1      32.349  -9.284 -21.951  0.00  0.00    +0.101 C 
ENDBRANCH  25  29
ENDBRANCH  20  22
ENDBRANCH   4  20
TORSDOF 6
ENDMDL
MODEL 2
REMARK VINA RESULT:     -11.4      2.009      2.583
REMARK  Name = 16045340
REMARK  6 active torsions:
REMARK  status: ('A' for Active; 'I' for Inactive)
REMARK    1  A    between atoms: C_2  and  O_8
REMARK    2  A    between atoms: C_4  and  O_20
REMARK    3  A    between atoms: O_8  and  C_9
REMARK    4  A    between atoms: C_9  and  C_13
REMARK    5  A    between atoms: O_20  and  C_22
REMARK    6  A    between atoms: C_25  and  C_29
REMARK                            x       y       z     vdW  Elec       q    Type
REMARK                         _______ _______ _______ _____ _____    ______ ____
ROOT
ATOM      1 CL   UNL     1      31.628 -12.538 -20.403  0.00  0.00    -0.079 Cl
ATOM      2  C   UNL     1      34.464 -15.527 -22.234  0.00  0.00    +0.142 C 
ATOM      3  C   UNL     1      33.822 -14.603 -23.053  0.00  0.00    +0.075 C 
ATOM      4  C   UNL     1      32.942 -13.675 -22.495  0.00  0.00    +0.159 C 
ATOM      5  C   UNL     1      34.235 -15.530 -20.860  0.00  0.00    +0.038 C 
ATOM      6  C   UNL     1      32.711 -13.674 -21.120  0.00  0.00    +0.092 C 
ATOM      7  C   UNL     1      33.356 -14.602 -20.303  0.00  0.00    +0.018 C 
ENDROOT
BRANCH   2   8
ATOM      8  O   UNL     1      35.325 -16.437 -22.781  0.00  0.00    -0.469 OA
BRANCH   8   9
ATOM      9  C   UNL     1      34.818 -17.757 -22.981  0.00  0.00    +0.248 C 
BRANCH   9  13
ATOM     10  N   UNL     1      36.630 -18.685 -21.557  0.00  0.00    -0.228 N 
ATOM     11  N   UNL     1      36.919 -19.560 -20.572  0.00  0.00    -0.128 NA
ATOM     12  N   UNL     1      35.464 -21.074 -19.357  0.00  0.00    -0.192 NA
ATOM     13  C   UNL     1      35.312 -18.653 -21.922  0.00  0.00    +0.093 C 
ATOM     14  C   UNL     1      34.704 -19.575 -21.113  0.00  0.00    +0.060 C 
ATOM     15  C   UNL     1      35.737 -20.116 -20.288  0.00  0.00    +0.050 C 
ATOM     16  C   UNL     1      33.356 -19.897 -21.115  0.00  0.00    +0.065 C 
ATOM     17  C   UNL     1      33.097 -20.880 -20.154  0.00  0.00    +0.001 C 
ATOM     18  C   UNL     1      34.134 -21.406 -19.345  0.00  0.00    +0.105 C 
ATOM     19  H   UNL     1      37.313 -18.116 -21.980  0.00  0.00    +0.175 HD
ENDBRANCH   9  13
ENDBRANCH   8   9
ENDBRANCH   2   8
BRANCH   4  20
ATOM     20  O   UNL     1      32.327 -12.779 -23.317  0.00  0.00    -0.452 OA
BRANCH  20  22
ATOM     21 CL   UNL     1      35.861 -10.370 -26.072  0.00  0.00    -0.082 Cl
ATOM     22  C   UNL     1      32.994 -11.599 -23.595  0.00  0.00    +0.147 C 
ATOM     23  C   UNL     1      32.669 -10.456 -22.885  0.00  0.00    +0.048 C 
ATOM     24  C   UNL     1      33.970 -11.592 -24.575  0.00  0.00    +0.049 C 
ATOM     25  C   UNL     1      33.343  -9.267 -23.166  0.00  0.00    +0.072 C 
ATOM     26  C   UNL     1      34.643 -10.403 -24.856  0.00  0.00    +0.061 C 
ATOM     27  C   UNL     1      34.329  -9.240 -24.152  0.00  0.00    +0.022 C 
BRANCH  25  29
ATOM     28  N   UNL     1      32.757  -7.107 -21.857  0.00  0.00    -0.191 NA
ATOM     29  C   UNL     1      33.020  -8.077 -22.445  0.00  0.00    +0.101 C 
ENDBRANCH  25  29
ENDBRANCH  20  22
ENDBRANCH   4  20
TORSDOF 6
ENDMDL
MODEL 3
REMARK VINA RESULT:     -11.1      1.693      2.096
REMARK  Name = 16045340
REMARK  6 active torsions:
REMARK  status: ('A' for Active; 'I' for Inactive)
REMARK    1  A    between atoms: C_2  and  O_8
REMARK    2  A    between atoms: C_4  and  O_20
REMARK    3  A    between atoms: O_8  and  C_9
REMARK    4  A    between atoms: C_9  and  C_13
REMARK    5  A    between atoms: O_20  and  C_22
REMARK    6  A    between atoms: C_25  and  C_29
REMARK                            x       y       z     vdW  Elec       q    Type
REMARK                         _______ _______ _______ _____ _____    ______ ____
ROOT
ATOM      1 CL   UNL     1      32.711 -14.446 -26.116  0.00  0.00    -0.079 Cl
ATOM      2  C   UNL     1      34.664 -16.440 -22.576  0.00  0.00    +0.142 C 
ATOM      3  C   UNL     1      33.742 -15.421 -22.363  0.00  0.00    +0.075 C 
ATOM      4  C   UNL     1      33.133 -14.797 -23.453  0.00  0.00    +0.159 C 
ATOM      5  C   UNL     1      34.983 -16.843 -23.870  0.00  0.00    +0.038 C 
ATOM      6  C   UNL     1      33.448 -15.199 -24.750  0.00  0.00    +0.092 C 
ATOM      7  C   UNL     1      34.373 -16.221 -24.959  0.00  0.00    +0.018 C 
ENDROOT
BRANCH   2   8
ATOM      8  O   UNL     1      35.262 -17.050 -21.508  0.00  0.00    -0.469 OA
BRANCH   8   9
ATOM      9  C   UNL     1      35.666 -18.407 -21.692  0.00  0.00    +0.248 C 
BRANCH   9  13
ATOM     10  N   UNL     1      33.332 -19.198 -21.381  0.00  0.00    -0.228 N 
ATOM     11  N   UNL     1      32.549 -20.108 -20.764  0.00  0.00    -0.128 NA
ATOM     12  N   UNL     1      33.148 -21.910 -19.254  0.00  0.00    -0.192 NA
ATOM     13  C   UNL     1      34.667 -19.316 -21.106  0.00  0.00    +0.093 C 
ATOM     14  C   UNL     1      34.754 -20.380 -20.249  0.00  0.00    +0.060 C 
ATOM     15  C   UNL     1      33.417 -20.845 -20.063  0.00  0.00    +0.050 C 
ATOM     16  C   UNL     1      35.919 -20.884 -19.692  0.00  0.00    +0.065 C 
ATOM     17  C   UNL     1      35.622 -21.974 -18.867  0.00  0.00    +0.001 C 
ATOM     18  C   UNL     1      34.289 -22.422 -18.693  0.00  0.00    +0.105 C 
ATOM     19  H   UNL     1      32.972 -18.506 -21.979  0.00  0.00    +0.175 HD
ENDBRANCH   9  13
ENDBRANCH   8   9
ENDBRANCH   2   8
BRANCH   4  20
ATOM     20  O   UNL     1      32.231 -13.803 -23.219  0.00  0.00    -0.452 OA
BRANCH  20  22
ATOM     21 CL   UNL     1      31.938  -9.001 -21.564  0.00  0.00    -0.082 Cl
ATOM     22  C   UNL     1      32.674 -12.496 -23.327  0.00  0.00    +0.147 C 
ATOM     23  C   UNL     1      33.636 -12.184 -24.271  0.00  0.00    +0.048 C 
ATOM     24  C   UNL     1      32.141 -11.533 -22.489  0.00  0.00    +0.049 C 
ATOM     25  C   UNL     1      34.081 -10.867 -24.379  0.00  0.00    +0.072 C 
ATOM     26  C   UNL     1      32.586 -10.216 -22.597  0.00  0.00    +0.061 C 
ATOM     27  C   UNL     1      33.557  -9.882 -23.542  0.00  0.00    +0.022 C 
BRANCH  25  29
ATOM     28  N   UNL     1      35.886 -10.251 -26.136  0.00  0.00    -0.191 NA
ATOM     29  C   UNL     1      35.075 -10.527 -25.347  0.00  0.00    +0.101 C 
ENDBRANCH  25  29
ENDBRANCH  20  22
ENDBRANCH   4  20
TORSDOF 6
ENDMDL
MODEL 4
REMARK VINA RESULT:     -11.0      6.807     11.806
REMARK  Name = 16045340
REMARK  6 active torsions:
REMARK  status: ('A' for Active; 'I' for Inactive)
REMARK    1  A    between atoms: C_2  and  O_8
REMARK    2  A    between atoms: C_4  and  O_20
REMARK    3  A    between atoms: O_8  and  C_9
REMARK    4  A    between atoms: C_9  and  C_13
REMARK    5  A    between atoms: O_20  and  C_22
REMARK    6  A    between atoms: C_25  and  C_29
REMARK                            x       y       z     vdW  Elec       q    Type
REMARK                         _______ _______ _______ _____ _____    ______ ____
ROOT
ATOM      1 CL   UNL     1      31.583 -23.591 -12.703  0.00  0.00    -0.079 Cl
ATOM      2  C   UNL     1      32.320 -23.027 -17.114  0.00  0.00    +0.142 C 
ATOM      3  C   UNL     1      33.348 -23.500 -16.305  0.00  0.00    +0.075 C 
ATOM      4  C   UNL     1      33.129 -23.677 -14.938  0.00  0.00    +0.159 C 
ATOM      5  C   UNL     1      31.074 -22.730 -16.570  0.00  0.00    +0.038 C 
ATOM      6  C   UNL     1      31.883 -23.382 -14.389  0.00  0.00    +0.092 C 
ATOM      7  C   UNL     1      30.855 -22.908 -15.204  0.00  0.00    +0.018 C 
ENDROOT
BRANCH   2   8
ATOM      8  O   UNL     1      32.536 -22.853 -18.454  0.00  0.00    -0.469 OA
BRANCH   8   9
ATOM      9  C   UNL     1      33.865 -22.512 -18.848  0.00  0.00    +0.248 C 
BRANCH   9  13
ATOM     10  N   UNL     1      32.681 -20.761 -20.153  0.00  0.00    -0.228 N 
ATOM     11  N   UNL     1      32.838 -19.658 -20.914  0.00  0.00    -0.128 NA
ATOM     12  N   UNL     1      34.864 -18.501 -21.581  0.00  0.00    -0.192 NA
ATOM     13  C   UNL     1      33.849 -21.305 -19.692  0.00  0.00    +0.093 C 
ATOM     14  C   UNL     1      34.832 -20.495 -20.190  0.00  0.00    +0.060 C 
ATOM     15  C   UNL     1      34.163 -19.482 -20.943  0.00  0.00    +0.050 C 
ATOM     16  C   UNL     1      36.195 -20.649 -19.988  0.00  0.00    +0.065 C 
ATOM     17  C   UNL     1      36.894 -19.634 -20.648  0.00  0.00    +0.001 C 
ATOM     18  C   UNL     1      36.214 -18.637 -21.392  0.00  0.00    +0.105 C 
ATOM     19  H   UNL     1      31.798 -21.144 -19.947  0.00  0.00    +0.175 HD
ENDBRANCH   9  13
ENDBRANCH   8   9
ENDBRANCH   2   8
BRANCH   4  20
ATOM     20  O   UNL     1      34.151 -24.144 -14.166  0.00  0.00    -0.452 OA
BRANCH  20  22
ATOM     21 CL   UNL     1      37.478 -21.186 -16.629  0.00  0.00    -0.082 Cl
ATOM     22  C   UNL     1      35.441 -23.967 -14.633  0.00  0.00    +0.147 C 
ATOM     23  C   UNL     1      36.382 -24.958 -14.411  0.00  0.00    +0.048 C 
ATOM     24  C   UNL     1      35.759 -22.804 -15.311  0.00  0.00    +0.049 C 
ATOM     25  C   UNL     1      37.682 -24.779 -14.883  0.00  0.00    +0.072 C 
ATOM     26  C   UNL     1      37.060 -22.625 -15.783  0.00  0.00    +0.061 C 
ATOM     27  C   UNL     1      38.022 -23.613 -15.568  0.00  0.00    +0.022 C 
BRANCH  25  29
ATOM     28  N   UNL     1      39.468 -26.616 -14.482  0.00  0.00    -0.191 NA
ATOM     29  C   UNL     1      38.666 -25.791 -14.662  0.00  0.00    +0.101 C 
ENDBRANCH  25  29
ENDBRANCH  20  22
ENDBRANCH   4  20
TORSDOF 6
ENDMDL
MODEL 5
REMARK VINA RESULT:     -10.8      2.607      3.333
REMARK  Name = 16045340
REMARK  6 active torsions:
REMARK  status: ('A' for Active; 'I' for Inactive)
REMARK    1  A    between atoms: C_2  and  O_8
REMARK    2  A    between atoms: C_4  and  O_20
REMARK    3  A    between atoms: O_8  and  C_9
REMARK    4  A    between atoms: C_9  and  C_13
REMARK    5  A    between atoms: O_20  and  C_22
REMARK    6  A    between atoms: C_25  and  C_29
REMARK                            x       y       z     vdW  Elec       q    Type
REMARK                         _______ _______ _______ _____ _____    ______ ____
ROOT
ATOM      1 CL   UNL     1      31.602 -12.635 -20.338  0.00  0.00    -0.079 Cl
ATOM      2  C   UNL     1      34.464 -15.551 -22.243  0.00  0.00    +0.142 C 
ATOM      3  C   UNL     1      33.804 -14.622 -23.041  0.00  0.00    +0.075 C 
ATOM      4  C   UNL     1      32.916 -13.716 -22.460  0.00  0.00    +0.159 C 
ATOM      5  C   UNL     1      34.246 -15.582 -20.868  0.00  0.00    +0.038 C 
ATOM      6  C   UNL     1      32.694 -13.743 -21.084  0.00  0.00    +0.092 C 
ATOM      7  C   UNL     1      33.359 -14.675 -20.288  0.00  0.00    +0.018 C 
ENDROOT
BRANCH   2   8
ATOM      8  O   UNL     1      35.334 -16.439 -22.813  0.00  0.00    -0.469 OA
BRANCH   8   9
ATOM      9  C   UNL     1      34.843 -17.761 -23.034  0.00  0.00    +0.248 C 
BRANCH   9  13
ATOM     10  N   UNL     1      36.613 -18.702 -21.567  0.00  0.00    -0.228 N 
ATOM     11  N   UNL     1      36.871 -19.576 -20.572  0.00  0.00    -0.128 NA
ATOM     12  N   UNL     1      35.373 -21.068 -19.383  0.00  0.00    -0.192 NA
ATOM     13  C   UNL     1      35.304 -18.658 -21.961  0.00  0.00    +0.093 C 
ATOM     14  C   UNL     1      34.668 -19.569 -21.162  0.00  0.00    +0.060 C 
ATOM     15  C   UNL     1      35.676 -20.117 -20.312  0.00  0.00    +0.050 C 
ATOM     16  C   UNL     1      33.317 -19.877 -21.192  0.00  0.00    +0.065 C 
ATOM     17  C   UNL     1      33.027 -20.852 -20.232  0.00  0.00    +0.001 C 
ATOM     18  C   UNL     1      34.040 -21.386 -19.398  0.00  0.00    +0.105 C 
ATOM     19  H   UNL     1      37.311 -18.142 -21.977  0.00  0.00    +0.175 HD
ENDBRANCH   9  13
ENDBRANCH   8   9
ENDBRANCH   2   8
BRANCH   4  20
ATOM     20  O   UNL     1      32.282 -12.814 -23.261  0.00  0.00    -0.452 OA
BRANCH  20  22
ATOM     21 CL   UNL     1      33.113  -7.916 -22.166  0.00  0.00    -0.082 Cl
ATOM     22  C   UNL     1      32.952 -11.642 -23.565  0.00  0.00    +0.147 C 
ATOM     23  C   UNL     1      33.840 -11.626 -24.626  0.00  0.00    +0.048 C 
ATOM     24  C   UNL     1      32.716 -10.514 -22.799  0.00  0.00    +0.049 C 
ATOM     25  C   UNL     1      34.514 -10.444 -24.931  0.00  0.00    +0.072 C 
ATOM     26  C   UNL     1      33.390  -9.331 -23.105  0.00  0.00    +0.061 C 
ATOM     27  C   UNL     1      34.290  -9.296 -24.170  0.00  0.00    +0.022 C 
BRANCH  25  29
ATOM     28  N   UNL     1      36.186 -10.382 -26.912  0.00  0.00    -0.191 NA
ATOM     29  C   UNL     1      35.435 -10.410 -26.023  0.00  0.00    +0.101 C 
ENDBRANCH  25  29
ENDBRANCH  20  22
ENDBRANCH   4  20
TORSDOF 6
ENDMDL
MODEL 6
REMARK VINA RESULT:     -10.7      2.465      3.173
REMARK  Name = 16045340
REMARK  6 active torsions:
REMARK  status: ('A' for Active; 'I' for Inactive)
REMARK    1  A    between atoms: C_2  and  O_8
REMARK    2  A    between atoms: C_4  and  O_20
REMARK    3  A    between atoms: O_8  and  C_9
REMARK    4  A    between atoms: C_9  and  C_13
REMARK    5  A    between atoms: O_20  and  C_22
REMARK    6  A    between atoms: C_25  and  C_29
REMARK                            x       y       z     vdW  Elec       q    Type
REMARK                         _______ _______ _______ _____ _____    ______ ____
ROOT
ATOM      1 CL   UNL     1      33.511 -11.998 -24.682  0.00  0.00    -0.079 Cl
ATOM      2  C   UNL     1      33.526 -15.468 -21.804  0.00  0.00    +0.142 C 
ATOM      3  C   UNL     1      32.507 -14.524 -21.730  0.00  0.00    +0.075 C 
ATOM      4  C   UNL     1      32.494 -13.447 -22.617  0.00  0.00    +0.159 C 
ATOM      5  C   UNL     1      34.534 -15.345 -22.757  0.00  0.00    +0.038 C 
ATOM      6  C   UNL     1      33.501 -13.320 -23.573  0.00  0.00    +0.092 C 
ATOM      7  C   UNL     1      34.520 -14.269 -23.644  0.00  0.00    +0.018 C 
ENDROOT
BRANCH   2   8
ATOM      8  O   UNL     1      33.539 -16.523 -20.934  0.00  0.00    -0.469 OA
BRANCH   8   9
ATOM      9  C   UNL     1      33.375 -17.822 -21.504  0.00  0.00    +0.248 C 
BRANCH   9  13
ATOM     10  N   UNL     1      35.750 -18.412 -21.073  0.00  0.00    -0.228 N 
ATOM     11  N   UNL     1      36.578 -19.351 -20.570  0.00  0.00    -0.128 NA
ATOM     12  N   UNL     1      36.071 -21.499 -19.564  0.00  0.00    -0.192 NA
ATOM     13  C   UNL     1      34.421 -18.730 -21.002  0.00  0.00    +0.093 C 
ATOM     14  C   UNL     1      34.387 -19.963 -20.410  0.00  0.00    +0.060 C 
ATOM     15  C   UNL     1      35.748 -20.314 -20.156  0.00  0.00    +0.050 C 
ATOM     16  C   UNL     1      33.248 -20.699 -20.124  0.00  0.00    +0.065 C 
ATOM     17  C   UNL     1      33.601 -21.910 -19.518  0.00  0.00    +0.001 C 
ATOM     18  C   UNL     1      34.956 -22.242 -19.275  0.00  0.00    +0.105 C 
ATOM     19  H   UNL     1      36.075 -17.568 -21.461  0.00  0.00    +0.175 HD
ENDBRANCH   9  13
ENDBRANCH   8   9
ENDBRANCH   2   8
BRANCH   4  20
ATOM     20  O   UNL     1      31.485 -12.536 -22.527  0.00  0.00    -0.452 OA
BRANCH  20  22
ATOM     21 CL   UNL     1      31.465 -10.887 -17.715  0.00  0.00    -0.082 Cl
ATOM     22  C   UNL     1      31.649 -11.479 -21.649  0.00  0.00    +0.147 C 
ATOM     23  C   UNL     1      31.965 -10.228 -22.149  0.00  0.00    +0.048 C 
ATOM     24  C   UNL     1      31.491 -11.700 -20.293  0.00  0.00    +0.049 C 
ATOM     25  C   UNL     1      32.130  -9.164 -21.263  0.00  0.00    +0.072 C 
ATOM     26  C   UNL     1      31.656 -10.636 -19.406  0.00  0.00    +0.061 C 
ATOM     27  C   UNL     1      31.976  -9.367 -19.891  0.00  0.00    +0.022 C 
BRANCH  25  29
ATOM     28  N   UNL     1      32.726  -6.808 -22.167  0.00  0.00    -0.191 NA
ATOM     29  C   UNL     1      32.458  -7.866 -21.761  0.00  0.00    +0.101 C 
ENDBRANCH  25  29
ENDBRANCH  20  22
ENDBRANCH   4  20
TORSDOF 6
ENDMDL
MODEL 7
REMARK VINA RESULT:     -10.5      5.744     10.607
REMARK  Name = 16045340
REMARK  6 active torsions:
REMARK  status: ('A' for Active; 'I' for Inactive)
REMARK    1  A    between atoms: C_2  and  O_8
REMARK    2  A    between atoms: C_4  and  O_20
REMARK    3  A    between atoms: O_8  and  C_9
REMARK    4  A    between atoms: C_9  and  C_13
REMARK    5  A    between atoms: O_20  and  C_22
REMARK    6  A    between atoms: C_25  and  C_29
REMARK                            x       y       z     vdW  Elec       q    Type
REMARK                         _______ _______ _______ _____ _____    ______ ____
ROOT
ATOM      1 CL   UNL     1      36.284 -23.499 -15.707  0.00  0.00    -0.079 Cl
ATOM      2  C   UNL     1      35.103 -21.251 -19.431  0.00  0.00    +0.142 C 
ATOM      3  C   UNL     1      34.256 -22.235 -18.930  0.00  0.00    +0.075 C 
ATOM      4  C   UNL     1      34.614 -22.936 -17.778  0.00  0.00    +0.159 C 
ATOM      5  C   UNL     1      36.304 -20.961 -18.791  0.00  0.00    +0.038 C 
ATOM      6  C   UNL     1      35.816 -22.648 -17.133  0.00  0.00    +0.092 C 
ATOM      7  C   UNL     1      36.661 -21.661 -17.639  0.00  0.00    +0.018 C 
ENDROOT
BRANCH   2   8
ATOM      8  O   UNL     1      34.752 -20.565 -20.561  0.00  0.00    -0.469 OA
BRANCH   8   9
ATOM      9  C   UNL     1      35.809 -19.914 -21.267  0.00  0.00    +0.248 C 
BRANCH   9  13
ATOM     10  N   UNL     1      35.315 -17.543 -20.717  0.00  0.00    -0.228 N 
ATOM     11  N   UNL     1      34.929 -16.352 -21.220  0.00  0.00    -0.128 NA
ATOM     12  N   UNL     1      34.372 -15.730 -23.498  0.00  0.00    -0.192 NA
ATOM     13  C   UNL     1      35.403 -18.549 -21.640  0.00  0.00    +0.093 C 
ATOM     14  C   UNL     1      35.048 -17.966 -22.826  0.00  0.00    +0.060 C 
ATOM     15  C   UNL     1      34.762 -16.600 -22.523  0.00  0.00    +0.050 C 
ATOM     16  C   UNL     1      34.988 -18.598 -24.059  0.00  0.00    +0.065 C 
ATOM     17  C   UNL     1      34.588 -17.689 -25.043  0.00  0.00    +0.001 C 
ATOM     18  C   UNL     1      34.307 -16.338 -24.725  0.00  0.00    +0.105 C 
ATOM     19  H   UNL     1      35.517 -17.677 -19.764  0.00  0.00    +0.175 HD
ENDBRANCH   9  13
ENDBRANCH   8   9
ENDBRANCH   2   8
BRANCH   4  20
ATOM     20  O   UNL     1      33.768 -23.893 -17.304  0.00  0.00    -0.452 OA
BRANCH  20  22
ATOM     21 CL   UNL     1      32.263 -22.931 -12.540  0.00  0.00    -0.082 Cl
ATOM     22  C   UNL     1      32.753 -23.491 -16.453  0.00  0.00    +0.147 C 
ATOM     23  C   UNL     1      31.517 -23.165 -16.983  0.00  0.00    +0.048 C 
ATOM     24  C   UNL     1      33.001 -23.426 -15.094  0.00  0.00    +0.049 C 
ATOM     25  C   UNL     1      30.495 -22.759 -16.124  0.00  0.00    +0.072 C 
ATOM     26  C   UNL     1      31.979 -23.020 -14.235  0.00  0.00    +0.061 C 
ATOM     27  C   UNL     1      30.726 -22.686 -14.751  0.00  0.00    +0.022 C 
BRANCH  25  29
ATOM     28  N   UNL     1      28.168 -22.139 -17.085  0.00  0.00    -0.191 NA
ATOM     29  C   UNL     1      29.213 -22.418 -16.653  0.00  0.00    +0.101 C 
ENDBRANCH  25  29
ENDBRANCH  20  22
ENDBRANCH   4  20
TORSDOF 6
ENDMDL
MODEL 8
REMARK VINA RESULT:     -10.5      4.614      7.378
REMARK  Name = 16045340
REMARK  6 active torsions:
REMARK  status: ('A' for Active; 'I' for Inactive)
REMARK    1  A    between atoms: C_2  and  O_8
REMARK    2  A    between atoms: C_4  and  O_20
REMARK    3  A    between atoms: O_8  and  C_9
REMARK    4  A    between atoms: C_9  and  C_13
REMARK    5  A    between atoms: O_20  and  C_22
REMARK    6  A    between atoms: C_25  and  C_29
REMARK                            x       y       z     vdW  Elec       q    Type
REMARK                         _______ _______ _______ _____ _____    ______ ____
ROOT
ATOM      1 CL   UNL     1      33.000 -19.859 -21.697  0.00  0.00    -0.079 Cl
ATOM      2  C   UNL     1      35.897 -21.668 -18.755  0.00  0.00    +0.142 C 
ATOM      3  C   UNL     1      36.387 -20.967 -19.852  0.00  0.00    +0.075 C 
ATOM      4  C   UNL     1      35.497 -20.403 -20.768  0.00  0.00    +0.159 C 
ATOM      5  C   UNL     1      34.525 -21.811 -18.564  0.00  0.00    +0.038 C 
ATOM      6  C   UNL     1      34.123 -20.544 -20.581  0.00  0.00    +0.092 C 
ATOM      7  C   UNL     1      33.637 -21.248 -19.479  0.00  0.00    +0.018 C 
ENDROOT
BRANCH   2   8
ATOM      8  O   UNL     1      36.769 -22.220 -17.857  0.00  0.00    -0.469 OA
BRANCH   8   9
ATOM      9  C   UNL     1      36.486 -22.002 -16.475  0.00  0.00    +0.248 C 
BRANCH   9  13
ATOM     10  N   UNL     1      38.441 -23.440 -15.943  0.00  0.00    -0.228 N 
ATOM     11  N   UNL     1      38.928 -24.368 -15.092  0.00  0.00    -0.128 NA
ATOM     12  N   UNL     1      37.905 -25.381 -13.140  0.00  0.00    -0.192 NA
ATOM     13  C   UNL     1      37.174 -23.011 -15.652  0.00  0.00    +0.093 C 
ATOM     14  C   UNL     1      36.816 -23.712 -14.533  0.00  0.00    +0.060 C 
ATOM     15  C   UNL     1      37.934 -24.543 -14.216  0.00  0.00    +0.050 C 
ATOM     16  C   UNL     1      35.607 -23.614 -13.862  0.00  0.00    +0.065 C 
ATOM     17  C   UNL     1      35.599 -24.479 -12.763  0.00  0.00    +0.001 C 
ATOM     18  C   UNL     1      36.715 -25.297 -12.464  0.00  0.00    +0.105 C 
ATOM     19  H   UNL     1      38.954 -23.100 -16.710  0.00  0.00    +0.175 HD
ENDBRANCH   9  13
ENDBRANCH   8   9
ENDBRANCH   2   8
BRANCH   4  20
ATOM     20  O   UNL     1      36.000 -19.719 -21.834  0.00  0.00    -0.452 OA
BRANCH  20  22
ATOM     21 CL   UNL     1      34.559 -15.186 -20.031  0.00  0.00    -0.082 Cl
ATOM     22  C   UNL     1      35.478 -18.465 -22.097  0.00  0.00    +0.147 C 
ATOM     23  C   UNL     1      35.140 -18.133 -23.397  0.00  0.00    +0.048 C 
ATOM     24  C   UNL     1      35.307 -17.575 -21.052  0.00  0.00    +0.049 C 
ATOM     25  C   UNL     1      34.614 -16.868 -23.660  0.00  0.00    +0.072 C 
ATOM     26  C   UNL     1      34.780 -16.310 -21.315  0.00  0.00    +0.061 C 
ATOM     27  C   UNL     1      34.434 -15.956 -22.620  0.00  0.00    +0.022 C 
BRANCH  25  29
ATOM     28  N   UNL     1      33.972 -16.213 -26.085  0.00  0.00    -0.191 NA
ATOM     29  C   UNL     1      34.260 -16.507 -24.996  0.00  0.00    +0.101 C 
ENDBRANCH  25  29
ENDBRANCH  20  22
ENDBRANCH   4  20
TORSDOF 6
ENDMDL
MODEL 9
REMARK VINA RESULT:     -10.5      7.566     10.962
REMARK  Name = 16045340
REMARK  6 active torsions:
REMARK  status: ('A' for Active; 'I' for Inactive)
REMARK    1  A    between atoms: C_2  and  O_8
REMARK    2  A    between atoms: C_4  and  O_20
REMARK    3  A    between atoms: O_8  and  C_9
REMARK    4  A    between atoms: C_9  and  C_13
REMARK    5  A    between atoms: O_20  and  C_22
REMARK    6  A    between atoms: C_25  and  C_29
REMARK                            x       y       z     vdW  Elec       q    Type
REMARK                         _______ _______ _______ _____ _____    ______ ____
ROOT
ATOM      1 CL   UNL     1      29.287 -22.457 -16.903  0.00  0.00    -0.079 Cl
ATOM      2  C   UNL     1      32.766 -23.755 -14.347  0.00  0.00    +0.142 C 
ATOM      3  C   UNL     1      32.953 -23.574 -15.714  0.00  0.00    +0.075 C 
ATOM      4  C   UNL     1      31.881 -23.172 -16.513  0.00  0.00    +0.159 C 
ATOM      5  C   UNL     1      31.517 -23.538 -13.771  0.00  0.00    +0.038 C 
ATOM      6  C   UNL     1      30.629 -22.953 -15.940  0.00  0.00    +0.092 C 
ATOM      7  C   UNL     1      30.447 -23.136 -14.569  0.00  0.00    +0.018 C 
ENDROOT
BRANCH   2   8
ATOM      8  O   UNL     1      33.816 -24.149 -13.565  0.00  0.00    -0.469 OA
BRANCH   8   9
ATOM      9  C   UNL     1      35.105 -23.652 -13.928  0.00  0.00    +0.248 C 
BRANCH   9  13
ATOM     10  N   UNL     1      35.516 -25.781 -15.141  0.00  0.00    -0.228 N 
ATOM     11  N   UNL     1      36.439 -26.721 -15.436  0.00  0.00    -0.128 NA
ATOM     12  N   UNL     1      38.770 -26.875 -14.782  0.00  0.00    -0.192 NA
ATOM     13  C   UNL     1      35.975 -24.763 -14.349  0.00  0.00    +0.093 C 
ATOM     14  C   UNL     1      37.289 -25.066 -14.116  0.00  0.00    +0.060 C 
ATOM     15  C   UNL     1      37.539 -26.290 -14.810  0.00  0.00    +0.050 C 
ATOM     16  C   UNL     1      38.175 -24.318 -13.357  0.00  0.00    +0.065 C 
ATOM     17  C   UNL     1      39.430 -24.935 -13.342  0.00  0.00    +0.001 C 
ATOM     18  C   UNL     1      39.661 -26.149 -14.035  0.00  0.00    +0.105 C 
ATOM     19  H   UNL     1      34.590 -25.824 -15.467  0.00  0.00    +0.175 HD
ENDBRANCH   9  13
ENDBRANCH   8   9
ENDBRANCH   2   8
BRANCH   4  20
ATOM     20  O   UNL     1      32.089 -22.999 -17.849  0.00  0.00    -0.452 OA
BRANCH  20  22
ATOM     21 CL   UNL     1      37.070 -22.425 -16.993  0.00  0.00    -0.082 Cl
ATOM     22  C   UNL     1      33.289 -22.437 -18.245  0.00  0.00    +0.147 C 
ATOM     23  C   UNL     1      33.320 -21.636 -19.372  0.00  0.00    +0.048 C 
ATOM     24  C   UNL     1      34.429 -22.690 -17.502  0.00  0.00    +0.049 C 
ATOM     25  C   UNL     1      34.531 -21.069 -19.771  0.00  0.00    +0.072 C 
ATOM     26  C   UNL     1      35.640 -22.124 -17.900  0.00  0.00    +0.061 C 
ATOM     27  C   UNL     1      35.691 -21.313 -19.035  0.00  0.00    +0.022 C 
BRANCH  25  29
ATOM     28  N   UNL     1      34.624 -19.564 -21.880  0.00  0.00    -0.191 NA
ATOM     29  C   UNL     1      34.582 -20.240 -20.933  0.00  0.00    +0.101 C 
ENDBRANCH  25  29
ENDBRANCH  20  22
ENDBRANCH   4  20
TORSDOF 6
ENDMDL
