MODEL 1
REMARK VINA RESULT:     -10.4      0.000      0.000
REMARK  Name = 56639723
REMARK  6 active torsions:
REMARK  status: ('A' for Active; 'I' for Inactive)
REMARK    1  A    between atoms: N_2  and  C_12
REMARK    2  A    between atoms: C_6  and  C_26
REMARK    3  A    between atoms: C_12  and  C_15
REMARK    4  A    between atoms: C_19  and  C_25
REMARK    5  A    between atoms: C_26  and  C_28
REMARK    6  A    between atoms: C_28  and  O_29
REMARK                            x       y       z     vdW  Elec       q    Type
REMARK                         _______ _______ _______ _____ _____    ______ ____
ROOT
ATOM      1  O   UNL     1      34.065 -16.002 -26.323  0.00  0.00    -0.264 OA
ATOM      2  N   UNL     1      33.785 -14.461 -24.596  0.00  0.00    -0.208 N 
ATOM      3  N   UNL     1      33.833 -14.169 -23.257  0.00  0.00    -0.169 NA
ATOM      4  N   UNL     1      34.890 -17.353 -21.906  0.00  0.00    -0.239 NA
ATOM      5  N   UNL     1      34.797 -17.964 -24.652  0.00  0.00    -0.236 NA
ATOM      6  C   UNL     1      34.186 -15.093 -22.421  0.00  0.00    +0.109 A 
ATOM      7  C   UNL     1      34.538 -16.448 -22.837  0.00  0.00    +0.119 A 
ATOM      8  C   UNL     1      34.096 -15.710 -25.131  0.00  0.00    +0.296 A 
ATOM      9  C   UNL     1      34.491 -16.743 -24.173  0.00  0.00    +0.157 A 
ATOM     10  C   UNL     1      35.198 -18.577 -22.378  0.00  0.00    +0.120 C 
ATOM     11  C   UNL     1      35.153 -18.878 -23.725  0.00  0.00    +0.120 C 
ENDROOT
BRANCH   2  12
ATOM     12  C   UNL     1      33.378 -13.354 -25.445  0.00  0.00    +0.196 C 
BRANCH  12  15
ATOM     13  S   UNL     1      34.594 -10.869 -25.271  0.00  0.00    -0.074 S 
ATOM     14  N   UNL     1      32.727 -11.702 -23.699  0.00  0.00    -0.401 NA
ATOM     15  C   UNL     1      33.466 -12.036 -24.730  0.00  0.00    +0.159 C 
ATOM     16  C   UNL     1      33.060 -10.421 -23.283  0.00  0.00    +0.123 C 
ATOM     17  C   UNL     1      34.068  -9.799 -24.025  0.00  0.00    +0.128 C 
ATOM     18  C   UNL     1      32.481  -9.719 -22.204  0.00  0.00    +0.033 C 
ATOM     19  C   UNL     1      32.921  -8.427 -21.902  0.00  0.00    +0.073 C 
ATOM     20  C   UNL     1      34.515  -8.502 -23.727  0.00  0.00    -0.008 C 
ATOM     21  C   UNL     1      33.925  -7.828 -22.655  0.00  0.00    +0.001 C 
BRANCH  19  25
ATOM     22  F   UNL     1      31.463  -6.697 -21.172  0.00  0.00    -0.166 F 
ATOM     23  F   UNL     1      31.569  -8.478 -19.929  0.00  0.00    -0.166 F 
ATOM     24  F   UNL     1      33.222  -7.075 -19.952  0.00  0.00    -0.166 F 
ATOM     25  C   UNL     1      32.307  -7.686 -20.761  0.00  0.00    +0.419 C 
ENDBRANCH  19  25
ENDBRANCH  12  15
ENDBRANCH   2  12
BRANCH   6  26
ATOM     26  C   UNL     1      34.237 -14.764 -20.952  0.00  0.00    +0.158 C 
BRANCH  26  28
ATOM     27  O   UNL     1      32.248 -15.176 -19.620  0.00  0.00    -0.250 OA
ATOM     28  C   UNL     1      32.891 -14.463 -20.375  0.00  0.00    +0.320 C 
BRANCH  28  29
ATOM     29  O   UNL     1      32.466 -13.252 -20.817  0.00  0.00    -0.480 OA
ATOM     30  H   UNL     1      33.090 -12.589 -21.040  0.00  0.00    +0.295 HD
ENDBRANCH  28  29
ENDBRANCH  26  28
ENDBRANCH   6  26
TORSDOF 6
ENDMDL
MODEL 2
REMARK VINA RESULT:     -10.0      2.571      4.185
REMARK  Name = 56639723
REMARK  6 active torsions:
REMARK  status: ('A' for Active; 'I' for Inactive)
REMARK    1  A    between atoms: N_2  and  C_12
REMARK    2  A    between atoms: C_6  and  C_26
REMARK    3  A    between atoms: C_12  and  C_15
REMARK    4  A    between atoms: C_19  and  C_25
REMARK    5  A    between atoms: C_26  and  C_28
REMARK    6  A    between atoms: C_28  and  O_29
REMARK                            x       y       z     vdW  Elec       q    Type
REMARK                         _______ _______ _______ _____ _____    ______ ____
ROOT
ATOM      1  O   UNL     1      32.613 -14.748 -19.890  0.00  0.00    -0.264 OA
ATOM      2  N   UNL     1      32.221 -13.132 -21.525  0.00  0.00    -0.208 N 
ATOM      3  N   UNL     1      32.429 -12.669 -22.798  0.00  0.00    -0.169 NA
ATOM      4  N   UNL     1      34.611 -15.239 -24.107  0.00  0.00    -0.239 NA
ATOM      5  N   UNL     1      34.191 -16.200 -21.495  0.00  0.00    -0.236 NA
ATOM      6  C   UNL     1      33.185 -13.348 -23.602  0.00  0.00    +0.109 A 
ATOM      7  C   UNL     1      33.837 -14.595 -23.214  0.00  0.00    +0.119 A 
ATOM      8  C   UNL     1      32.779 -14.306 -21.023  0.00  0.00    +0.296 A 
ATOM      9  C   UNL     1      33.632 -15.060 -21.943  0.00  0.00    +0.157 A 
ATOM     10  C   UNL     1      35.174 -16.382 -23.665  0.00  0.00    +0.120 C 
ATOM     11  C   UNL     1      34.968 -16.854 -22.383  0.00  0.00    +0.120 C 
ENDROOT
BRANCH   2  12
ATOM     12  C   UNL     1      31.358 -12.295 -20.708  0.00  0.00    +0.196 C 
BRANCH  12  15
ATOM     13  S   UNL     1      32.014  -9.798 -19.700  0.00  0.00    -0.074 S 
ATOM     14  N   UNL     1      31.429 -10.278 -22.165  0.00  0.00    -0.401 NA
ATOM     15  C   UNL     1      31.566 -10.834 -20.985  0.00  0.00    +0.159 C 
ATOM     16  C   UNL     1      31.695  -8.919 -22.073  0.00  0.00    +0.123 C 
ATOM     17  C   UNL     1      32.035  -8.467 -20.795  0.00  0.00    +0.128 C 
ATOM     18  C   UNL     1      31.650  -7.988 -23.132  0.00  0.00    +0.033 C 
ATOM     19  C   UNL     1      31.944  -6.644 -22.886  0.00  0.00    +0.073 C 
ATOM     20  C   UNL     1      32.331  -7.117 -20.540  0.00  0.00    -0.008 C 
ATOM     21  C   UNL     1      32.280  -6.216 -21.606  0.00  0.00    +0.001 C 
BRANCH  19  25
ATOM     22  F   UNL     1      31.891  -4.367 -23.572  0.00  0.00    -0.166 F 
ATOM     23  F   UNL     1      32.957  -5.756 -24.864  0.00  0.00    -0.166 F 
ATOM     24  F   UNL     1      30.789  -5.786 -24.798  0.00  0.00    -0.166 F 
ATOM     25  C   UNL     1      31.897  -5.660 -24.008  0.00  0.00    +0.419 C 
ENDBRANCH  19  25
ENDBRANCH  12  15
ENDBRANCH   2  12
BRANCH   6  26
ATOM     26  C   UNL     1      33.407 -12.833 -25.001  0.00  0.00    +0.158 C 
BRANCH  26  28
ATOM     27  O   UNL     1      34.760 -11.091 -26.016  0.00  0.00    -0.250 OA
ATOM     28  C   UNL     1      34.213 -11.574 -25.037  0.00  0.00    +0.320 C 
BRANCH  28  29
ATOM     29  O   UNL     1      34.256 -11.024 -23.797  0.00  0.00    -0.480 OA
ATOM     30  H   UNL     1      35.036 -10.598 -23.501  0.00  0.00    +0.295 HD
ENDBRANCH  28  29
ENDBRANCH  26  28
ENDBRANCH   6  26
TORSDOF 6
ENDMDL
MODEL 3
REMARK VINA RESULT:     -10.0     10.408     13.580
REMARK  Name = 56639723
REMARK  6 active torsions:
REMARK  status: ('A' for Active; 'I' for Inactive)
REMARK    1  A    between atoms: N_2  and  C_12
REMARK    2  A    between atoms: C_6  and  C_26
REMARK    3  A    between atoms: C_12  and  C_15
REMARK    4  A    between atoms: C_19  and  C_25
REMARK    5  A    between atoms: C_26  and  C_28
REMARK    6  A    between atoms: C_28  and  O_29
REMARK                            x       y       z     vdW  Elec       q    Type
REMARK                         _______ _______ _______ _____ _____    ______ ____
ROOT
ATOM      1  O   UNL     1      36.198 -26.510 -16.057  0.00  0.00    -0.264 OA
ATOM      2  N   UNL     1      35.535 -24.766 -14.657  0.00  0.00    -0.208 N 
ATOM      3  N   UNL     1      35.840 -23.868 -13.667  0.00  0.00    -0.169 NA
ATOM      4  N   UNL     1      39.300 -24.709 -13.031  0.00  0.00    -0.239 NA
ATOM      5  N   UNL     1      38.686 -26.558 -15.062  0.00  0.00    -0.236 NA
ATOM      6  C   UNL     1      37.035 -23.862 -13.166  0.00  0.00    +0.109 A 
ATOM      7  C   UNL     1      38.085 -24.776 -13.605  0.00  0.00    +0.119 A 
ATOM      8  C   UNL     1      36.440 -25.694 -15.171  0.00  0.00    +0.296 A 
ATOM      9  C   UNL     1      37.783 -25.675 -14.593  0.00  0.00    +0.157 A 
ATOM     10  C   UNL     1      40.208 -25.590 -13.497  0.00  0.00    +0.120 C 
ATOM     11  C   UNL     1      39.908 -26.497 -14.493  0.00  0.00    +0.120 C 
ENDROOT
BRANCH   2  12
ATOM     12  C   UNL     1      34.170 -24.688 -15.149  0.00  0.00    +0.196 C 
BRANCH  12  15
ATOM     13  S   UNL     1      32.490 -23.349 -16.900  0.00  0.00    -0.074 S 
ATOM     14  N   UNL     1      35.065 -23.208 -16.940  0.00  0.00    -0.401 NA
ATOM     15  C   UNL     1      34.047 -23.753 -16.317  0.00  0.00    +0.159 C 
ATOM     16  C   UNL     1      34.603 -22.399 -17.968  0.00  0.00    +0.123 C 
ATOM     17  C   UNL     1      33.212 -22.348 -18.104  0.00  0.00    +0.128 C 
ATOM     18  C   UNL     1      35.398 -21.647 -18.859  0.00  0.00    +0.033 C 
ATOM     19  C   UNL     1      34.788 -20.874 -19.850  0.00  0.00    +0.073 C 
ATOM     20  C   UNL     1      32.592 -21.573 -19.098  0.00  0.00    -0.008 C 
ATOM     21  C   UNL     1      33.403 -20.839 -19.967  0.00  0.00    +0.001 C 
BRANCH  19  25
ATOM     22  F   UNL     1      36.959 -20.382 -20.688  0.00  0.00    -0.166 F 
ATOM     23  F   UNL     1      35.312 -20.269 -22.104  0.00  0.00    -0.166 F 
ATOM     24  F   UNL     1      35.547 -18.730 -20.594  0.00  0.00    -0.166 F 
ATOM     25  C   UNL     1      35.632 -20.080 -20.790  0.00  0.00    +0.419 C 
ENDBRANCH  19  25
ENDBRANCH  12  15
ENDBRANCH   2  12
BRANCH   6  26
ATOM     26  C   UNL     1      37.363 -22.870 -12.080  0.00  0.00    +0.158 C 
BRANCH  26  28
ATOM     27  O   UNL     1      36.736 -22.531  -9.758  0.00  0.00    -0.250 OA
ATOM     28  C   UNL     1      36.748 -23.224 -10.763  0.00  0.00    +0.320 C 
BRANCH  28  29
ATOM     29  O   UNL     1      36.189 -24.458 -10.838  0.00  0.00    -0.480 OA
ATOM     30  H   UNL     1      35.383 -24.580 -11.299  0.00  0.00    +0.295 HD
ENDBRANCH  28  29
ENDBRANCH  26  28
ENDBRANCH   6  26
TORSDOF 6
ENDMDL
MODEL 4
REMARK VINA RESULT:     -10.0      2.248      3.954
REMARK  Name = 56639723
REMARK  6 active torsions:
REMARK  status: ('A' for Active; 'I' for Inactive)
REMARK    1  A    between atoms: N_2  and  C_12
REMARK    2  A    between atoms: C_6  and  C_26
REMARK    3  A    between atoms: C_12  and  C_15
REMARK    4  A    between atoms: C_19  and  C_25
REMARK    5  A    between atoms: C_26  and  C_28
REMARK    6  A    between atoms: C_28  and  O_29
REMARK                            x       y       z     vdW  Elec       q    Type
REMARK                         _______ _______ _______ _____ _____    ______ ____
ROOT
ATOM      1  O   UNL     1      33.441 -14.185 -20.790  0.00  0.00    -0.264 OA
ATOM      2  N   UNL     1      32.472 -13.334 -22.733  0.00  0.00    -0.208 N 
ATOM      3  N   UNL     1      32.294 -13.405 -24.090  0.00  0.00    -0.169 NA
ATOM      4  N   UNL     1      34.326 -16.288 -24.891  0.00  0.00    -0.239 NA
ATOM      5  N   UNL     1      34.698 -16.153 -22.104  0.00  0.00    -0.236 NA
ATOM      6  C   UNL     1      32.885 -14.345 -24.757  0.00  0.00    +0.109 A 
ATOM      7  C   UNL     1      33.744 -15.345 -24.128  0.00  0.00    +0.119 A 
ATOM      8  C   UNL     1      33.262 -14.221 -22.004  0.00  0.00    +0.296 A 
ATOM      9  C   UNL     1      33.925 -15.276 -22.772  0.00  0.00    +0.157 A 
ATOM     10  C   UNL     1      35.102 -17.169 -24.228  0.00  0.00    +0.120 C 
ATOM     11  C   UNL     1      35.285 -17.103 -22.861  0.00  0.00    +0.120 C 
ENDROOT
BRANCH   2  12
ATOM     12  C   UNL     1      31.765 -12.243 -22.084  0.00  0.00    +0.196 C 
BRANCH  12  15
ATOM     13  S   UNL     1      33.769 -10.701 -23.218  0.00  0.00    -0.074 S 
ATOM     14  N   UNL     1      31.393  -9.855 -22.684  0.00  0.00    -0.401 NA
ATOM     15  C   UNL     1      32.177 -10.905 -22.626  0.00  0.00    +0.159 C 
ATOM     16  C   UNL     1      32.083  -8.787 -23.238  0.00  0.00    +0.123 C 
ATOM     17  C   UNL     1      33.407  -9.059 -23.596  0.00  0.00    +0.128 C 
ATOM     18  C   UNL     1      31.574  -7.491 -23.462  0.00  0.00    +0.033 C 
ATOM     19  C   UNL     1      32.392  -6.512 -24.032  0.00  0.00    +0.073 C 
ATOM     20  C   UNL     1      34.236  -8.080 -24.170  0.00  0.00    -0.008 C 
ATOM     21  C   UNL     1      33.706  -6.805 -24.381  0.00  0.00    +0.001 C 
BRANCH  19  25
ATOM     22  F   UNL     1      31.763  -4.408 -23.121  0.00  0.00    -0.166 F 
ATOM     23  F   UNL     1      32.606  -4.395 -25.125  0.00  0.00    -0.166 F 
ATOM     24  F   UNL     1      30.593  -5.136 -24.804  0.00  0.00    -0.166 F 
ATOM     25  C   UNL     1      31.850  -5.142 -24.268  0.00  0.00    +0.419 C 
ENDBRANCH  19  25
ENDBRANCH  12  15
ENDBRANCH   2  12
BRANCH   6  26
ATOM     26  C   UNL     1      32.684 -14.418 -26.248  0.00  0.00    +0.158 C 
BRANCH  26  28
ATOM     27  O   UNL     1      34.137 -13.626 -28.026  0.00  0.00    -0.250 OA
ATOM     28  C   UNL     1      33.512 -13.423 -26.997  0.00  0.00    +0.320 C 
BRANCH  28  29
ATOM     29  O   UNL     1      33.473 -12.225 -26.359  0.00  0.00    -0.480 OA
ATOM     30  H   UNL     1      33.359 -12.193 -25.430  0.00  0.00    +0.295 HD
ENDBRANCH  28  29
ENDBRANCH  26  28
ENDBRANCH   6  26
TORSDOF 6
ENDMDL
MODEL 5
REMARK VINA RESULT:      -9.9      5.788      9.358
REMARK  Name = 56639723
REMARK  6 active torsions:
REMARK  status: ('A' for Active; 'I' for Inactive)
REMARK    1  A    between atoms: N_2  and  C_12
REMARK    2  A    between atoms: C_6  and  C_26
REMARK    3  A    between atoms: C_12  and  C_15
REMARK    4  A    between atoms: C_19  and  C_25
REMARK    5  A    between atoms: C_26  and  C_28
REMARK    6  A    between atoms: C_28  and  O_29
REMARK                            x       y       z     vdW  Elec       q    Type
REMARK                         _______ _______ _______ _____ _____    ______ ____
ROOT
ATOM      1  O   UNL     1      34.957 -16.586 -20.820  0.00  0.00    -0.264 OA
ATOM      2  N   UNL     1      34.663 -16.524 -23.132  0.00  0.00    -0.208 N 
ATOM      3  N   UNL     1      34.093 -15.938 -24.233  0.00  0.00    -0.169 NA
ATOM      4  N   UNL     1      32.197 -13.278 -22.680  0.00  0.00    -0.239 NA
ATOM      5  N   UNL     1      33.361 -14.472 -20.413  0.00  0.00    -0.236 NA
ATOM      6  C   UNL     1      33.318 -14.912 -24.073  0.00  0.00    +0.109 A 
ATOM      7  C   UNL     1      33.015 -14.343 -22.763  0.00  0.00    +0.119 A 
ATOM      8  C   UNL     1      34.461 -16.084 -21.825  0.00  0.00    +0.296 A 
ATOM      9  C   UNL     1      33.582 -14.926 -21.661  0.00  0.00    +0.157 A 
ATOM     10  C   UNL     1      31.972 -12.818 -21.433  0.00  0.00    +0.120 C 
ATOM     11  C   UNL     1      32.543 -13.404 -20.320  0.00  0.00    +0.120 C 
ENDROOT
BRANCH   2  12
ATOM     12  C   UNL     1      35.513 -17.665 -23.424  0.00  0.00    +0.196 C 
BRANCH  12  15
ATOM     13  S   UNL     1      37.021 -18.989 -21.512  0.00  0.00    -0.074 S 
ATOM     14  N   UNL     1      34.481 -19.290 -21.844  0.00  0.00    -0.401 NA
ATOM     15  C   UNL     1      35.536 -18.652 -22.293  0.00  0.00    +0.159 C 
ATOM     16  C   UNL     1      34.849 -20.121 -20.796  0.00  0.00    +0.123 C 
ATOM     17  C   UNL     1      36.208 -20.093 -20.467  0.00  0.00    +0.128 C 
ATOM     18  C   UNL     1      33.991 -20.965 -20.061  0.00  0.00    +0.033 C 
ATOM     19  C   UNL     1      34.508 -21.749 -19.026  0.00  0.00    +0.073 C 
ATOM     20  C   UNL     1      36.734 -20.879 -19.428  0.00  0.00    -0.008 C 
ATOM     21  C   UNL     1      35.863 -21.706 -18.715  0.00  0.00    +0.001 C 
BRANCH  19  25
ATOM     22  F   UNL     1      32.318 -22.169 -18.199  0.00  0.00    -0.166 F 
ATOM     23  F   UNL     1      33.503 -23.904 -18.760  0.00  0.00    -0.166 F 
ATOM     24  F   UNL     1      33.978 -22.810 -16.948  0.00  0.00    -0.166 F 
ATOM     25  C   UNL     1      33.598 -22.641 -18.250  0.00  0.00    +0.419 C 
ENDBRANCH  19  25
ENDBRANCH  12  15
ENDBRANCH   2  12
BRANCH   6  26
ATOM     26  C   UNL     1      32.697 -14.273 -25.288  0.00  0.00    +0.158 C 
BRANCH  26  28
ATOM     27  O   UNL     1      33.801 -14.405 -27.446  0.00  0.00    -0.250 OA
ATOM     28  C   UNL     1      33.125 -14.916 -26.568  0.00  0.00    +0.320 C 
BRANCH  28  29
ATOM     29  O   UNL     1      32.645 -16.185 -26.623  0.00  0.00    -0.480 OA
ATOM     30  H   UNL     1      31.828 -16.359 -27.048  0.00  0.00    +0.295 HD
ENDBRANCH  28  29
ENDBRANCH  26  28
ENDBRANCH   6  26
TORSDOF 6
ENDMDL
MODEL 6
REMARK VINA RESULT:      -9.8      6.249      9.360
REMARK  Name = 56639723
REMARK  6 active torsions:
REMARK  status: ('A' for Active; 'I' for Inactive)
REMARK    1  A    between atoms: N_2  and  C_12
REMARK    2  A    between atoms: C_6  and  C_26
REMARK    3  A    between atoms: C_12  and  C_15
REMARK    4  A    between atoms: C_19  and  C_25
REMARK    5  A    between atoms: C_26  and  C_28
REMARK    6  A    between atoms: C_28  and  O_29
REMARK                            x       y       z     vdW  Elec       q    Type
REMARK                         _______ _______ _______ _____ _____    ______ ____
ROOT
ATOM      1  O   UNL     1      35.152 -18.357 -25.118  0.00  0.00    -0.264 OA
ATOM      2  N   UNL     1      35.482 -17.411 -23.012  0.00  0.00    -0.208 N 
ATOM      3  N   UNL     1      35.262 -16.380 -22.135  0.00  0.00    -0.169 NA
ATOM      4  N   UNL     1      33.214 -14.192 -24.161  0.00  0.00    -0.239 NA
ATOM      5  N   UNL     1      33.658 -16.303 -25.969  0.00  0.00    -0.236 NA
ATOM      6  C   UNL     1      34.541 -15.372 -22.513  0.00  0.00    +0.109 A 
ATOM      7  C   UNL     1      33.946 -15.275 -23.843  0.00  0.00    +0.119 A 
ATOM      8  C   UNL     1      34.975 -17.450 -24.310  0.00  0.00    +0.296 A 
ATOM      9  C   UNL     1      34.165 -16.303 -24.721  0.00  0.00    +0.157 A 
ATOM     10  C   UNL     1      32.703 -14.186 -25.408  0.00  0.00    +0.120 C 
ATOM     11  C   UNL     1      32.921 -15.221 -26.296  0.00  0.00    +0.120 C 
ENDROOT
BRANCH   2  12
ATOM     12  C   UNL     1      36.301 -18.490 -22.487  0.00  0.00    +0.196 C 
BRANCH  12  15
ATOM     13  S   UNL     1      33.839 -19.436 -21.636  0.00  0.00    -0.074 S 
ATOM     14  N   UNL     1      36.101 -20.060 -20.564  0.00  0.00    -0.401 NA
ATOM     15  C   UNL     1      35.544 -19.350 -21.517  0.00  0.00    +0.159 C 
ATOM     16  C   UNL     1      35.120 -20.736 -19.854  0.00  0.00    +0.123 C 
ATOM     17  C   UNL     1      33.811 -20.519 -20.295  0.00  0.00    +0.128 C 
ATOM     18  C   UNL     1      35.331 -21.598 -18.757  0.00  0.00    +0.033 C 
ATOM     19  C   UNL     1      34.239 -22.213 -18.138  0.00  0.00    +0.073 C 
ATOM     20  C   UNL     1      32.709 -21.134 -19.678  0.00  0.00    -0.008 C 
ATOM     21  C   UNL     1      32.945 -21.983 -18.594  0.00  0.00    +0.001 C 
BRANCH  19  25
ATOM     22  F   UNL     1      35.769 -23.152 -16.578  0.00  0.00    -0.166 F 
ATOM     23  F   UNL     1      33.747 -22.784 -15.867  0.00  0.00    -0.166 F 
ATOM     24  F   UNL     1      34.132 -24.425 -17.232  0.00  0.00    -0.166 F 
ATOM     25  C   UNL     1      34.465 -23.125 -16.978  0.00  0.00    +0.419 C 
ENDBRANCH  19  25
ENDBRANCH  12  15
ENDBRANCH   2  12
BRANCH   6  26
ATOM     26  C   UNL     1      34.303 -14.244 -21.543  0.00  0.00    +0.158 C 
BRANCH  26  28
ATOM     27  O   UNL     1      32.292 -13.434 -20.448  0.00  0.00    -0.250 OA
ATOM     28  C   UNL     1      32.995 -14.358 -20.827  0.00  0.00    +0.320 C 
BRANCH  28  29
ATOM     29  O   UNL     1      32.684 -15.667 -20.651  0.00  0.00    -0.480 OA
ATOM     30  H   UNL     1      31.817 -15.972 -20.835  0.00  0.00    +0.295 HD
ENDBRANCH  28  29
ENDBRANCH  26  28
ENDBRANCH   6  26
TORSDOF 6
ENDMDL
MODEL 7
REMARK VINA RESULT:      -9.8      9.589     12.900
REMARK  Name = 56639723
REMARK  6 active torsions:
REMARK  status: ('A' for Active; 'I' for Inactive)
REMARK    1  A    between atoms: N_2  and  C_12
REMARK    2  A    between atoms: C_6  and  C_26
REMARK    3  A    between atoms: C_12  and  C_15
REMARK    4  A    between atoms: C_19  and  C_25
REMARK    5  A    between atoms: C_26  and  C_28
REMARK    6  A    between atoms: C_28  and  O_29
REMARK                            x       y       z     vdW  Elec       q    Type
REMARK                         _______ _______ _______ _____ _____    ______ ____
ROOT
ATOM      1  O   UNL     1      33.395 -24.123 -13.727  0.00  0.00    -0.264 OA
ATOM      2  N   UNL     1      34.950 -24.119 -15.465  0.00  0.00    -0.208 N 
ATOM      3  N   UNL     1      36.251 -24.011 -15.883  0.00  0.00    -0.169 NA
ATOM      4  N   UNL     1      37.936 -23.486 -12.726  0.00  0.00    -0.239 NA
ATOM      5  N   UNL     1      35.268 -23.709 -11.856  0.00  0.00    -0.236 NA
ATOM      6  C   UNL     1      37.182 -23.813 -15.005  0.00  0.00    +0.109 A 
ATOM      7  C   UNL     1      36.913 -23.696 -13.574  0.00  0.00    +0.119 A 
ATOM      8  C   UNL     1      34.550 -24.029 -14.133  0.00  0.00    +0.296 A 
ATOM      9  C   UNL     1      35.614 -23.803 -13.154  0.00  0.00    +0.157 A 
ATOM     10  C   UNL     1      37.596 -23.391 -11.425  0.00  0.00    +0.120 C 
ATOM     11  C   UNL     1      36.287 -23.500 -10.997  0.00  0.00    +0.120 C 
ENDROOT
BRANCH   2  12
ATOM     12  C   UNL     1      33.986 -24.340 -16.531  0.00  0.00    +0.196 C 
BRANCH  12  15
ATOM     13  S   UNL     1      32.515 -22.590 -18.096  0.00  0.00    -0.074 S 
ATOM     14  N   UNL     1      35.091 -22.696 -18.040  0.00  0.00    -0.401 NA
ATOM     15  C   UNL     1      34.001 -23.229 -17.540  0.00  0.00    +0.159 C 
ATOM     16  C   UNL     1      34.750 -21.696 -18.940  0.00  0.00    +0.123 C 
ATOM     17  C   UNL     1      33.377 -21.490 -19.106  0.00  0.00    +0.128 C 
ATOM     18  C   UNL     1      35.649 -20.898 -19.677  0.00  0.00    +0.033 C 
ATOM     19  C   UNL     1      35.157 -19.924 -20.551  0.00  0.00    +0.073 C 
ATOM     20  C   UNL     1      32.875 -20.514 -19.982  0.00  0.00    -0.008 C 
ATOM     21  C   UNL     1      33.787 -19.737 -20.700  0.00  0.00    +0.001 C 
BRANCH  19  25
ATOM     22  F   UNL     1      35.936 -17.747 -21.102  0.00  0.00    -0.166 F 
ATOM     23  F   UNL     1      37.421 -19.334 -21.047  0.00  0.00    -0.166 F 
ATOM     24  F   UNL     1      36.000 -19.240 -22.682  0.00  0.00    -0.166 F 
ATOM     25  C   UNL     1      36.110 -19.081 -21.330  0.00  0.00    +0.419 C 
ENDBRANCH  19  25
ENDBRANCH  12  15
ENDBRANCH   2  12
BRANCH   6  26
ATOM     26  C   UNL     1      38.610 -23.696 -15.472  0.00  0.00    +0.158 C 
BRANCH  26  28
ATOM     27  O   UNL     1      40.554 -24.921 -14.683  0.00  0.00    -0.250 OA
ATOM     28  C   UNL     1      39.427 -24.908 -15.156  0.00  0.00    +0.320 C 
BRANCH  28  29
ATOM     29  O   UNL     1      38.727 -26.026 -15.475  0.00  0.00    -0.480 OA
ATOM     30  H   UNL     1      39.086 -26.872 -15.291  0.00  0.00    +0.295 HD
ENDBRANCH  28  29
ENDBRANCH  26  28
ENDBRANCH   6  26
TORSDOF 6
ENDMDL
MODEL 8
REMARK VINA RESULT:      -9.7      7.914     10.812
REMARK  Name = 56639723
REMARK  6 active torsions:
REMARK  status: ('A' for Active; 'I' for Inactive)
REMARK    1  A    between atoms: N_2  and  C_12
REMARK    2  A    between atoms: C_6  and  C_26
REMARK    3  A    between atoms: C_12  and  C_15
REMARK    4  A    between atoms: C_19  and  C_25
REMARK    5  A    between atoms: C_26  and  C_28
REMARK    6  A    between atoms: C_28  and  O_29
REMARK                            x       y       z     vdW  Elec       q    Type
REMARK                         _______ _______ _______ _____ _____    ______ ____
ROOT
ATOM      1  O   UNL     1      34.927 -23.925 -16.594  0.00  0.00    -0.264 OA
ATOM      2  N   UNL     1      32.963 -23.364 -17.719  0.00  0.00    -0.208 N 
ATOM      3  N   UNL     1      31.640 -23.007 -17.674  0.00  0.00    -0.169 NA
ATOM      4  N   UNL     1      31.070 -22.956 -14.103  0.00  0.00    -0.239 NA
ATOM      5  N   UNL     1      33.787 -23.688 -14.181  0.00  0.00    -0.236 NA
ATOM      6  C   UNL     1      31.058 -22.880 -16.524  0.00  0.00    +0.109 A 
ATOM      7  C   UNL     1      31.747 -23.104 -15.256  0.00  0.00    +0.119 A 
ATOM      8  C   UNL     1      33.742 -23.606 -16.588  0.00  0.00    +0.296 A 
ATOM      9  C   UNL     1      33.068 -23.461 -15.297  0.00  0.00    +0.157 A 
ATOM     10  C   UNL     1      31.784 -23.181 -12.982  0.00  0.00    +0.120 C 
ATOM     11  C   UNL     1      33.117 -23.541 -13.019  0.00  0.00    +0.120 C 
ENDROOT
BRANCH   2  12
ATOM     12  C   UNL     1      33.517 -23.477 -19.057  0.00  0.00    +0.196 C 
BRANCH  12  15
ATOM     13  S   UNL     1      35.721 -21.906 -19.651  0.00  0.00    -0.074 S 
ATOM     14  N   UNL     1      33.269 -21.169 -19.959  0.00  0.00    -0.401 NA
ATOM     15  C   UNL     1      34.032 -22.162 -19.565  0.00  0.00    +0.159 C 
ATOM     16  C   UNL     1      34.062 -20.106 -20.367  0.00  0.00    +0.123 C 
ATOM     17  C   UNL     1      35.440 -20.323 -20.271  0.00  0.00    +0.128 C 
ATOM     18  C   UNL     1      33.603 -18.865 -20.856  0.00  0.00    +0.033 C 
ATOM     19  C   UNL     1      34.525 -17.884 -21.232  0.00  0.00    +0.073 C 
ATOM     20  C   UNL     1      36.372 -19.341 -20.647  0.00  0.00    -0.008 C 
ATOM     21  C   UNL     1      35.891 -18.121 -21.128  0.00  0.00    +0.001 C 
BRANCH  19  25
ATOM     22  F   UNL     1      34.887 -15.545 -21.457  0.00  0.00    -0.166 F 
ATOM     23  F   UNL     1      33.877 -16.543 -23.104  0.00  0.00    -0.166 F 
ATOM     24  F   UNL     1      32.825 -16.201 -21.239  0.00  0.00    -0.166 F 
ATOM     25  C   UNL     1      34.037 -16.572 -21.748  0.00  0.00    +0.419 C 
ENDBRANCH  19  25
ENDBRANCH  12  15
ENDBRANCH   2  12
BRANCH   6  26
ATOM     26  C   UNL     1      29.604 -22.487 -16.484  0.00  0.00    +0.158 C 
BRANCH  26  28
ATOM     27  O   UNL     1      27.917 -23.814 -17.620  0.00  0.00    -0.250 OA
ATOM     28  C   UNL     1      28.681 -23.646 -16.682  0.00  0.00    +0.320 C 
BRANCH  28  29
ATOM     29  O   UNL     1      28.809 -24.514 -15.646  0.00  0.00    -0.480 OA
ATOM     30  H   UNL     1      28.054 -24.950 -15.304  0.00  0.00    +0.295 HD
ENDBRANCH  28  29
ENDBRANCH  26  28
ENDBRANCH   6  26
TORSDOF 6
ENDMDL
MODEL 9
REMARK VINA RESULT:      -9.7      8.011     10.966
REMARK  Name = 56639723
REMARK  6 active torsions:
REMARK  status: ('A' for Active; 'I' for Inactive)
REMARK    1  A    between atoms: N_2  and  C_12
REMARK    2  A    between atoms: C_6  and  C_26
REMARK    3  A    between atoms: C_12  and  C_15
REMARK    4  A    between atoms: C_19  and  C_25
REMARK    5  A    between atoms: C_26  and  C_28
REMARK    6  A    between atoms: C_28  and  O_29
REMARK                            x       y       z     vdW  Elec       q    Type
REMARK                         _______ _______ _______ _____ _____    ______ ____
ROOT
ATOM      1  O   UNL     1      31.195 -22.795 -17.550  0.00  0.00    -0.264 OA
ATOM      2  N   UNL     1      33.446 -23.372 -17.743  0.00  0.00    -0.208 N 
ATOM      3  N   UNL     1      34.633 -23.709 -17.144  0.00  0.00    -0.169 NA
ATOM      4  N   UNL     1      33.682 -23.613 -13.656  0.00  0.00    -0.239 NA
ATOM      5  N   UNL     1      31.240 -22.922 -14.875  0.00  0.00    -0.236 NA
ATOM      6  C   UNL     1      34.689 -23.782 -15.852  0.00  0.00    +0.109 A 
ATOM      7  C   UNL     1      33.540 -23.519 -14.990  0.00  0.00    +0.119 A 
ATOM      8  C   UNL     1      32.272 -23.097 -17.044  0.00  0.00    +0.296 A 
ATOM      9  C   UNL     1      32.354 -23.183 -15.586  0.00  0.00    +0.157 A 
ATOM     10  C   UNL     1      32.571 -23.354 -12.938  0.00  0.00    +0.120 C 
ATOM     11  C   UNL     1      31.372 -23.015 -13.535  0.00  0.00    +0.120 C 
ENDROOT
BRANCH   2  12
ATOM     12  C   UNL     1      33.493 -23.319 -19.195  0.00  0.00    +0.196 C 
BRANCH  12  15
ATOM     13  S   UNL     1      35.684 -21.764 -19.875  0.00  0.00    -0.074 S 
ATOM     14  N   UNL     1      33.230 -20.979 -20.006  0.00  0.00    -0.401 NA
ATOM     15  C   UNL     1      33.999 -21.995 -19.692  0.00  0.00    +0.159 C 
ATOM     16  C   UNL     1      34.014 -19.916 -20.429  0.00  0.00    +0.123 C 
ATOM     17  C   UNL     1      35.392 -20.156 -20.427  0.00  0.00    +0.128 C 
ATOM     18  C   UNL     1      33.548 -18.652 -20.848  0.00  0.00    +0.033 C 
ATOM     19  C   UNL     1      34.462 -17.673 -21.250  0.00  0.00    +0.073 C 
ATOM     20  C   UNL     1      36.316 -19.178 -20.829  0.00  0.00    -0.008 C 
ATOM     21  C   UNL     1      35.828 -17.935 -21.240  0.00  0.00    +0.001 C 
BRANCH  19  25
ATOM     22  F   UNL     1      34.801 -15.321 -21.328  0.00  0.00    -0.166 F 
ATOM     23  F   UNL     1      33.824 -16.228 -23.047  0.00  0.00    -0.166 F 
ATOM     24  F   UNL     1      32.744 -16.011 -21.179  0.00  0.00    -0.166 F 
ATOM     25  C   UNL     1      33.966 -16.337 -21.693  0.00  0.00    +0.419 C 
ENDBRANCH  19  25
ENDBRANCH  12  15
ENDBRANCH   2  12
BRANCH   6  26
ATOM     26  C   UNL     1      35.997 -24.154 -15.201  0.00  0.00    +0.158 C 
BRANCH  26  28
ATOM     27  O   UNL     1      36.227 -26.519 -15.705  0.00  0.00    -0.250 OA
ATOM     28  C   UNL     1      36.100 -25.614 -14.894  0.00  0.00    +0.320 C 
BRANCH  28  29
ATOM     29  O   UNL     1      36.033 -25.804 -13.552  0.00  0.00    -0.480 OA
ATOM     30  H   UNL     1      35.336 -26.311 -13.185  0.00  0.00    +0.295 HD
ENDBRANCH  28  29
ENDBRANCH  26  28
ENDBRANCH   6  26
TORSDOF 6
ENDMDL
