MODEL 1
REMARK VINA RESULT:      -7.3      0.000      0.000
REMARK  Name = 4195
REMARK  8 active torsions:
REMARK  status: ('A' for Active; 'I' for Inactive)
REMARK    1  A    between atoms: C_1  and  C_2
REMARK    2  A    between atoms: C_1  and  O_12
REMARK    3  A    between atoms: C_1  and  C_14
REMARK    4  A    between atoms: C_3  and  O_8
REMARK    5  A    between atoms: C_5  and  O_10
REMARK    6  A    between atoms: C_14  and  N_16
REMARK    7  A    between atoms: C_17  and  C_19
REMARK    8  A    between atoms: C_19  and  N_20
REMARK                            x       y       z     vdW  Elec       q    Type
REMARK                         _______ _______ _______ _____ _____    ______ ____
ROOT
ATOM      1  C   UNL     1      34.195 -15.451 -21.440  0.00  0.00    +0.155 C 
ENDROOT
BRANCH   1   2
ATOM      2  C   UNL     1      34.460 -16.841 -21.969  0.00  0.00    +0.043 C 
ATOM      3  C   UNL     1      34.743 -17.031 -23.313  0.00  0.00    +0.137 C 
ATOM      4  C   UNL     1      34.413 -17.908 -21.086  0.00  0.00    +0.038 C 
ATOM      5  C   UNL     1      34.655 -19.198 -21.557  0.00  0.00    +0.139 C 
ATOM      6  C   UNL     1      34.985 -18.321 -23.784  0.00  0.00    +0.040 C 
ATOM      7  C   UNL     1      34.941 -19.405 -22.907  0.00  0.00    +0.040 C 
BRANCH   3   8
ATOM      8  O   UNL     1      34.789 -15.984 -24.183  0.00  0.00    -0.472 OA
ATOM      9  C   UNL     1      33.965 -16.041 -25.330  0.00  0.00    +0.252 C 
ENDBRANCH   3   8
BRANCH   5  10
ATOM     10  O   UNL     1      34.613 -20.256 -20.702  0.00  0.00    -0.471 OA
ATOM     11  C   UNL     1      33.361 -20.616 -20.154  0.00  0.00    +0.252 C 
ENDBRANCH   5  10
ENDBRANCH   1   2
BRANCH   1  12
ATOM     12  O   UNL     1      34.891 -15.297 -20.203  0.00  0.00    -0.378 OA
ATOM     13  H   UNL     1      35.391 -14.466 -20.215  0.00  0.00    +0.211 HD
ENDBRANCH   1  12
BRANCH   1  14
ATOM     14  C   UNL     1      32.702 -15.201 -21.227  0.00  0.00    +0.123 C 
BRANCH  14  16
ATOM     15  O   UNL     1      32.276 -13.529 -23.550  0.00  0.00    -0.277 OA
ATOM     16  N   UNL     1      32.397 -13.789 -21.246  0.00  0.00    -0.304 N 
ATOM     17  C   UNL     1      32.208 -13.065 -22.414  0.00  0.00    +0.200 C 
ATOM     18  H   UNL     1      32.319 -13.315 -20.385  0.00  0.00    +0.149 HD
BRANCH  17  19
ATOM     19  C   UNL     1      31.933 -11.602 -22.135  0.00  0.00    +0.001 C 
BRANCH  19  20
ATOM     20  N   UNL     1      30.570 -11.467 -21.641  0.00  0.00    +0.386 N 
ATOM     21  H   UNL     1      29.952 -12.079 -22.175  0.00  0.00    -0.089 HD
ATOM     22  H   UNL     1      30.265 -10.500 -21.745  0.00  0.00    -0.089 HD
ATOM     23  H   UNL     1      30.539 -11.729 -20.655  0.00  0.00    -0.089 HD
ENDBRANCH  19  20
ENDBRANCH  17  19
ENDBRANCH  14  16
ENDBRANCH   1  14
TORSDOF 8
ENDMDL
MODEL 2
REMARK VINA RESULT:      -7.3      1.093      3.353
REMARK  Name = 4195
REMARK  8 active torsions:
REMARK  status: ('A' for Active; 'I' for Inactive)
REMARK    1  A    between atoms: C_1  and  C_2
REMARK    2  A    between atoms: C_1  and  O_12
REMARK    3  A    between atoms: C_1  and  C_14
REMARK    4  A    between atoms: C_3  and  O_8
REMARK    5  A    between atoms: C_5  and  O_10
REMARK    6  A    between atoms: C_14  and  N_16
REMARK    7  A    between atoms: C_17  and  C_19
REMARK    8  A    between atoms: C_19  and  N_20
REMARK                            x       y       z     vdW  Elec       q    Type
REMARK                         _______ _______ _______ _____ _____    ______ ____
ROOT
ATOM      1  C   UNL     1      34.411 -15.768 -21.233  0.00  0.00    +0.155 C 
ENDROOT
BRANCH   1   2
ATOM      2  C   UNL     1      34.488 -16.604 -22.490  0.00  0.00    +0.043 C 
ATOM      3  C   UNL     1      34.712 -17.969 -22.403  0.00  0.00    +0.137 C 
ATOM      4  C   UNL     1      34.332 -15.977 -23.715  0.00  0.00    +0.038 C 
ATOM      5  C   UNL     1      34.400 -16.733 -24.885  0.00  0.00    +0.139 C 
ATOM      6  C   UNL     1      34.781 -18.726 -23.572  0.00  0.00    +0.040 C 
ATOM      7  C   UNL     1      34.625 -18.109 -24.814  0.00  0.00    +0.040 C 
BRANCH   3   8
ATOM      8  O   UNL     1      34.868 -18.588 -21.199  0.00  0.00    -0.472 OA
ATOM      9  C   UNL     1      34.031 -19.690 -20.909  0.00  0.00    +0.252 C 
ENDBRANCH   3   8
BRANCH   5  10
ATOM     10  O   UNL     1      34.247 -16.132 -26.096  0.00  0.00    -0.471 OA
ATOM     11  C   UNL     1      33.197 -15.197 -26.243  0.00  0.00    +0.252 C 
ENDBRANCH   5  10
ENDBRANCH   1   2
BRANCH   1  12
ATOM     12  O   UNL     1      35.218 -16.383 -20.230  0.00  0.00    -0.378 OA
ATOM     13  H   UNL     1      35.488 -15.716 -19.579  0.00  0.00    +0.211 HD
ENDBRANCH   1  12
BRANCH   1  14
ATOM     14  C   UNL     1      32.974 -15.635 -20.730  0.00  0.00    +0.123 C 
BRANCH  14  16
ATOM     15  O   UNL     1      32.021 -13.797 -22.751  0.00  0.00    -0.277 OA
ATOM     16  N   UNL     1      32.605 -14.249 -20.549  0.00  0.00    -0.304 N 
ATOM     17  C   UNL     1      32.156 -13.440 -21.583  0.00  0.00    +0.200 C 
ATOM     18  H   UNL     1      32.675 -13.860 -19.647  0.00  0.00    +0.149 HD
BRANCH  17  19
ATOM     19  C   UNL     1      31.873 -12.028 -21.113  0.00  0.00    +0.001 C 
BRANCH  19  20
ATOM     20  N   UNL     1      30.685 -11.536 -21.795  0.00  0.00    +0.386 N 
ATOM     21  H   UNL     1      29.972 -11.295 -21.107  0.00  0.00    -0.089 HD
ATOM     22  H   UNL     1      30.326 -12.261 -22.417  0.00  0.00    -0.089 HD
ATOM     23  H   UNL     1      30.924 -10.708 -22.341  0.00  0.00    -0.089 HD
ENDBRANCH  19  20
ENDBRANCH  17  19
ENDBRANCH  14  16
ENDBRANCH   1  14
TORSDOF 8
ENDMDL
MODEL 3
REMARK VINA RESULT:      -7.2      1.775      1.789
REMARK  Name = 4195
REMARK  8 active torsions:
REMARK  status: ('A' for Active; 'I' for Inactive)
REMARK    1  A    between atoms: C_1  and  C_2
REMARK    2  A    between atoms: C_1  and  O_12
REMARK    3  A    between atoms: C_1  and  C_14
REMARK    4  A    between atoms: C_3  and  O_8
REMARK    5  A    between atoms: C_5  and  O_10
REMARK    6  A    between atoms: C_14  and  N_16
REMARK    7  A    between atoms: C_17  and  C_19
REMARK    8  A    between atoms: C_19  and  N_20
REMARK                            x       y       z     vdW  Elec       q    Type
REMARK                         _______ _______ _______ _____ _____    ______ ____
ROOT
ATOM      1  C   UNL     1      34.859 -15.166 -21.799  0.00  0.00    +0.155 C 
ENDROOT
BRANCH   1   2
ATOM      2  C   UNL     1      34.822 -16.645 -22.105  0.00  0.00    +0.043 C 
ATOM      3  C   UNL     1      34.899 -17.086 -23.417  0.00  0.00    +0.137 C 
ATOM      4  C   UNL     1      34.709 -17.538 -21.051  0.00  0.00    +0.038 C 
ATOM      5  C   UNL     1      34.673 -18.907 -21.315  0.00  0.00    +0.139 C 
ATOM      6  C   UNL     1      34.863 -18.455 -23.681  0.00  0.00    +0.040 C 
ATOM      7  C   UNL     1      34.750 -19.366 -22.630  0.00  0.00    +0.040 C 
BRANCH   3   8
ATOM      8  O   UNL     1      35.008 -16.210 -24.454  0.00  0.00    -0.472 OA
ATOM      9  C   UNL     1      34.089 -16.330 -25.521  0.00  0.00    +0.252 C 
ENDBRANCH   3   8
BRANCH   5  10
ATOM     10  O   UNL     1      34.565 -19.796 -20.291  0.00  0.00    -0.471 OA
ATOM     11  C   UNL     1      33.370 -20.544 -20.186  0.00  0.00    +0.252 C 
ENDBRANCH   5  10
ENDBRANCH   1   2
BRANCH   1  12
ATOM     12  O   UNL     1      34.879 -14.996 -20.382  0.00  0.00    -0.378 OA
ATOM     13  H   UNL     1      33.994 -14.746 -20.074  0.00  0.00    +0.211 HD
ENDBRANCH   1  12
BRANCH   1  14
ATOM     14  C   UNL     1      33.652 -14.436 -22.389  0.00  0.00    +0.123 C 
BRANCH  14  16
ATOM     15  O   UNL     1      32.520 -11.828 -22.928  0.00  0.00    -0.277 OA
ATOM     16  N   UNL     1      34.052 -13.503 -23.418  0.00  0.00    -0.304 N 
ATOM     17  C   UNL     1      33.448 -12.268 -23.603  0.00  0.00    +0.200 C 
ATOM     18  H   UNL     1      34.791 -13.757 -24.018  0.00  0.00    +0.149 HD
BRANCH  17  19
ATOM     19  C   UNL     1      34.048 -11.514 -24.772  0.00  0.00    +0.001 C 
BRANCH  19  20
ATOM     20  N   UNL     1      34.899 -10.452 -24.257  0.00  0.00    +0.386 N 
ATOM     21  H   UNL     1      34.368  -9.876 -23.604  0.00  0.00    -0.089 HD
ATOM     22  H   UNL     1      35.228  -9.874 -25.031  0.00  0.00    -0.089 HD
ATOM     23  H   UNL     1      35.700 -10.862 -23.775  0.00  0.00    -0.089 HD
ENDBRANCH  19  20
ENDBRANCH  17  19
ENDBRANCH  14  16
ENDBRANCH   1  14
TORSDOF 8
ENDMDL
MODEL 4
REMARK VINA RESULT:      -7.1      7.072     10.746
REMARK  Name = 4195
REMARK  8 active torsions:
REMARK  status: ('A' for Active; 'I' for Inactive)
REMARK    1  A    between atoms: C_1  and  C_2
REMARK    2  A    between atoms: C_1  and  O_12
REMARK    3  A    between atoms: C_1  and  C_14
REMARK    4  A    between atoms: C_3  and  O_8
REMARK    5  A    between atoms: C_5  and  O_10
REMARK    6  A    between atoms: C_14  and  N_16
REMARK    7  A    between atoms: C_17  and  C_19
REMARK    8  A    between atoms: C_19  and  N_20
REMARK                            x       y       z     vdW  Elec       q    Type
REMARK                         _______ _______ _______ _____ _____    ______ ____
ROOT
ATOM      1  C   UNL     1      35.819 -23.160 -15.908  0.00  0.00    +0.155 C 
ENDROOT
BRANCH   1   2
ATOM      2  C   UNL     1      35.294 -22.600 -17.210  0.00  0.00    +0.043 C 
ATOM      3  C   UNL     1      33.976 -22.820 -17.579  0.00  0.00    +0.137 C 
ATOM      4  C   UNL     1      36.155 -21.872 -18.015  0.00  0.00    +0.038 C 
ATOM      5  C   UNL     1      35.686 -21.348 -19.220  0.00  0.00    +0.139 C 
ATOM      6  C   UNL     1      33.507 -22.296 -18.783  0.00  0.00    +0.040 C 
ATOM      7  C   UNL     1      34.361 -21.560 -19.605  0.00  0.00    +0.040 C 
BRANCH   3   8
ATOM      8  O   UNL     1      33.128 -23.537 -16.790  0.00  0.00    -0.472 OA
ATOM      9  C   UNL     1      31.801 -23.071 -16.649  0.00  0.00    +0.252 C 
ENDBRANCH   3   8
BRANCH   5  10
ATOM     10  O   UNL     1      36.519 -20.629 -20.020  0.00  0.00    -0.471 OA
ATOM     11  C   UNL     1      35.950 -19.622 -20.833  0.00  0.00    +0.252 C 
ENDBRANCH   5  10
ENDBRANCH   1   2
BRANCH   1  12
ATOM     12  O   UNL     1      35.153 -22.503 -14.831  0.00  0.00    -0.378 OA
ATOM     13  H   UNL     1      34.409 -23.048 -14.531  0.00  0.00    +0.211 HD
ENDBRANCH   1  12
BRANCH   1  14
ATOM     14  C   UNL     1      37.330 -22.965 -15.778  0.00  0.00    +0.123 C 
BRANCH  14  16
ATOM     15  O   UNL     1      37.423 -23.708 -12.983  0.00  0.00    -0.277 OA
ATOM     16  N   UNL     1      37.963 -24.129 -15.201  0.00  0.00    -0.304 N 
ATOM     17  C   UNL     1      37.957 -24.406 -13.842  0.00  0.00    +0.200 C 
ATOM     18  H   UNL     1      38.423 -24.758 -15.805  0.00  0.00    +0.149 HD
BRANCH  17  19
ATOM     19  C   UNL     1      38.723 -25.672 -13.519  0.00  0.00    +0.001 C 
BRANCH  19  20
ATOM     20  N   UNL     1      38.140 -26.776 -14.267  0.00  0.00    +0.386 N 
ATOM     21  H   UNL     1      38.100 -26.533 -15.257  0.00  0.00    -0.089 HD
ATOM     22  H   UNL     1      37.197 -26.959 -13.923  0.00  0.00    -0.089 HD
ATOM     23  H   UNL     1      38.715 -27.610 -14.146  0.00  0.00    -0.089 HD
ENDBRANCH  19  20
ENDBRANCH  17  19
ENDBRANCH  14  16
ENDBRANCH   1  14
TORSDOF 8
ENDMDL
MODEL 5
REMARK VINA RESULT:      -7.1      8.643     12.079
REMARK  Name = 4195
REMARK  8 active torsions:
REMARK  status: ('A' for Active; 'I' for Inactive)
REMARK    1  A    between atoms: C_1  and  C_2
REMARK    2  A    between atoms: C_1  and  O_12
REMARK    3  A    between atoms: C_1  and  C_14
REMARK    4  A    between atoms: C_3  and  O_8
REMARK    5  A    between atoms: C_5  and  O_10
REMARK    6  A    between atoms: C_14  and  N_16
REMARK    7  A    between atoms: C_17  and  C_19
REMARK    8  A    between atoms: C_19  and  N_20
REMARK                            x       y       z     vdW  Elec       q    Type
REMARK                         _______ _______ _______ _____ _____    ______ ____
ROOT
ATOM      1  C   UNL     1      34.778 -24.048 -13.363  0.00  0.00    +0.155 C 
ENDROOT
BRANCH   1   2
ATOM      2  C   UNL     1      33.951 -23.759 -14.595  0.00  0.00    +0.043 C 
ATOM      3  C   UNL     1      32.568 -23.816 -14.531  0.00  0.00    +0.137 C 
ATOM      4  C   UNL     1      34.605 -23.441 -15.774  0.00  0.00    +0.038 C 
ATOM      5  C   UNL     1      33.858 -23.172 -16.920  0.00  0.00    +0.139 C 
ATOM      6  C   UNL     1      31.820 -23.547 -15.678  0.00  0.00    +0.040 C 
ATOM      7  C   UNL     1      32.464 -23.225 -16.873  0.00  0.00    +0.040 C 
BRANCH   3   8
ATOM      8  O   UNL     1      31.922 -24.130 -13.374  0.00  0.00    -0.472 OA
ATOM      9  C   UNL     1      30.616 -24.661 -13.468  0.00  0.00    +0.252 C 
ENDBRANCH   3   8
BRANCH   5  10
ATOM     10  O   UNL     1      34.486 -22.857 -18.086  0.00  0.00    -0.471 OA
ATOM     11  C   UNL     1      33.753 -22.141 -19.060  0.00  0.00    +0.252 C 
ENDBRANCH   5  10
ENDBRANCH   1   2
BRANCH   1  12
ATOM     12  O   UNL     1      34.152 -23.424 -12.242  0.00  0.00    -0.378 OA
ATOM     13  H   UNL     1      33.374 -23.939 -11.978  0.00  0.00    +0.211 HD
ENDBRANCH   1  12
BRANCH   1  14
ATOM     14  C   UNL     1      36.209 -23.531 -13.509  0.00  0.00    +0.123 C 
BRANCH  14  16
ATOM     15  O   UNL     1      38.453 -23.611 -15.334  0.00  0.00    -0.277 OA
ATOM     16  N   UNL     1      37.143 -24.617 -13.702  0.00  0.00    -0.304 N 
ATOM     17  C   UNL     1      38.195 -24.566 -14.605  0.00  0.00    +0.200 C 
ATOM     18  H   UNL     1      37.027 -25.436 -13.166  0.00  0.00    +0.149 HD
BRANCH  17  19
ATOM     19  C   UNL     1      38.991 -25.855 -14.621  0.00  0.00    +0.001 C 
BRANCH  19  20
ATOM     20  N   UNL     1      38.099 -26.959 -14.300  0.00  0.00    +0.386 N 
ATOM     21  H   UNL     1      38.144 -27.155 -13.300  0.00  0.00    -0.089 HD
ATOM     22  H   UNL     1      38.384 -27.789 -14.822  0.00  0.00    -0.089 HD
ATOM     23  H   UNL     1      37.143 -26.709 -14.555  0.00  0.00    -0.089 HD
ENDBRANCH  19  20
ENDBRANCH  17  19
ENDBRANCH  14  16
ENDBRANCH   1  14
TORSDOF 8
ENDMDL
MODEL 6
REMARK VINA RESULT:      -7.1      1.939      3.980
REMARK  Name = 4195
REMARK  8 active torsions:
REMARK  status: ('A' for Active; 'I' for Inactive)
REMARK    1  A    between atoms: C_1  and  C_2
REMARK    2  A    between atoms: C_1  and  O_12
REMARK    3  A    between atoms: C_1  and  C_14
REMARK    4  A    between atoms: C_3  and  O_8
REMARK    5  A    between atoms: C_5  and  O_10
REMARK    6  A    between atoms: C_14  and  N_16
REMARK    7  A    between atoms: C_17  and  C_19
REMARK    8  A    between atoms: C_19  and  N_20
REMARK                            x       y       z     vdW  Elec       q    Type
REMARK                         _______ _______ _______ _____ _____    ______ ____
ROOT
ATOM      1  C   UNL     1      33.417 -14.462 -21.725  0.00  0.00    +0.155 C 
ENDROOT
BRANCH   1   2
ATOM      2  C   UNL     1      33.863 -15.322 -22.885  0.00  0.00    +0.043 C 
ATOM      3  C   UNL     1      34.647 -16.442 -22.658  0.00  0.00    +0.137 C 
ATOM      4  C   UNL     1      33.474 -14.963 -24.165  0.00  0.00    +0.038 C 
ATOM      5  C   UNL     1      33.878 -15.745 -25.247  0.00  0.00    +0.139 C 
ATOM      6  C   UNL     1      35.050 -17.225 -23.740  0.00  0.00    +0.040 C 
ATOM      7  C   UNL     1      34.666 -16.877 -25.035  0.00  0.00    +0.040 C 
BRANCH   3   8
ATOM      8  O   UNL     1      35.032 -16.796 -21.400  0.00  0.00    -0.472 OA
ATOM      9  C   UNL     1      35.568 -18.090 -21.212  0.00  0.00    +0.252 C 
ENDBRANCH   3   8
BRANCH   5  10
ATOM     10  O   UNL     1      33.502 -15.407 -26.511  0.00  0.00    -0.471 OA
ATOM     11  C   UNL     1      33.108 -14.071 -26.750  0.00  0.00    +0.252 C 
ENDBRANCH   5  10
ENDBRANCH   1   2
BRANCH   1  12
ATOM     12  O   UNL     1      32.783 -15.300 -20.758  0.00  0.00    -0.378 OA
ATOM     13  H   UNL     1      33.098 -15.065 -19.871  0.00  0.00    +0.211 HD
ENDBRANCH   1  12
BRANCH   1  14
ATOM     14  C   UNL     1      32.449 -13.367 -22.172  0.00  0.00    +0.123 C 
BRANCH  14  16
ATOM     15  O   UNL     1      31.635 -10.591 -22.123  0.00  0.00    -0.277 OA
ATOM     16  N   UNL     1      31.936 -12.624 -21.043  0.00  0.00    -0.304 N 
ATOM     17  C   UNL     1      31.569 -11.288 -21.113  0.00  0.00    +0.200 C 
ATOM     18  H   UNL     1      31.843 -13.090 -20.180  0.00  0.00    +0.149 HD
BRANCH  17  19
ATOM     19  C   UNL     1      31.099 -10.760 -19.774  0.00  0.00    +0.001 C 
BRANCH  19  20
ATOM     20  N   UNL     1      32.131  -9.893 -19.224  0.00  0.00    +0.386 N 
ATOM     21  H   UNL     1      33.011 -10.059 -19.712  0.00  0.00    -0.089 HD
ATOM     22  H   UNL     1      32.249 -10.094 -18.230  0.00  0.00    -0.089 HD
ATOM     23  H   UNL     1      31.855  -8.918 -19.343  0.00  0.00    -0.089 HD
ENDBRANCH  19  20
ENDBRANCH  17  19
ENDBRANCH  14  16
ENDBRANCH   1  14
TORSDOF 8
ENDMDL
MODEL 7
REMARK VINA RESULT:      -7.1      8.973     12.008
REMARK  Name = 4195
REMARK  8 active torsions:
REMARK  status: ('A' for Active; 'I' for Inactive)
REMARK    1  A    between atoms: C_1  and  C_2
REMARK    2  A    between atoms: C_1  and  O_12
REMARK    3  A    between atoms: C_1  and  C_14
REMARK    4  A    between atoms: C_3  and  O_8
REMARK    5  A    between atoms: C_5  and  O_10
REMARK    6  A    between atoms: C_14  and  N_16
REMARK    7  A    between atoms: C_17  and  C_19
REMARK    8  A    between atoms: C_19  and  N_20
REMARK                            x       y       z     vdW  Elec       q    Type
REMARK                         _______ _______ _______ _____ _____    ______ ____
ROOT
ATOM      1  C   UNL     1      35.358 -23.907 -14.566  0.00  0.00    +0.155 C 
ENDROOT
BRANCH   1   2
ATOM      2  C   UNL     1      34.004 -23.715 -15.210  0.00  0.00    +0.043 C 
ATOM      3  C   UNL     1      33.916 -23.270 -16.520  0.00  0.00    +0.137 C 
ATOM      4  C   UNL     1      32.869 -23.992 -14.465  0.00  0.00    +0.038 C 
ATOM      5  C   UNL     1      31.612 -23.820 -15.045  0.00  0.00    +0.139 C 
ATOM      6  C   UNL     1      32.658 -23.099 -17.099  0.00  0.00    +0.040 C 
ATOM      7  C   UNL     1      31.506 -23.373 -16.362  0.00  0.00    +0.040 C 
BRANCH   3   8
ATOM      8  O   UNL     1      35.030 -22.996 -17.254  0.00  0.00    -0.472 OA
ATOM      9  C   UNL     1      34.870 -22.263 -18.451  0.00  0.00    +0.252 C 
ENDBRANCH   3   8
BRANCH   5  10
ATOM     10  O   UNL     1      30.488 -24.090 -14.327  0.00  0.00    -0.471 OA
ATOM     11  C   UNL     1      29.638 -25.120 -14.788  0.00  0.00    +0.252 C 
ENDBRANCH   5  10
ENDBRANCH   1   2
BRANCH   1  12
ATOM     12  O   UNL     1      36.144 -22.741 -14.808  0.00  0.00    -0.378 OA
ATOM     13  H   UNL     1      35.757 -22.237 -15.541  0.00  0.00    +0.211 HD
ENDBRANCH   1  12
BRANCH   1  14
ATOM     14  C   UNL     1      36.077 -25.138 -15.117  0.00  0.00    +0.123 C 
BRANCH  14  16
ATOM     15  O   UNL     1      38.091 -27.133 -14.535  0.00  0.00    -0.277 OA
ATOM     16  N   UNL     1      37.511 -24.959 -15.108  0.00  0.00    -0.304 N 
ATOM     17  C   UNL     1      38.405 -25.978 -14.815  0.00  0.00    +0.200 C 
ATOM     18  H   UNL     1      37.873 -24.066 -15.320  0.00  0.00    +0.149 HD
BRANCH  17  19
ATOM     19  C   UNL     1      39.841 -25.498 -14.847  0.00  0.00    +0.001 C 
BRANCH  19  20
ATOM     20  N   UNL     1      40.689 -26.516 -14.244  0.00  0.00    +0.386 N 
ATOM     21  H   UNL     1      41.343 -26.871 -14.942  0.00  0.00    -0.089 HD
ATOM     22  H   UNL     1      40.109 -27.282 -13.901  0.00  0.00    -0.089 HD
ATOM     23  H   UNL     1      41.210 -26.108 -13.467  0.00  0.00    -0.089 HD
ENDBRANCH  19  20
ENDBRANCH  17  19
ENDBRANCH  14  16
ENDBRANCH   1  14
TORSDOF 8
ENDMDL
MODEL 8
REMARK VINA RESULT:      -7.0      1.540      1.854
REMARK  Name = 4195
REMARK  8 active torsions:
REMARK  status: ('A' for Active; 'I' for Inactive)
REMARK    1  A    between atoms: C_1  and  C_2
REMARK    2  A    between atoms: C_1  and  O_12
REMARK    3  A    between atoms: C_1  and  C_14
REMARK    4  A    between atoms: C_3  and  O_8
REMARK    5  A    between atoms: C_5  and  O_10
REMARK    6  A    between atoms: C_14  and  N_16
REMARK    7  A    between atoms: C_17  and  C_19
REMARK    8  A    between atoms: C_19  and  N_20
REMARK                            x       y       z     vdW  Elec       q    Type
REMARK                         _______ _______ _______ _____ _____    ______ ____
ROOT
ATOM      1  C   UNL     1      34.080 -14.677 -21.594  0.00  0.00    +0.155 C 
ENDROOT
BRANCH   1   2
ATOM      2  C   UNL     1      34.311 -15.781 -22.600  0.00  0.00    +0.043 C 
ATOM      3  C   UNL     1      34.165 -15.528 -23.955  0.00  0.00    +0.137 C 
ATOM      4  C   UNL     1      34.668 -17.038 -22.137  0.00  0.00    +0.038 C 
ATOM      5  C   UNL     1      34.885 -18.068 -23.052  0.00  0.00    +0.139 C 
ATOM      6  C   UNL     1      34.383 -16.558 -24.870  0.00  0.00    +0.040 C 
ATOM      7  C   UNL     1      34.742 -17.828 -24.419  0.00  0.00    +0.040 C 
BRANCH   3   8
ATOM      8  O   UNL     1      33.814 -14.294 -24.413  0.00  0.00    -0.472 OA
ATOM      9  C   UNL     1      32.954 -14.224 -25.533  0.00  0.00    +0.252 C 
ENDBRANCH   3   8
BRANCH   5  10
ATOM     10  O   UNL     1      35.238 -19.306 -22.613  0.00  0.00    -0.471 OA
ATOM     11  C   UNL     1      34.820 -19.694 -21.319  0.00  0.00    +0.252 C 
ENDBRANCH   5  10
ENDBRANCH   1   2
BRANCH   1  12
ATOM     12  O   UNL     1      34.795 -14.995 -20.401  0.00  0.00    -0.378 OA
ATOM     13  H   UNL     1      35.621 -15.449 -20.631  0.00  0.00    +0.211 HD
ENDBRANCH   1  12
BRANCH   1  14
ATOM     14  C   UNL     1      32.595 -14.504 -21.276  0.00  0.00    +0.123 C 
BRANCH  14  16
ATOM     15  O   UNL     1      31.831 -12.050 -19.946  0.00  0.00    -0.277 OA
ATOM     16  N   UNL     1      32.062 -13.307 -21.885  0.00  0.00    -0.304 N 
ATOM     17  C   UNL     1      31.722 -12.171 -21.164  0.00  0.00    +0.200 C 
ATOM     18  H   UNL     1      31.933 -13.296 -22.862  0.00  0.00    +0.149 HD
BRANCH  17  19
ATOM     19  C   UNL     1      31.159 -11.083 -22.055  0.00  0.00    +0.001 C 
BRANCH  19  20
ATOM     20  N   UNL     1      31.685  -9.799 -21.615  0.00  0.00    +0.386 N 
ATOM     21  H   UNL     1      31.154  -9.473 -20.807  0.00  0.00    -0.089 HD
ATOM     22  H   UNL     1      31.603  -9.121 -22.372  0.00  0.00    -0.089 HD
ATOM     23  H   UNL     1      32.667  -9.905 -21.357  0.00  0.00    -0.089 HD
ENDBRANCH  19  20
ENDBRANCH  17  19
ENDBRANCH  14  16
ENDBRANCH   1  14
TORSDOF 8
ENDMDL
MODEL 9
REMARK VINA RESULT:      -7.0      3.371      6.511
REMARK  Name = 4195
REMARK  8 active torsions:
REMARK  status: ('A' for Active; 'I' for Inactive)
REMARK    1  A    between atoms: C_1  and  C_2
REMARK    2  A    between atoms: C_1  and  O_12
REMARK    3  A    between atoms: C_1  and  C_14
REMARK    4  A    between atoms: C_3  and  O_8
REMARK    5  A    between atoms: C_5  and  O_10
REMARK    6  A    between atoms: C_14  and  N_16
REMARK    7  A    between atoms: C_17  and  C_19
REMARK    8  A    between atoms: C_19  and  N_20
REMARK                            x       y       z     vdW  Elec       q    Type
REMARK                         _______ _______ _______ _____ _____    ______ ____
ROOT
ATOM      1  C   UNL     1      35.173 -18.572 -23.070  0.00  0.00    +0.155 C 
ENDROOT
BRANCH   1   2
ATOM      2  C   UNL     1      34.704 -17.202 -23.505  0.00  0.00    +0.043 C 
ATOM      3  C   UNL     1      34.673 -16.158 -22.594  0.00  0.00    +0.137 C 
ATOM      4  C   UNL     1      34.311 -17.022 -24.821  0.00  0.00    +0.038 C 
ATOM      5  C   UNL     1      33.876 -15.764 -25.239  0.00  0.00    +0.139 C 
ATOM      6  C   UNL     1      34.238 -14.900 -23.012  0.00  0.00    +0.040 C 
ATOM      7  C   UNL     1      33.839 -14.702 -24.334  0.00  0.00    +0.040 C 
BRANCH   3   8
ATOM      8  O   UNL     1      35.057 -16.333 -21.299  0.00  0.00    -0.472 OA
ATOM      9  C   UNL     1      34.568 -15.423 -20.334  0.00  0.00    +0.252 C 
ENDBRANCH   3   8
BRANCH   5  10
ATOM     10  O   UNL     1      33.489 -15.570 -26.529  0.00  0.00    -0.471 OA
ATOM     11  C   UNL     1      33.163 -14.256 -26.933  0.00  0.00    +0.252 C 
ENDBRANCH   5  10
ENDBRANCH   1   2
BRANCH   1  12
ATOM     12  O   UNL     1      35.118 -19.447 -24.196  0.00  0.00    -0.378 OA
ATOM     13  H   UNL     1      35.602 -19.050 -24.938  0.00  0.00    +0.211 HD
ENDBRANCH   1  12
BRANCH   1  14
ATOM     14  C   UNL     1      34.311 -19.132 -21.938  0.00  0.00    +0.123 C 
BRANCH  14  16
ATOM     15  O   UNL     1      33.300 -20.758 -19.769  0.00  0.00    -0.277 OA
ATOM     16  N   UNL     1      35.055 -20.064 -21.122  0.00  0.00    -0.304 N 
ATOM     17  C   UNL     1      34.483 -20.805 -20.098  0.00  0.00    +0.200 C 
ATOM     18  H   UNL     1      36.017 -20.179 -21.301  0.00  0.00    +0.149 HD
BRANCH  17  19
ATOM     19  C   UNL     1      35.503 -21.673 -19.391  0.00  0.00    +0.001 C 
BRANCH  19  20
ATOM     20  N   UNL     1      36.561 -20.822 -18.866  0.00  0.00    +0.386 N 
ATOM     21  H   UNL     1      36.398 -20.649 -17.874  0.00  0.00    -0.089 HD
ATOM     22  H   UNL     1      36.564 -19.934 -19.370  0.00  0.00    -0.089 HD
ATOM     23  H   UNL     1      37.462 -21.285 -18.987  0.00  0.00    -0.089 HD
ENDBRANCH  19  20
ENDBRANCH  17  19
ENDBRANCH  14  16
ENDBRANCH   1  14
TORSDOF 8
ENDMDL
