MODEL 1
REMARK VINA RESULT:      -3.8      0.000      0.000
REMARK  Name = 7896
REMARK  4 active torsions:
REMARK  status: ('A' for Active; 'I' for Inactive)
REMARK    1  A    between atoms: C_1  and  O_3
REMARK    2  A    between atoms: C_1  and  C_5
REMARK    3  A    between atoms: C_5  and  C_6
REMARK    4  A    between atoms: C_6  and  O_7
REMARK                            x       y       z     vdW  Elec       q    Type
REMARK                         _______ _______ _______ _____ _____    ______ ____
ROOT
ATOM      1  C   UNL     1      37.914 -26.073 -14.146  0.00  0.00    +0.113 C 
ATOM      2  C   UNL     1      36.812 -25.399 -14.952  0.00  0.00    +0.032 C 
ENDROOT
BRANCH   1   3
ATOM      3  O   UNL     1      38.218 -27.328 -14.748  0.00  0.00    -0.384 OA
ATOM      4  H   UNL     1      38.170 -27.243 -15.714  0.00  0.00    +0.210 HD
ENDBRANCH   1   3
BRANCH   1   5
ATOM      5  C   UNL     1      39.173 -25.205 -14.079  0.00  0.00    +0.061 C 
BRANCH   5   6
ATOM      6  C   UNL     1      40.410 -25.938 -14.584  0.00  0.00    +0.140 C 
BRANCH   6   7
ATOM      7  O   UNL     1      40.409 -25.911 -16.006  0.00  0.00    -0.382 OA
ATOM      8  H   UNL     1      40.374 -24.992 -16.312  0.00  0.00    +0.210 HD
ENDBRANCH   6   7
ENDBRANCH   5   6
ENDBRANCH   1   5
TORSDOF 4
ENDMDL
MODEL 2
REMARK VINA RESULT:      -3.8      1.593      1.971
REMARK  Name = 7896
REMARK  4 active torsions:
REMARK  status: ('A' for Active; 'I' for Inactive)
REMARK    1  A    between atoms: C_1  and  O_3
REMARK    2  A    between atoms: C_1  and  C_5
REMARK    3  A    between atoms: C_5  and  C_6
REMARK    4  A    between atoms: C_6  and  O_7
REMARK                            x       y       z     vdW  Elec       q    Type
REMARK                         _______ _______ _______ _____ _____    ______ ____
ROOT
ATOM      1  C   UNL     1      37.976 -24.471 -14.939  0.00  0.00    +0.113 C 
ATOM      2  C   UNL     1      37.260 -23.626 -13.894  0.00  0.00    +0.032 C 
ENDROOT
BRANCH   1   3
ATOM      3  O   UNL     1      38.775 -23.614 -15.751  0.00  0.00    -0.384 OA
ATOM      4  H   UNL     1      38.528 -23.728 -16.682  0.00  0.00    +0.210 HD
ENDBRANCH   1   3
BRANCH   1   5
ATOM      5  C   UNL     1      38.851 -25.546 -14.291  0.00  0.00    +0.061 C 
BRANCH   5   6
ATOM      6  C   UNL     1      40.308 -25.448 -14.727  0.00  0.00    +0.140 C 
BRANCH   6   7
ATOM      7  O   UNL     1      40.429 -25.969 -16.044  0.00  0.00    -0.382 OA
ATOM      8  H   UNL     1      39.717 -25.614 -16.598  0.00  0.00    +0.210 HD
ENDBRANCH   6   7
ENDBRANCH   5   6
ENDBRANCH   1   5
TORSDOF 4
ENDMDL
MODEL 3
REMARK VINA RESULT:      -3.7      1.441      2.806
REMARK  Name = 7896
REMARK  4 active torsions:
REMARK  status: ('A' for Active; 'I' for Inactive)
REMARK    1  A    between atoms: C_1  and  O_3
REMARK    2  A    between atoms: C_1  and  C_5
REMARK    3  A    between atoms: C_5  and  C_6
REMARK    4  A    between atoms: C_6  and  O_7
REMARK                            x       y       z     vdW  Elec       q    Type
REMARK                         _______ _______ _______ _____ _____    ______ ____
ROOT
ATOM      1  C   UNL     1      38.563 -25.000 -14.734  0.00  0.00    +0.113 C 
ATOM      2  C   UNL     1      38.955 -25.190 -13.275  0.00  0.00    +0.032 C 
ENDROOT
BRANCH   1   3
ATOM      3  O   UNL     1      39.376 -25.848 -15.540  0.00  0.00    -0.384 OA
ATOM      4  H   UNL     1      40.245 -25.955 -15.121  0.00  0.00    +0.210 HD
ENDBRANCH   1   3
BRANCH   1   5
ATOM      5  C   UNL     1      37.084 -25.318 -14.965  0.00  0.00    +0.061 C 
BRANCH   5   6
ATOM      6  C   UNL     1      36.809 -26.817 -14.989  0.00  0.00    +0.140 C 
BRANCH   6   7
ATOM      7  O   UNL     1      36.846 -27.268 -16.336  0.00  0.00    -0.382 OA
ATOM      8  H   UNL     1      35.952 -27.240 -16.712  0.00  0.00    +0.210 HD
ENDBRANCH   6   7
ENDBRANCH   5   6
ENDBRANCH   1   5
TORSDOF 4
ENDMDL
MODEL 4
REMARK VINA RESULT:      -3.7      7.244      8.004
REMARK  Name = 7896
REMARK  4 active torsions:
REMARK  status: ('A' for Active; 'I' for Inactive)
REMARK    1  A    between atoms: C_1  and  O_3
REMARK    2  A    between atoms: C_1  and  C_5
REMARK    3  A    between atoms: C_5  and  C_6
REMARK    4  A    between atoms: C_6  and  O_7
REMARK                            x       y       z     vdW  Elec       q    Type
REMARK                         _______ _______ _______ _____ _____    ______ ____
ROOT
ATOM      1  C   UNL     1      33.686 -21.118 -19.598  0.00  0.00    +0.113 C 
ATOM      2  C   UNL     1      32.933 -20.147 -20.496  0.00  0.00    +0.032 C 
ENDROOT
BRANCH   1   3
ATOM      3  O   UNL     1      33.070 -22.400 -19.693  0.00  0.00    -0.384 OA
ATOM      4  H   UNL     1      32.213 -22.314 -20.140  0.00  0.00    +0.210 HD
ENDBRANCH   1   3
BRANCH   1   5
ATOM      5  C   UNL     1      35.162 -21.215 -19.987  0.00  0.00    +0.061 C 
BRANCH   5   6
ATOM      6  C   UNL     1      36.052 -21.576 -18.803  0.00  0.00    +0.140 C 
BRANCH   6   7
ATOM      7  O   UNL     1      35.362 -22.505 -17.978  0.00  0.00    -0.382 OA
ATOM      8  H   UNL     1      34.884 -23.139 -18.535  0.00  0.00    +0.210 HD
ENDBRANCH   6   7
ENDBRANCH   5   6
ENDBRANCH   1   5
TORSDOF 4
ENDMDL
MODEL 5
REMARK VINA RESULT:      -3.7      1.600      3.121
REMARK  Name = 7896
REMARK  4 active torsions:
REMARK  status: ('A' for Active; 'I' for Inactive)
REMARK    1  A    between atoms: C_1  and  O_3
REMARK    2  A    between atoms: C_1  and  C_5
REMARK    3  A    between atoms: C_5  and  C_6
REMARK    4  A    between atoms: C_6  and  O_7
REMARK                            x       y       z     vdW  Elec       q    Type
REMARK                         _______ _______ _______ _____ _____    ______ ____
ROOT
ATOM      1  C   UNL     1      38.818 -25.690 -14.473  0.00  0.00    +0.113 C 
ATOM      2  C   UNL     1      40.286 -25.571 -14.856  0.00  0.00    +0.032 C 
ENDROOT
BRANCH   1   3
ATOM      3  O   UNL     1      38.416 -27.050 -14.623  0.00  0.00    -0.384 OA
ATOM      4  H   UNL     1      38.180 -27.414 -13.754  0.00  0.00    +0.210 HD
ENDBRANCH   1   3
BRANCH   1   5
ATOM      5  C   UNL     1      38.571 -25.225 -13.037  0.00  0.00    +0.061 C 
BRANCH   5   6
ATOM      6  C   UNL     1      37.101 -25.314 -12.642  0.00  0.00    +0.140 C 
BRANCH   6   7
ATOM      7  O   UNL     1      36.856 -26.594 -12.074  0.00  0.00    -0.382 OA
ATOM      8  H   UNL     1      37.653 -27.140 -12.151  0.00  0.00    +0.210 HD
ENDBRANCH   6   7
ENDBRANCH   5   6
ENDBRANCH   1   5
TORSDOF 4
ENDMDL
MODEL 6
REMARK VINA RESULT:      -3.7      3.542      4.698
REMARK  Name = 7896
REMARK  4 active torsions:
REMARK  status: ('A' for Active; 'I' for Inactive)
REMARK    1  A    between atoms: C_1  and  O_3
REMARK    2  A    between atoms: C_1  and  C_5
REMARK    3  A    between atoms: C_5  and  C_6
REMARK    4  A    between atoms: C_6  and  O_7
REMARK                            x       y       z     vdW  Elec       q    Type
REMARK                         _______ _______ _______ _____ _____    ______ ____
ROOT
ATOM      1  C   UNL     1      36.951 -25.453 -12.859  0.00  0.00    +0.113 C 
ATOM      2  C   UNL     1      38.282 -24.769 -12.577  0.00  0.00    +0.032 C 
ENDROOT
BRANCH   1   3
ATOM      3  O   UNL     1      36.887 -26.658 -12.100  0.00  0.00    -0.384 OA
ATOM      4  H   UNL     1      36.610 -27.388 -12.677  0.00  0.00    +0.210 HD
ENDBRANCH   1   3
BRANCH   1   5
ATOM      5  C   UNL     1      35.768 -24.548 -12.507  0.00  0.00    +0.061 C 
BRANCH   5   6
ATOM      6  C   UNL     1      35.810 -24.075 -11.059  0.00  0.00    +0.140 C 
BRANCH   6   7
ATOM      7  O   UNL     1      35.268 -25.094 -10.228  0.00  0.00    -0.382 OA
ATOM      8  H   UNL     1      35.665 -25.947 -10.463  0.00  0.00    +0.210 HD
ENDBRANCH   6   7
ENDBRANCH   5   6
ENDBRANCH   1   5
TORSDOF 4
ENDMDL
MODEL 7
REMARK VINA RESULT:      -3.7     10.572     11.139
REMARK  Name = 7896
REMARK  4 active torsions:
REMARK  status: ('A' for Active; 'I' for Inactive)
REMARK    1  A    between atoms: C_1  and  O_3
REMARK    2  A    between atoms: C_1  and  C_5
REMARK    3  A    between atoms: C_5  and  C_6
REMARK    4  A    between atoms: C_6  and  O_7
REMARK                            x       y       z     vdW  Elec       q    Type
REMARK                         _______ _______ _______ _____ _____    ______ ____
ROOT
ATOM      1  C   UNL     1      41.978 -16.245 -17.248  0.00  0.00    +0.113 C 
ATOM      2  C   UNL     1      42.694 -16.302 -18.590  0.00  0.00    +0.032 C 
ENDROOT
BRANCH   1   3
ATOM      3  O   UNL     1      42.914 -16.554 -16.218  0.00  0.00    -0.384 OA
ATOM      4  H   UNL     1      42.719 -16.017 -15.433  0.00  0.00    +0.210 HD
ENDBRANCH   1   3
BRANCH   1   5
ATOM      5  C   UNL     1      41.359 -14.868 -16.998  0.00  0.00    +0.061 C 
BRANCH   5   6
ATOM      6  C   UNL     1      40.930 -14.679 -15.548  0.00  0.00    +0.140 C 
BRANCH   6   7
ATOM      7  O   UNL     1      40.180 -15.816 -15.140  0.00  0.00    -0.382 OA
ATOM      8  H   UNL     1      40.557 -16.613 -15.543  0.00  0.00    +0.210 HD
ENDBRANCH   6   7
ENDBRANCH   5   6
ENDBRANCH   1   5
TORSDOF 4
ENDMDL
MODEL 8
REMARK VINA RESULT:      -3.6     11.546     12.281
REMARK  Name = 7896
REMARK  4 active torsions:
REMARK  status: ('A' for Active; 'I' for Inactive)
REMARK    1  A    between atoms: C_1  and  O_3
REMARK    2  A    between atoms: C_1  and  C_5
REMARK    3  A    between atoms: C_5  and  C_6
REMARK    4  A    between atoms: C_6  and  O_7
REMARK                            x       y       z     vdW  Elec       q    Type
REMARK                         _______ _______ _______ _____ _____    ______ ____
ROOT
ATOM      1  C   UNL     1      42.150 -13.697 -16.341  0.00  0.00    +0.113 C 
ATOM      2  C   UNL     1      42.181 -12.578 -17.372  0.00  0.00    +0.032 C 
ENDROOT
BRANCH   1   3
ATOM      3  O   UNL     1      41.529 -13.208 -15.155  0.00  0.00    -0.384 OA
ATOM      4  H   UNL     1      42.102 -12.543 -14.741  0.00  0.00    +0.210 HD
ENDBRANCH   1   3
BRANCH   1   5
ATOM      5  C   UNL     1      41.396 -14.922 -16.862  0.00  0.00    +0.061 C 
BRANCH   5   6
ATOM      6  C   UNL     1      41.323 -16.041 -15.830  0.00  0.00    +0.140 C 
BRANCH   6   7
ATOM      7  O   UNL     1      40.102 -15.924 -15.112  0.00  0.00    -0.382 OA
ATOM      8  H   UNL     1      40.138 -16.481 -14.319  0.00  0.00    +0.210 HD
ENDBRANCH   6   7
ENDBRANCH   5   6
ENDBRANCH   1   5
TORSDOF 4
ENDMDL
MODEL 9
REMARK VINA RESULT:      -3.6     12.456     13.352
REMARK  Name = 7896
REMARK  4 active torsions:
REMARK  status: ('A' for Active; 'I' for Inactive)
REMARK    1  A    between atoms: C_1  and  O_3
REMARK    2  A    between atoms: C_1  and  C_5
REMARK    3  A    between atoms: C_5  and  C_6
REMARK    4  A    between atoms: C_6  and  O_7
REMARK                            x       y       z     vdW  Elec       q    Type
REMARK                         _______ _______ _______ _____ _____    ______ ____
ROOT
ATOM      1  C   UNL     1      34.803 -16.986 -22.958  0.00  0.00    +0.113 C 
ATOM      2  C   UNL     1      35.095 -17.221 -21.482  0.00  0.00    +0.032 C 
ENDROOT
BRANCH   1   3
ATOM      3  O   UNL     1      35.615 -15.908 -23.418  0.00  0.00    -0.384 OA
ATOM      4  H   UNL     1      35.352 -15.091 -22.966  0.00  0.00    +0.210 HD
ENDBRANCH   1   3
BRANCH   1   5
ATOM      5  C   UNL     1      35.075 -18.240 -23.791  0.00  0.00    +0.061 C 
BRANCH   5   6
ATOM      6  C   UNL     1      34.363 -18.207 -25.139  0.00  0.00    +0.140 C 
BRANCH   6   7
ATOM      7  O   UNL     1      34.739 -17.021 -25.827  0.00  0.00    -0.382 OA
ATOM      8  H   UNL     1      35.261 -16.456 -25.236  0.00  0.00    +0.210 HD
ENDBRANCH   6   7
ENDBRANCH   5   6
ENDBRANCH   1   5
TORSDOF 4
ENDMDL
