MODEL 1
REMARK VINA RESULT:      -9.9      0.000      0.000
REMARK  Name = 10095865
REMARK  6 active torsions:
REMARK  status: ('A' for Active; 'I' for Inactive)
REMARK    1  A    between atoms: N_2  and  C_21
REMARK    2  A    between atoms: C_3  and  N_7
REMARK    3  A    between atoms: N_7  and  S_9
REMARK    4  A    between atoms: S_9  and  C_12
REMARK    5  A    between atoms: C_13  and  C_17
REMARK    6  A    between atoms: C_21  and  C_26
REMARK                            x       y       z     vdW  Elec       q    Type
REMARK                         _______ _______ _______ _____ _____    ______ ____
ROOT
ATOM      1  O   UNL     1      33.798 -23.387 -18.060  0.00  0.00    -0.273 OA
ATOM      2  N   UNL     1      35.372 -22.627 -16.484  0.00  0.00    -0.272 N 
ATOM      3  C   UNL     1      35.679 -22.006 -18.715  0.00  0.00    +0.153 C 
ATOM      4  C   UNL     1      36.962 -21.743 -17.934  0.00  0.00    +0.048 C 
ATOM      5  C   UNL     1      36.524 -21.755 -16.480  0.00  0.00    +0.096 C 
ATOM      6  C   UNL     1      34.815 -22.783 -17.753  0.00  0.00    +0.242 C 
ENDROOT
BRANCH   3   7
ATOM      7  N   UNL     1      34.965 -20.752 -19.012  0.00  0.00    -0.172 NA
ATOM      8  H   UNL     1      34.283 -20.609 -18.267  0.00  0.00    +0.149 HD
BRANCH   7   9
ATOM      9  S   UNL     1      34.122 -20.633 -20.509  0.00  0.00    +0.062 S 
ATOM     10  O   UNL     1      32.796 -21.196 -20.328  0.00  0.00    -0.153 OA
ATOM     11  O   UNL     1      34.993 -21.167 -21.541  0.00  0.00    -0.153 OA
BRANCH   9  12
ATOM     12  C   UNL     1      33.958 -18.931 -20.786  0.00  0.00    +0.137 C 
ATOM     13  C   UNL     1      35.016 -18.179 -21.155  0.00  0.00    +0.004 C 
ATOM     14  C   UNL     1      36.414 -18.734 -21.337  0.00  0.00    +0.033 C 
BRANCH  13  17
ATOM     15 CL   UNL     1      34.060 -13.386 -23.595  0.00  0.00    -0.075 Cl
ATOM     16  S   UNL     1      34.626 -16.238 -22.993  0.00  0.00    -0.076 S 
ATOM     17  C   UNL     1      34.738 -16.780 -21.390  0.00  0.00    +0.028 C 
ATOM     18  C   UNL     1      34.549 -15.810 -20.461  0.00  0.00    +0.008 C 
ATOM     19  C   UNL     1      34.297 -14.552 -21.083  0.00  0.00    +0.018 C 
ATOM     20  C   UNL     1      34.312 -14.642 -22.457  0.00  0.00    +0.087 C 
ENDBRANCH  13  17
ENDBRANCH   9  12
ENDBRANCH   7   9
ENDBRANCH   3   7
BRANCH   2  21
ATOM     21  C   UNL     1      34.798 -23.126 -15.254  0.00  0.00    +0.152 C 
ATOM     22  C   UNL     1      33.331 -23.455 -15.397  0.00  0.00    +0.031 C 
BRANCH  21  26
ATOM     23  O   UNL     1      37.810 -24.385 -11.401  0.00  0.00    -0.350 OA
ATOM     24  O   UNL     1      35.749 -25.223 -15.819  0.00  0.00    -0.273 OA
ATOM     25  N   UNL     1      36.123 -24.462 -13.658  0.00  0.00    -0.273 N 
ATOM     26  C   UNL     1      35.596 -24.367 -14.944  0.00  0.00    +0.244 C 
ATOM     27  C   UNL     1      35.855 -23.529 -12.557  0.00  0.00    +0.126 C 
ATOM     28  C   UNL     1      36.913 -25.631 -13.274  0.00  0.00    +0.126 C 
ATOM     29  C   UNL     1      37.149 -23.189 -11.828  0.00  0.00    +0.164 C 
ATOM     30  C   UNL     1      38.163 -25.202 -12.521  0.00  0.00    +0.164 C 
ENDBRANCH  21  26
ENDBRANCH   2  21
TORSDOF 6
ENDMDL
MODEL 2
REMARK VINA RESULT:      -9.5      6.504     10.051
REMARK  Name = 10095865
REMARK  6 active torsions:
REMARK  status: ('A' for Active; 'I' for Inactive)
REMARK    1  A    between atoms: N_2  and  C_21
REMARK    2  A    between atoms: C_3  and  N_7
REMARK    3  A    between atoms: N_7  and  S_9
REMARK    4  A    between atoms: S_9  and  C_12
REMARK    5  A    between atoms: C_13  and  C_17
REMARK    6  A    between atoms: C_21  and  C_26
REMARK                            x       y       z     vdW  Elec       q    Type
REMARK                         _______ _______ _______ _____ _____    ______ ____
ROOT
ATOM      1  O   UNL     1      34.207 -13.429 -23.376  0.00  0.00    -0.273 OA
ATOM      2  N   UNL     1      33.400 -15.449 -22.478  0.00  0.00    -0.272 N 
ATOM      3  C   UNL     1      33.049 -13.494 -21.248  0.00  0.00    +0.153 C 
ATOM      4  C   UNL     1      32.799 -14.706 -20.357  0.00  0.00    +0.048 C 
ATOM      5  C   UNL     1      32.621 -15.857 -21.331  0.00  0.00    +0.096 C 
ATOM      6  C   UNL     1      33.651 -14.077 -22.502  0.00  0.00    +0.242 C 
ENDROOT
BRANCH   3   7
ATOM      7  N   UNL     1      31.785 -12.848 -21.643  0.00  0.00    -0.172 NA
ATOM      8  H   UNL     1      31.802 -12.745 -22.657  0.00  0.00    +0.149 HD
BRANCH   7   9
ATOM      9  S   UNL     1      31.420 -11.303 -20.975  0.00  0.00    +0.062 S 
ATOM     10  O   UNL     1      32.135 -11.172 -19.718  0.00  0.00    -0.153 OA
ATOM     11  O   UNL     1      29.976 -11.151 -20.997  0.00  0.00    -0.153 OA
BRANCH   9  12
ATOM     12  C   UNL     1      32.088 -10.169 -22.102  0.00  0.00    +0.137 C 
ATOM     13  C   UNL     1      32.378  -8.904 -21.731  0.00  0.00    +0.004 C 
ATOM     14  C   UNL     1      32.132  -8.365 -20.337  0.00  0.00    +0.033 C 
BRANCH  13  17
ATOM     15 CL   UNL     1      33.038  -5.281 -25.764  0.00  0.00    -0.075 Cl
ATOM     16  S   UNL     1      31.946  -7.040 -23.636  0.00  0.00    -0.076 S 
ATOM     17  C   UNL     1      32.964  -8.070 -22.755  0.00  0.00    +0.028 C 
ATOM     18  C   UNL     1      34.270  -8.001 -23.116  0.00  0.00    +0.008 C 
ATOM     19  C   UNL     1      34.459  -7.058 -24.168  0.00  0.00    +0.018 C 
ATOM     20  C   UNL     1      33.276  -6.463 -24.547  0.00  0.00    +0.087 C 
ENDBRANCH  13  17
ENDBRANCH   9  12
ENDBRANCH   7   9
ENDBRANCH   3   7
BRANCH   2  21
ATOM     21  C   UNL     1      33.719 -16.375 -23.543  0.00  0.00    +0.152 C 
ATOM     22  C   UNL     1      33.675 -15.721 -24.904  0.00  0.00    +0.031 C 
BRANCH  21  26
ATOM     23  O   UNL     1      35.479 -20.147 -20.684  0.00  0.00    -0.350 OA
ATOM     24  O   UNL     1      36.078 -16.140 -23.523  0.00  0.00    -0.273 OA
ATOM     25  N   UNL     1      35.219 -18.085 -22.588  0.00  0.00    -0.273 N 
ATOM     26  C   UNL     1      35.113 -16.849 -23.222  0.00  0.00    +0.244 C 
ATOM     27  C   UNL     1      34.109 -19.008 -22.331  0.00  0.00    +0.126 C 
ATOM     28  C   UNL     1      36.535 -18.617 -22.237  0.00  0.00    +0.126 C 
ATOM     29  C   UNL     1      34.196 -19.556 -20.913  0.00  0.00    +0.164 C 
ATOM     30  C   UNL     1      36.521 -19.177 -20.822  0.00  0.00    +0.164 C 
ENDBRANCH  21  26
ENDBRANCH   2  21
TORSDOF 6
ENDMDL
MODEL 3
REMARK VINA RESULT:      -9.4      4.535      7.866
REMARK  Name = 10095865
REMARK  6 active torsions:
REMARK  status: ('A' for Active; 'I' for Inactive)
REMARK    1  A    between atoms: N_2  and  C_21
REMARK    2  A    between atoms: C_3  and  N_7
REMARK    3  A    between atoms: N_7  and  S_9
REMARK    4  A    between atoms: S_9  and  C_12
REMARK    5  A    between atoms: C_13  and  C_17
REMARK    6  A    between atoms: C_21  and  C_26
REMARK                            x       y       z     vdW  Elec       q    Type
REMARK                         _______ _______ _______ _____ _____    ______ ____
ROOT
ATOM      1  O   UNL     1      35.165 -16.744 -23.965  0.00  0.00    -0.273 OA
ATOM      2  N   UNL     1      34.504 -17.448 -21.818  0.00  0.00    -0.272 N 
ATOM      3  C   UNL     1      34.582 -15.150 -22.234  0.00  0.00    +0.153 C 
ATOM      4  C   UNL     1      34.502 -15.392 -20.730  0.00  0.00    +0.048 C 
ATOM      5  C   UNL     1      34.021 -16.827 -20.607  0.00  0.00    +0.096 C 
ATOM      6  C   UNL     1      34.814 -16.522 -22.815  0.00  0.00    +0.242 C 
ENDROOT
BRANCH   3   7
ATOM      7  N   UNL     1      33.296 -14.673 -22.770  0.00  0.00    -0.172 NA
ATOM      8  H   UNL     1      32.728 -15.495 -22.974  0.00  0.00    +0.149 HD
BRANCH   7   9
ATOM      9  S   UNL     1      33.320 -13.702 -24.193  0.00  0.00    +0.062 S 
ATOM     10  O   UNL     1      32.053 -13.875 -24.881  0.00  0.00    -0.153 OA
ATOM     11  O   UNL     1      34.560 -13.988 -24.893  0.00  0.00    -0.153 OA
BRANCH   9  12
ATOM     12  C   UNL     1      33.405 -12.072 -23.611  0.00  0.00    +0.137 C 
ATOM     13  C   UNL     1      33.865 -11.074 -24.395  0.00  0.00    +0.004 C 
ATOM     14  C   UNL     1      34.357 -11.283 -25.812  0.00  0.00    +0.033 C 
BRANCH  13  17
ATOM     15 CL   UNL     1      32.443  -6.677 -21.483  0.00  0.00    -0.075 Cl
ATOM     16  S   UNL     1      32.576  -9.355 -22.758  0.00  0.00    -0.076 S 
ATOM     17  C   UNL     1      33.851  -9.756 -23.802  0.00  0.00    +0.028 C 
ATOM     18  C   UNL     1      34.757  -8.763 -23.979  0.00  0.00    +0.008 C 
ATOM     19  C   UNL     1      34.400  -7.607 -23.225  0.00  0.00    +0.018 C 
ATOM     20  C   UNL     1      33.234  -7.793 -22.515  0.00  0.00    +0.087 C 
ENDBRANCH  13  17
ENDBRANCH   9  12
ENDBRANCH   7   9
ENDBRANCH   3   7
BRANCH   2  21
ATOM     21  C   UNL     1      34.493 -18.884 -21.987  0.00  0.00    +0.152 C 
ATOM     22  C   UNL     1      34.537 -19.291 -23.442  0.00  0.00    +0.031 C 
BRANCH  21  26
ATOM     23  O   UNL     1      35.241 -22.385 -18.427  0.00  0.00    -0.350 OA
ATOM     24  O   UNL     1      36.772 -18.707 -21.359  0.00  0.00    -0.273 OA
ATOM     25  N   UNL     1      35.598 -20.524 -20.512  0.00  0.00    -0.273 N 
ATOM     26  C   UNL     1      35.727 -19.357 -21.263  0.00  0.00    +0.244 C 
ATOM     27  C   UNL     1      34.414 -21.388 -20.478  0.00  0.00    +0.126 C 
ATOM     28  C   UNL     1      36.746 -21.050 -19.774  0.00  0.00    +0.126 C 
ATOM     29  C   UNL     1      34.095 -21.790 -19.044  0.00  0.00    +0.164 C 
ATOM     30  C   UNL     1      36.331 -21.461 -18.369  0.00  0.00    +0.164 C 
ENDBRANCH  21  26
ENDBRANCH   2  21
TORSDOF 6
ENDMDL
MODEL 4
REMARK VINA RESULT:      -9.3      4.275      9.754
REMARK  Name = 10095865
REMARK  6 active torsions:
REMARK  status: ('A' for Active; 'I' for Inactive)
REMARK    1  A    between atoms: N_2  and  C_21
REMARK    2  A    between atoms: C_3  and  N_7
REMARK    3  A    between atoms: N_7  and  S_9
REMARK    4  A    between atoms: S_9  and  C_12
REMARK    5  A    between atoms: C_13  and  C_17
REMARK    6  A    between atoms: C_21  and  C_26
REMARK                            x       y       z     vdW  Elec       q    Type
REMARK                         _______ _______ _______ _____ _____    ______ ____
ROOT
ATOM      1  O   UNL     1      36.373 -21.104 -20.652  0.00  0.00    -0.273 OA
ATOM      2  N   UNL     1      34.893 -19.295 -20.927  0.00  0.00    -0.272 N 
ATOM      3  C   UNL     1      33.993 -21.346 -20.262  0.00  0.00    +0.153 C 
ATOM      4  C   UNL     1      32.871 -20.428 -20.737  0.00  0.00    +0.048 C 
ATOM      5  C   UNL     1      33.487 -19.040 -20.715  0.00  0.00    +0.096 C 
ATOM      6  C   UNL     1      35.254 -20.612 -20.645  0.00  0.00    +0.242 C 
ENDROOT
BRANCH   3   7
ATOM      7  N   UNL     1      34.001 -21.468 -18.794  0.00  0.00    -0.172 NA
ATOM      8  H   UNL     1      34.971 -21.390 -18.489  0.00  0.00    +0.149 HD
BRANCH   7   9
ATOM      9  S   UNL     1      33.359 -22.906 -18.096  0.00  0.00    +0.062 S 
ATOM     10  O   UNL     1      33.682 -24.018 -18.972  0.00  0.00    -0.153 OA
ATOM     11  O   UNL     1      31.972 -22.641 -17.756  0.00  0.00    -0.153 OA
BRANCH   9  12
ATOM     12  C   UNL     1      34.237 -23.105 -16.616  0.00  0.00    +0.137 C 
ATOM     13  C   UNL     1      33.615 -23.497 -15.483  0.00  0.00    +0.004 C 
ATOM     14  C   UNL     1      32.128 -23.770 -15.398  0.00  0.00    +0.033 C 
BRANCH  13  17
ATOM     15 CL   UNL     1      37.928 -23.463 -12.132  0.00  0.00    -0.075 Cl
ATOM     16  S   UNL     1      36.087 -23.174 -14.444  0.00  0.00    -0.076 S 
ATOM     17  C   UNL     1      34.467 -23.661 -14.327  0.00  0.00    +0.028 C 
ATOM     18  C   UNL     1      34.125 -24.170 -13.117  0.00  0.00    +0.008 C 
ATOM     19  C   UNL     1      35.241 -24.168 -12.231  0.00  0.00    +0.018 C 
ATOM     20  C   UNL     1      36.373 -23.653 -12.824  0.00  0.00    +0.087 C 
ENDBRANCH  13  17
ENDBRANCH   9  12
ENDBRANCH   7   9
ENDBRANCH   3   7
BRANCH   2  21
ATOM     21  C   UNL     1      35.815 -18.225 -21.238  0.00  0.00    +0.152 C 
ATOM     22  C   UNL     1      37.178 -18.740 -21.638  0.00  0.00    +0.031 C 
BRANCH  21  26
ATOM     23  O   UNL     1      32.951 -14.073 -21.454  0.00  0.00    -0.350 OA
ATOM     24  O   UNL     1      35.118 -18.023 -23.495  0.00  0.00    -0.273 OA
ATOM     25  N   UNL     1      34.647 -16.229 -22.098  0.00  0.00    -0.273 N 
ATOM     26  C   UNL     1      35.166 -17.491 -22.383  0.00  0.00    +0.244 C 
ATOM     27  C   UNL     1      34.798 -15.514 -20.826  0.00  0.00    +0.126 C 
ATOM     28  C   UNL     1      33.996 -15.450 -23.150  0.00  0.00    +0.126 C 
ATOM     29  C   UNL     1      33.470 -14.897 -20.406  0.00  0.00    +0.164 C 
ATOM     30  C   UNL     1      32.700 -14.841 -22.634  0.00  0.00    +0.164 C 
ENDBRANCH  21  26
ENDBRANCH   2  21
TORSDOF 6
ENDMDL
MODEL 5
REMARK VINA RESULT:      -9.2      6.033     11.680
REMARK  Name = 10095865
REMARK  6 active torsions:
REMARK  status: ('A' for Active; 'I' for Inactive)
REMARK    1  A    between atoms: N_2  and  C_21
REMARK    2  A    between atoms: C_3  and  N_7
REMARK    3  A    between atoms: N_7  and  S_9
REMARK    4  A    between atoms: S_9  and  C_12
REMARK    5  A    between atoms: C_13  and  C_17
REMARK    6  A    between atoms: C_21  and  C_26
REMARK                            x       y       z     vdW  Elec       q    Type
REMARK                         _______ _______ _______ _____ _____    ______ ____
ROOT
ATOM      1  O   UNL     1      33.453 -15.543 -24.630  0.00  0.00    -0.273 OA
ATOM      2  N   UNL     1      33.832 -13.986 -22.906  0.00  0.00    -0.272 N 
ATOM      3  C   UNL     1      33.945 -16.256 -22.366  0.00  0.00    +0.153 C 
ATOM      4  C   UNL     1      33.847 -15.434 -21.086  0.00  0.00    +0.048 C 
ATOM      5  C   UNL     1      34.220 -14.026 -21.515  0.00  0.00    +0.096 C 
ATOM      6  C   UNL     1      33.690 -15.255 -23.466  0.00  0.00    +0.242 C 
ENDROOT
BRANCH   3   7
ATOM      7  N   UNL     1      35.309 -16.774 -22.570  0.00  0.00    -0.172 NA
ATOM      8  H   UNL     1      35.789 -16.126 -23.194  0.00  0.00    +0.149 HD
BRANCH   7   9
ATOM      9  S   UNL     1      35.488 -18.353 -23.233  0.00  0.00    +0.062 S 
ATOM     10  O   UNL     1      36.900 -18.692 -23.223  0.00  0.00    -0.153 OA
ATOM     11  O   UNL     1      34.752 -18.385 -24.485  0.00  0.00    -0.153 OA
BRANCH   9  12
ATOM     12  C   UNL     1      34.671 -19.394 -22.114  0.00  0.00    +0.137 C 
ATOM     13  C   UNL     1      35.279 -19.822 -20.987  0.00  0.00    +0.004 C 
ATOM     14  C   UNL     1      36.703 -19.462 -20.617  0.00  0.00    +0.033 C 
BRANCH  13  17
ATOM     15 CL   UNL     1      33.720 -23.554 -17.316  0.00  0.00    -0.075 Cl
ATOM     16  S   UNL     1      35.265 -21.789 -19.137  0.00  0.00    -0.076 S 
ATOM     17  C   UNL     1      34.476 -20.655 -20.121  0.00  0.00    +0.028 C 
ATOM     18  C   UNL     1      33.127 -20.646 -19.986  0.00  0.00    +0.008 C 
ATOM     19  C   UNL     1      32.704 -21.615 -19.031  0.00  0.00    +0.018 C 
ATOM     20  C   UNL     1      33.766 -22.308 -18.492  0.00  0.00    +0.087 C 
ENDBRANCH  13  17
ENDBRANCH   9  12
ENDBRANCH   7   9
ENDBRANCH   3   7
BRANCH   2  21
ATOM     21  C   UNL     1      33.770 -12.739 -23.637  0.00  0.00    +0.152 C 
ATOM     22  C   UNL     1      33.500 -12.950 -25.109  0.00  0.00    +0.031 C 
BRANCH  21  26
ATOM     23  O   UNL     1      33.034  -7.831 -22.712  0.00  0.00    -0.350 OA
ATOM     24  O   UNL     1      31.765 -12.600 -22.380  0.00  0.00    -0.273 OA
ATOM     25  N   UNL     1      32.665 -10.594 -23.126  0.00  0.00    -0.273 N 
ATOM     26  C   UNL     1      32.640 -11.980 -22.990  0.00  0.00    +0.244 C 
ATOM     27  C   UNL     1      33.614  -9.836 -23.949  0.00  0.00    +0.126 C 
ATOM     28  C   UNL     1      31.609  -9.780 -22.525  0.00  0.00    +0.126 C 
ATOM     29  C   UNL     1      34.128  -8.625 -23.180  0.00  0.00    +0.164 C 
ATOM     30  C   UNL     1      32.207  -8.576 -21.814  0.00  0.00    +0.164 C 
ENDBRANCH  21  26
ENDBRANCH   2  21
TORSDOF 6
ENDMDL
MODEL 6
REMARK VINA RESULT:      -9.1      2.968      4.131
REMARK  Name = 10095865
REMARK  6 active torsions:
REMARK  status: ('A' for Active; 'I' for Inactive)
REMARK    1  A    between atoms: N_2  and  C_21
REMARK    2  A    between atoms: C_3  and  N_7
REMARK    3  A    between atoms: N_7  and  S_9
REMARK    4  A    between atoms: S_9  and  C_12
REMARK    5  A    between atoms: C_13  and  C_17
REMARK    6  A    between atoms: C_21  and  C_26
REMARK                            x       y       z     vdW  Elec       q    Type
REMARK                         _______ _______ _______ _____ _____    ______ ____
ROOT
ATOM      1  O   UNL     1      33.666 -23.344 -19.897  0.00  0.00    -0.273 OA
ATOM      2  N   UNL     1      34.517 -22.807 -17.770  0.00  0.00    -0.272 N 
ATOM      3  C   UNL     1      35.465 -21.743 -19.621  0.00  0.00    +0.153 C 
ATOM      4  C   UNL     1      36.371 -21.556 -18.409  0.00  0.00    +0.048 C 
ATOM      5  C   UNL     1      35.481 -21.881 -17.222  0.00  0.00    +0.096 C 
ATOM      6  C   UNL     1      34.438 -22.747 -19.161  0.00  0.00    +0.242 C 
ENDROOT
BRANCH   3   7
ATOM      7  N   UNL     1      34.735 -20.504 -19.942  0.00  0.00    -0.172 NA
ATOM      8  H   UNL     1      33.789 -20.772 -20.211  0.00  0.00    +0.149 HD
BRANCH   7   9
ATOM      9  S   UNL     1      35.359 -19.495 -21.191  0.00  0.00    +0.062 S 
ATOM     10  O   UNL     1      34.969 -20.064 -22.469  0.00  0.00    -0.153 OA
ATOM     11  O   UNL     1      36.765 -19.270 -20.905  0.00  0.00    -0.153 OA
BRANCH   9  12
ATOM     12  C   UNL     1      34.530 -17.987 -20.990  0.00  0.00    +0.137 C 
ATOM     13  C   UNL     1      34.603 -17.020 -21.930  0.00  0.00    +0.004 C 
ATOM     14  C   UNL     1      35.413 -17.152 -23.204  0.00  0.00    +0.033 C 
BRANCH  13  17
ATOM     15 CL   UNL     1      31.944 -12.285 -22.508  0.00  0.00    -0.075 Cl
ATOM     16  S   UNL     1      33.508 -14.771 -22.946  0.00  0.00    -0.076 S 
ATOM     17  C   UNL     1      33.838 -15.825 -21.659  0.00  0.00    +0.028 C 
ATOM     18  C   UNL     1      33.330 -15.423 -20.468  0.00  0.00    +0.008 C 
ATOM     19  C   UNL     1      32.632 -14.187 -20.602  0.00  0.00    +0.018 C 
ATOM     20  C   UNL     1      32.652 -13.721 -21.898  0.00  0.00    +0.087 C 
ENDBRANCH  13  17
ENDBRANCH   9  12
ENDBRANCH   7   9
ENDBRANCH   3   7
BRANCH   2  21
ATOM     21  C   UNL     1      33.636 -23.573 -16.916  0.00  0.00    +0.152 C 
ATOM     22  C   UNL     1      34.083 -23.561 -15.472  0.00  0.00    +0.031 C 
BRANCH  21  26
ATOM     23  O   UNL     1      29.038 -24.705 -15.163  0.00  0.00    -0.350 OA
ATOM     24  O   UNL     1      32.154 -22.006 -17.898  0.00  0.00    -0.273 OA
ATOM     25  N   UNL     1      31.275 -23.365 -16.232  0.00  0.00    -0.273 N 
ATOM     26  C   UNL     1      32.294 -22.905 -17.065  0.00  0.00    +0.244 C 
ATOM     27  C   UNL     1      31.437 -24.338 -15.147  0.00  0.00    +0.126 C 
ATOM     28  C   UNL     1      29.940 -22.774 -16.314  0.00  0.00    +0.126 C 
ATOM     29  C   UNL     1      30.309 -25.362 -15.185  0.00  0.00    +0.164 C 
ATOM     30  C   UNL     1      28.877 -23.863 -16.308  0.00  0.00    +0.164 C 
ENDBRANCH  21  26
ENDBRANCH   2  21
TORSDOF 6
ENDMDL
MODEL 7
REMARK VINA RESULT:      -8.9      7.074     12.748
REMARK  Name = 10095865
REMARK  6 active torsions:
REMARK  status: ('A' for Active; 'I' for Inactive)
REMARK    1  A    between atoms: N_2  and  C_21
REMARK    2  A    between atoms: C_3  and  N_7
REMARK    3  A    between atoms: N_7  and  S_9
REMARK    4  A    between atoms: S_9  and  C_12
REMARK    5  A    between atoms: C_13  and  C_17
REMARK    6  A    between atoms: C_21  and  C_26
REMARK                            x       y       z     vdW  Elec       q    Type
REMARK                         _______ _______ _______ _____ _____    ______ ____
ROOT
ATOM      1  O   UNL     1      32.401 -13.242 -20.571  0.00  0.00    -0.273 OA
ATOM      2  N   UNL     1      32.230 -11.761 -22.393  0.00  0.00    -0.272 N 
ATOM      3  C   UNL     1      33.779 -13.502 -22.548  0.00  0.00    +0.153 C 
ATOM      4  C   UNL     1      34.072 -12.464 -23.626  0.00  0.00    +0.048 C 
ATOM      5  C   UNL     1      32.795 -11.648 -23.717  0.00  0.00    +0.096 C 
ATOM      6  C   UNL     1      32.740 -12.844 -21.676  0.00  0.00    +0.242 C 
ENDROOT
BRANCH   3   7
ATOM      7  N   UNL     1      33.154 -14.708 -23.119  0.00  0.00    -0.172 NA
ATOM      8  H   UNL     1      32.518 -15.082 -22.416  0.00  0.00    +0.149 HD
BRANCH   7   9
ATOM      9  S   UNL     1      34.182 -15.996 -23.619  0.00  0.00    +0.062 S 
ATOM     10  O   UNL     1      35.557 -15.539 -23.529  0.00  0.00    -0.153 OA
ATOM     11  O   UNL     1      33.672 -16.492 -24.885  0.00  0.00    -0.153 OA
BRANCH   9  12
ATOM     12  C   UNL     1      33.941 -17.235 -22.431  0.00  0.00    +0.137 C 
ATOM     13  C   UNL     1      34.461 -18.470 -22.596  0.00  0.00    +0.004 C 
ATOM     14  C   UNL     1      35.264 -18.884 -23.812  0.00  0.00    +0.033 C 
BRANCH  13  17
ATOM     15 CL   UNL     1      35.173 -22.091 -18.570  0.00  0.00    -0.075 Cl
ATOM     16  S   UNL     1      35.550 -20.162 -20.795  0.00  0.00    -0.076 S 
ATOM     17  C   UNL     1      34.218 -19.400 -21.516  0.00  0.00    +0.028 C 
ATOM     18  C   UNL     1      33.021 -19.754 -20.986  0.00  0.00    +0.008 C 
ATOM     19  C   UNL     1      33.191 -20.699 -19.933  0.00  0.00    +0.018 C 
ATOM     20  C   UNL     1      34.517 -21.010 -19.724  0.00  0.00    +0.087 C 
ENDBRANCH  13  17
ENDBRANCH   9  12
ENDBRANCH   7   9
ENDBRANCH   3   7
BRANCH   2  21
ATOM     21  C   UNL     1      31.138 -10.915 -21.963  0.00  0.00    +0.152 C 
ATOM     22  C   UNL     1      30.286 -11.573 -20.902  0.00  0.00    +0.031 C 
BRANCH  21  26
ATOM     23  O   UNL     1      32.045  -6.358 -23.938  0.00  0.00    -0.350 OA
ATOM     24  O   UNL     1      32.449  -9.755 -20.365  0.00  0.00    -0.273 OA
ATOM     25  N   UNL     1      31.662  -8.513 -22.163  0.00  0.00    -0.273 N 
ATOM     26  C   UNL     1      31.809  -9.682 -21.418  0.00  0.00    +0.244 C 
ATOM     27  C   UNL     1      30.808  -8.360 -23.345  0.00  0.00    +0.126 C 
ATOM     28  C   UNL     1      32.286  -7.271 -21.708  0.00  0.00    +0.126 C 
ATOM     29  C   UNL     1      31.552  -7.605 -24.439  0.00  0.00    +0.164 C 
ATOM     30  C   UNL     1      32.971  -6.566 -22.869  0.00  0.00    +0.164 C 
ENDBRANCH  21  26
ENDBRANCH   2  21
TORSDOF 6
ENDMDL
MODEL 8
REMARK VINA RESULT:      -8.9      4.486      9.836
REMARK  Name = 10095865
REMARK  6 active torsions:
REMARK  status: ('A' for Active; 'I' for Inactive)
REMARK    1  A    between atoms: N_2  and  C_21
REMARK    2  A    between atoms: C_3  and  N_7
REMARK    3  A    between atoms: N_7  and  S_9
REMARK    4  A    between atoms: S_9  and  C_12
REMARK    5  A    between atoms: C_13  and  C_17
REMARK    6  A    between atoms: C_21  and  C_26
REMARK                            x       y       z     vdW  Elec       q    Type
REMARK                         _______ _______ _______ _____ _____    ______ ____
ROOT
ATOM      1  O   UNL     1      35.930 -20.918 -20.853  0.00  0.00    -0.273 OA
ATOM      2  N   UNL     1      34.612 -18.976 -21.038  0.00  0.00    -0.272 N 
ATOM      3  C   UNL     1      33.528 -20.983 -20.532  0.00  0.00    +0.153 C 
ATOM      4  C   UNL     1      32.499 -19.945 -20.967  0.00  0.00    +0.048 C 
ATOM      5  C   UNL     1      33.227 -18.618 -20.839  0.00  0.00    +0.096 C 
ATOM      6  C   UNL     1      34.855 -20.335 -20.838  0.00  0.00    +0.242 C 
ENDROOT
BRANCH   3   7
ATOM      7  N   UNL     1      33.487 -21.201 -19.075  0.00  0.00    -0.172 NA
ATOM      8  H   UNL     1      34.015 -20.445 -18.641  0.00  0.00    +0.149 HD
BRANCH   7   9
ATOM      9  S   UNL     1      34.111 -22.683 -18.459  0.00  0.00    +0.062 S 
ATOM     10  O   UNL     1      35.334 -22.392 -17.732  0.00  0.00    -0.153 OA
ATOM     11  O   UNL     1      34.139 -23.633 -19.558  0.00  0.00    -0.153 OA
BRANCH   9  12
ATOM     12  C   UNL     1      32.918 -23.223 -17.324  0.00  0.00    +0.137 C 
ATOM     13  C   UNL     1      33.208 -23.342 -16.011  0.00  0.00    +0.004 C 
ATOM     14  C   UNL     1      34.573 -23.043 -15.426  0.00  0.00    +0.033 C 
BRANCH  13  17
ATOM     15 CL   UNL     1      28.490 -25.456 -14.250  0.00  0.00    -0.075 Cl
ATOM     16  S   UNL     1      30.790 -24.540 -15.888  0.00  0.00    -0.076 S 
ATOM     17  C   UNL     1      32.116 -23.767 -15.165  0.00  0.00    +0.028 C 
ATOM     18  C   UNL     1      32.010 -23.624 -13.821  0.00  0.00    +0.008 C 
ATOM     19  C   UNL     1      30.783 -24.172 -13.345  0.00  0.00    +0.018 C 
ATOM     20  C   UNL     1      30.024 -24.702 -14.365  0.00  0.00    +0.087 C 
ENDBRANCH  13  17
ENDBRANCH   9  12
ENDBRANCH   7   9
ENDBRANCH   3   7
BRANCH   2  21
ATOM     21  C   UNL     1      35.629 -17.970 -21.257  0.00  0.00    +0.152 C 
ATOM     22  C   UNL     1      36.975 -18.575 -21.581  0.00  0.00    +0.031 C 
BRANCH  21  26
ATOM     23  O   UNL     1      32.862 -13.755 -21.536  0.00  0.00    -0.350 OA
ATOM     24  O   UNL     1      35.173 -17.634 -23.559  0.00  0.00    -0.273 OA
ATOM     25  N   UNL     1      34.585 -15.908 -22.120  0.00  0.00    -0.273 N 
ATOM     26  C   UNL     1      35.112 -17.163 -22.420  0.00  0.00    +0.244 C 
ATOM     27  C   UNL     1      34.614 -15.265 -20.802  0.00  0.00    +0.126 C 
ATOM     28  C   UNL     1      34.058 -15.061 -23.189  0.00  0.00    +0.126 C 
ATOM     29  C   UNL     1      33.258 -14.646 -20.488  0.00  0.00    +0.164 C 
ATOM     30  C   UNL     1      32.725 -14.454 -22.777  0.00  0.00    +0.164 C 
ENDBRANCH  21  26
ENDBRANCH   2  21
TORSDOF 6
ENDMDL
MODEL 9
REMARK VINA RESULT:      -8.8      8.535     13.296
REMARK  Name = 10095865
REMARK  6 active torsions:
REMARK  status: ('A' for Active; 'I' for Inactive)
REMARK    1  A    between atoms: N_2  and  C_21
REMARK    2  A    between atoms: C_3  and  N_7
REMARK    3  A    between atoms: N_7  and  S_9
REMARK    4  A    between atoms: S_9  and  C_12
REMARK    5  A    between atoms: C_13  and  C_17
REMARK    6  A    between atoms: C_21  and  C_26
REMARK                            x       y       z     vdW  Elec       q    Type
REMARK                         _______ _______ _______ _____ _____    ______ ____
ROOT
ATOM      1  O   UNL     1      32.087 -13.282 -22.353  0.00  0.00    -0.273 OA
ATOM      2  N   UNL     1      32.329 -11.003 -22.889  0.00  0.00    -0.272 N 
ATOM      3  C   UNL     1      33.706 -12.532 -23.994  0.00  0.00    +0.153 C 
ATOM      4  C   UNL     1      34.253 -11.122 -24.190  0.00  0.00    +0.048 C 
ATOM      5  C   UNL     1      33.089 -10.215 -23.832  0.00  0.00    +0.096 C 
ATOM      6  C   UNL     1      32.620 -12.365 -22.961  0.00  0.00    +0.242 C 
ENDROOT
BRANCH   3   7
ATOM      7  N   UNL     1      33.056 -13.031 -25.218  0.00  0.00    -0.172 NA
ATOM      8  H   UNL     1      32.050 -13.003 -25.059  0.00  0.00    +0.149 HD
BRANCH   7   9
ATOM      9  S   UNL     1      33.447 -14.620 -25.754  0.00  0.00    +0.062 S 
ATOM     10  O   UNL     1      34.612 -14.533 -26.617  0.00  0.00    -0.153 OA
ATOM     11  O   UNL     1      32.225 -15.221 -26.259  0.00  0.00    -0.153 OA
BRANCH   9  12
ATOM     12  C   UNL     1      33.898 -15.471 -24.314  0.00  0.00    +0.137 C 
ATOM     13  C   UNL     1      34.342 -16.745 -24.366  0.00  0.00    +0.004 C 
ATOM     14  C   UNL     1      34.464 -17.536 -25.652  0.00  0.00    +0.033 C 
BRANCH  13  17
ATOM     15 CL   UNL     1      35.692 -20.319 -20.463  0.00  0.00    -0.075 Cl
ATOM     16  S   UNL     1      34.918 -19.010 -23.013  0.00  0.00    -0.076 S 
ATOM     17  C   UNL     1      34.720 -17.328 -23.099  0.00  0.00    +0.028 C 
ATOM     18  C   UNL     1      34.946 -16.682 -21.928  0.00  0.00    +0.008 C 
ATOM     19  C   UNL     1      35.300 -17.602 -20.899  0.00  0.00    +0.018 C 
ATOM     20  C   UNL     1      35.322 -18.902 -21.352  0.00  0.00    +0.087 C 
ENDBRANCH  13  17
ENDBRANCH   9  12
ENDBRANCH   7   9
ENDBRANCH   3   7
BRANCH   2  21
ATOM     21  C   UNL     1      31.273 -10.416 -22.093  0.00  0.00    +0.152 C 
ATOM     22  C   UNL     1      30.839 -11.317 -20.961  0.00  0.00    +0.031 C 
BRANCH  21  26
ATOM     23  O   UNL     1      31.519  -5.720 -23.934  0.00  0.00    -0.350 OA
ATOM     24  O   UNL     1      32.617  -9.184 -20.578  0.00  0.00    -0.273 OA
ATOM     25  N   UNL     1      31.534  -7.966 -22.232  0.00  0.00    -0.273 N 
ATOM     26  C   UNL     1      31.871  -9.139 -21.559  0.00  0.00    +0.244 C 
ATOM     27  C   UNL     1      30.553  -7.859 -23.317  0.00  0.00    +0.126 C 
ATOM     28  C   UNL     1      32.074  -6.684 -21.782  0.00  0.00    +0.126 C 
ATOM     29  C   UNL     1      31.105  -6.993 -24.442  0.00  0.00    +0.164 C 
ATOM     30  C   UNL     1      32.565  -5.870 -22.970  0.00  0.00    +0.164 C 
ENDBRANCH  21  26
ENDBRANCH   2  21
TORSDOF 6
ENDMDL
