MODEL 1
REMARK VINA RESULT:      -7.0      0.000      0.000
REMARK  Name = 36604
REMARK  3 active torsions:
REMARK  status: ('A' for Active; 'I' for Inactive)
REMARK    1  A    between atoms: C_1  and  C_2
REMARK    2  A    between atoms: C_1  and  C_8
REMARK    3  A    between atoms: C_8  and  N_10
REMARK                            x       y       z     vdW  Elec       q    Type
REMARK                         _______ _______ _______ _____ _____    ______ ____
ROOT
ATOM      1  C   UNL     1      34.613 -18.013 -21.861  0.00  0.00    +0.005 C 
ENDROOT
BRANCH   1   2
ATOM      2  C   UNL     1      34.578 -19.281 -21.040  0.00  0.00    -0.024 C 
ATOM      3  C   UNL     1      35.771 -19.883 -20.672  0.00  0.00    -0.004 C 
ATOM      4  C   UNL     1      33.356 -19.817 -20.672  0.00  0.00    -0.004 C 
ATOM      5  C   UNL     1      35.739 -21.054 -19.914  0.00  0.00    -0.000 C 
ATOM      6  C   UNL     1      33.324 -20.988 -19.914  0.00  0.00    -0.000 C 
ATOM      7  C   UNL     1      34.515 -21.606 -19.535  0.00  0.00    -0.000 C 
ENDBRANCH   1   2
BRANCH   1   8
ATOM      8  C   UNL     1      35.401 -18.153 -23.177  0.00  0.00    -0.058 C 
ATOM      9  C   UNL     1      34.766 -19.160 -24.136  0.00  0.00    -0.023 C 
BRANCH   8  10
ATOM     10  N   UNL     1      35.464 -16.852 -23.850  0.00  0.00    +0.384 N 
ATOM     11  C   UNL     1      34.761 -16.899 -25.122  0.00  0.00    -0.106 C 
ATOM     12  H   UNL     1      36.441 -16.608 -24.016  0.00  0.00    -0.085 HD
ATOM     13  H   UNL     1      35.022 -16.152 -23.255  0.00  0.00    -0.085 HD
ENDBRANCH   8  10
ENDBRANCH   1   8
TORSDOF 3
ENDMDL
MODEL 2
REMARK VINA RESULT:      -7.0      0.041      1.458
REMARK  Name = 36604
REMARK  3 active torsions:
REMARK  status: ('A' for Active; 'I' for Inactive)
REMARK    1  A    between atoms: C_1  and  C_2
REMARK    2  A    between atoms: C_1  and  C_8
REMARK    3  A    between atoms: C_8  and  N_10
REMARK                            x       y       z     vdW  Elec       q    Type
REMARK                         _______ _______ _______ _____ _____    ______ ____
ROOT
ATOM      1  C   UNL     1      34.592 -18.053 -21.871  0.00  0.00    +0.005 C 
ENDROOT
BRANCH   1   2
ATOM      2  C   UNL     1      34.556 -19.312 -21.039  0.00  0.00    -0.024 C 
ATOM      3  C   UNL     1      33.332 -19.843 -20.663  0.00  0.00    -0.004 C 
ATOM      4  C   UNL     1      35.747 -19.913 -20.666  0.00  0.00    -0.004 C 
ATOM      5  C   UNL     1      33.299 -21.006 -19.893  0.00  0.00    -0.000 C 
ATOM      6  C   UNL     1      35.714 -21.076 -19.897  0.00  0.00    -0.000 C 
ATOM      7  C   UNL     1      34.490 -21.623 -19.511  0.00  0.00    -0.000 C 
ENDBRANCH   1   2
BRANCH   1   8
ATOM      8  C   UNL     1      35.408 -18.195 -23.169  0.00  0.00    -0.058 C 
ATOM      9  C   UNL     1      34.790 -19.198 -24.143  0.00  0.00    -0.023 C 
BRANCH   8  10
ATOM     10  N   UNL     1      35.493 -16.895 -23.840  0.00  0.00    +0.384 N 
ATOM     11  C   UNL     1      34.758 -16.916 -25.094  0.00  0.00    -0.106 C 
ATOM     12  H   UNL     1      36.472 -16.679 -24.029  0.00  0.00    -0.085 HD
ATOM     13  H   UNL     1      35.087 -16.185 -23.232  0.00  0.00    -0.085 HD
ENDBRANCH   8  10
ENDBRANCH   1   8
TORSDOF 3
ENDMDL
MODEL 3
REMARK VINA RESULT:      -6.8      1.019      1.997
REMARK  Name = 36604
REMARK  3 active torsions:
REMARK  status: ('A' for Active; 'I' for Inactive)
REMARK    1  A    between atoms: C_1  and  C_2
REMARK    2  A    between atoms: C_1  and  C_8
REMARK    3  A    between atoms: C_8  and  N_10
REMARK                            x       y       z     vdW  Elec       q    Type
REMARK                         _______ _______ _______ _____ _____    ______ ____
ROOT
ATOM      1  C   UNL     1      35.868 -18.567 -21.714  0.00  0.00    +0.005 C 
ENDROOT
BRANCH   1   2
ATOM      2  C   UNL     1      35.069 -19.588 -20.939  0.00  0.00    -0.024 C 
ATOM      3  C   UNL     1      33.685 -19.525 -20.962  0.00  0.00    -0.004 C 
ATOM      4  C   UNL     1      35.735 -20.568 -20.221  0.00  0.00    -0.004 C 
ATOM      5  C   UNL     1      32.947 -20.468 -20.246  0.00  0.00    -0.000 C 
ATOM      6  C   UNL     1      34.997 -21.511 -19.506  0.00  0.00    -0.000 C 
ATOM      7  C   UNL     1      33.602 -21.461 -19.518  0.00  0.00    -0.000 C 
ENDBRANCH   1   2
BRANCH   1   8
ATOM      8  C   UNL     1      35.011 -17.429 -22.299  0.00  0.00    -0.058 C 
ATOM      9  C   UNL     1      34.816 -16.277 -21.314  0.00  0.00    -0.023 C 
BRANCH   8  10
ATOM     10  N   UNL     1      35.656 -16.901 -23.505  0.00  0.00    +0.384 N 
ATOM     11  C   UNL     1      34.672 -16.660 -24.547  0.00  0.00    -0.106 C 
ATOM     12  H   UNL     1      36.342 -17.577 -23.841  0.00  0.00    -0.085 HD
ATOM     13  H   UNL     1      36.114 -16.020 -23.273  0.00  0.00    -0.085 HD
ENDBRANCH   8  10
ENDBRANCH   1   8
TORSDOF 3
ENDMDL
MODEL 4
REMARK VINA RESULT:      -6.4      1.627      2.598
REMARK  Name = 36604
REMARK  3 active torsions:
REMARK  status: ('A' for Active; 'I' for Inactive)
REMARK    1  A    between atoms: C_1  and  C_2
REMARK    2  A    between atoms: C_1  and  C_8
REMARK    3  A    between atoms: C_8  and  N_10
REMARK                            x       y       z     vdW  Elec       q    Type
REMARK                         _______ _______ _______ _____ _____    ______ ____
ROOT
ATOM      1  C   UNL     1      34.717 -17.767 -22.152  0.00  0.00    +0.005 C 
ENDROOT
BRANCH   1   2
ATOM      2  C   UNL     1      34.544 -18.995 -21.289  0.00  0.00    -0.024 C 
ATOM      3  C   UNL     1      33.267 -19.397 -20.931  0.00  0.00    -0.004 C 
ATOM      4  C   UNL     1      35.664 -19.694 -20.872  0.00  0.00    -0.004 C 
ATOM      5  C   UNL     1      33.107 -20.531 -20.135  0.00  0.00    -0.000 C 
ATOM      6  C   UNL     1      35.505 -20.828 -20.075  0.00  0.00    -0.000 C 
ATOM      7  C   UNL     1      34.226 -21.247 -19.707  0.00  0.00    -0.000 C 
ENDBRANCH   1   2
BRANCH   1   8
ATOM      8  C   UNL     1      33.912 -16.550 -21.659  0.00  0.00    -0.058 C 
ATOM      9  C   UNL     1      34.649 -15.759 -20.578  0.00  0.00    -0.023 C 
BRANCH   8  10
ATOM     10  N   UNL     1      33.645 -15.651 -22.786  0.00  0.00    +0.384 N 
ATOM     11  C   UNL     1      34.388 -14.411 -22.639  0.00  0.00    -0.106 C 
ATOM     12  H   UNL     1      32.646 -15.442 -22.818  0.00  0.00    -0.085 HD
ATOM     13  H   UNL     1      33.936 -16.110 -23.649  0.00  0.00    -0.085 HD
ENDBRANCH   8  10
ENDBRANCH   1   8
TORSDOF 3
ENDMDL
MODEL 5
REMARK VINA RESULT:      -6.3      1.804      4.934
REMARK  Name = 36604
REMARK  3 active torsions:
REMARK  status: ('A' for Active; 'I' for Inactive)
REMARK    1  A    between atoms: C_1  and  C_2
REMARK    2  A    between atoms: C_1  and  C_8
REMARK    3  A    between atoms: C_8  and  N_10
REMARK                            x       y       z     vdW  Elec       q    Type
REMARK                         _______ _______ _______ _____ _____    ______ ____
ROOT
ATOM      1  C   UNL     1      35.170 -18.607 -21.103  0.00  0.00    +0.005 C 
ENDROOT
BRANCH   1   2
ATOM      2  C   UNL     1      34.970 -18.114 -22.517  0.00  0.00    -0.024 C 
ATOM      3  C   UNL     1      34.698 -19.029 -23.522  0.00  0.00    -0.004 C 
ATOM      4  C   UNL     1      35.063 -16.758 -22.782  0.00  0.00    -0.004 C 
ATOM      5  C   UNL     1      34.514 -18.574 -24.827  0.00  0.00    -0.000 C 
ATOM      6  C   UNL     1      34.879 -16.303 -24.087  0.00  0.00    -0.000 C 
ATOM      7  C   UNL     1      34.603 -17.211 -25.110  0.00  0.00    -0.000 C 
ENDBRANCH   1   2
BRANCH   1   8
ATOM      8  C   UNL     1      34.876 -20.109 -20.927  0.00  0.00    -0.058 C 
ATOM      9  C   UNL     1      35.921 -20.813 -20.062  0.00  0.00    -0.023 C 
BRANCH   8  10
ATOM     10  N   UNL     1      33.565 -20.280 -20.295  0.00  0.00    +0.384 N 
ATOM     11  C   UNL     1      33.541 -21.486 -19.484  0.00  0.00    -0.106 C 
ATOM     12  H   UNL     1      32.850 -20.349 -21.020  0.00  0.00    -0.085 HD
ATOM     13  H   UNL     1      33.381 -19.476 -19.695  0.00  0.00    -0.085 HD
ENDBRANCH   8  10
ENDBRANCH   1   8
TORSDOF 3
ENDMDL
MODEL 6
REMARK VINA RESULT:      -6.1      3.856      6.518
REMARK  Name = 36604
REMARK  3 active torsions:
REMARK  status: ('A' for Active; 'I' for Inactive)
REMARK    1  A    between atoms: C_1  and  C_2
REMARK    2  A    between atoms: C_1  and  C_8
REMARK    3  A    between atoms: C_8  and  N_10
REMARK                            x       y       z     vdW  Elec       q    Type
REMARK                         _______ _______ _______ _____ _____    ______ ____
ROOT
ATOM      1  C   UNL     1      33.743 -23.247 -18.436  0.00  0.00    +0.005 C 
ENDROOT
BRANCH   1   2
ATOM      2  C   UNL     1      34.128 -22.035 -19.251  0.00  0.00    -0.024 C 
ATOM      3  C   UNL     1      33.133 -21.214 -19.757  0.00  0.00    -0.004 C 
ATOM      4  C   UNL     1      35.468 -21.768 -19.477  0.00  0.00    -0.004 C 
ATOM      5  C   UNL     1      33.489 -20.095 -20.510  0.00  0.00    -0.000 C 
ATOM      6  C   UNL     1      35.824 -20.649 -20.230  0.00  0.00    -0.000 C 
ATOM      7  C   UNL     1      34.834 -19.812 -20.746  0.00  0.00    -0.000 C 
ENDBRANCH   1   2
BRANCH   1   8
ATOM      8  C   UNL     1      33.429 -22.925 -16.964  0.00  0.00    -0.058 C 
ATOM      9  C   UNL     1      31.983 -23.250 -16.588  0.00  0.00    -0.023 C 
BRANCH   8  10
ATOM     10  N   UNL     1      34.317 -23.700 -16.093  0.00  0.00    +0.384 N 
ATOM     11  C   UNL     1      35.511 -22.936 -15.770  0.00  0.00    -0.106 C 
ATOM     12  H   UNL     1      34.588 -24.560 -16.570  0.00  0.00    -0.085 HD
ATOM     13  H   UNL     1      33.821 -23.918 -15.228  0.00  0.00    -0.085 HD
ENDBRANCH   8  10
ENDBRANCH   1   8
TORSDOF 3
ENDMDL
MODEL 7
REMARK VINA RESULT:      -6.0      2.879      4.652
REMARK  Name = 36604
REMARK  3 active torsions:
REMARK  status: ('A' for Active; 'I' for Inactive)
REMARK    1  A    between atoms: C_1  and  C_2
REMARK    2  A    between atoms: C_1  and  C_8
REMARK    3  A    between atoms: C_8  and  N_10
REMARK                            x       y       z     vdW  Elec       q    Type
REMARK                         _______ _______ _______ _____ _____    ______ ____
ROOT
ATOM      1  C   UNL     1      34.412 -15.024 -22.756  0.00  0.00    +0.005 C 
ENDROOT
BRANCH   1   2
ATOM      2  C   UNL     1      34.556 -16.440 -23.264  0.00  0.00    -0.024 C 
ATOM      3  C   UNL     1      34.422 -16.690 -24.620  0.00  0.00    -0.004 C 
ATOM      4  C   UNL     1      34.818 -17.460 -22.364  0.00  0.00    -0.004 C 
ATOM      5  C   UNL     1      34.554 -17.998 -25.089  0.00  0.00    -0.000 C 
ATOM      6  C   UNL     1      34.950 -18.767 -22.833  0.00  0.00    -0.000 C 
ATOM      7  C   UNL     1      34.818 -19.036 -24.196  0.00  0.00    -0.000 C 
ENDBRANCH   1   2
BRANCH   1   8
ATOM      8  C   UNL     1      32.982 -14.674 -22.303  0.00  0.00    -0.058 C 
ATOM      9  C   UNL     1      32.849 -14.609 -20.782  0.00  0.00    -0.023 C 
BRANCH   8  10
ATOM     10  N   UNL     1      32.599 -13.372 -22.856  0.00  0.00    +0.384 N 
ATOM     11  C   UNL     1      33.628 -12.874 -23.753  0.00  0.00    -0.106 C 
ATOM     12  H   UNL     1      32.470 -12.709 -22.091  0.00  0.00    -0.085 HD
ATOM     13  H   UNL     1      31.730 -13.480 -23.379  0.00  0.00    -0.085 HD
ENDBRANCH   8  10
ENDBRANCH   1   8
TORSDOF 3
ENDMDL
MODEL 8
REMARK VINA RESULT:      -5.9      2.303      4.907
REMARK  Name = 36604
REMARK  3 active torsions:
REMARK  status: ('A' for Active; 'I' for Inactive)
REMARK    1  A    between atoms: C_1  and  C_2
REMARK    2  A    between atoms: C_1  and  C_8
REMARK    3  A    between atoms: C_8  and  N_10
REMARK                            x       y       z     vdW  Elec       q    Type
REMARK                         _______ _______ _______ _____ _____    ______ ____
ROOT
ATOM      1  C   UNL     1      35.514 -20.146 -20.907  0.00  0.00    +0.005 C 
ENDROOT
BRANCH   1   2
ATOM      2  C   UNL     1      35.238 -18.911 -21.731  0.00  0.00    -0.024 C 
ATOM      3  C   UNL     1      35.158 -17.679 -21.102  0.00  0.00    -0.004 C 
ATOM      4  C   UNL     1      35.071 -19.033 -23.101  0.00  0.00    -0.004 C 
ATOM      5  C   UNL     1      34.903 -16.539 -21.863  0.00  0.00    -0.000 C 
ATOM      6  C   UNL     1      34.816 -17.893 -23.862  0.00  0.00    -0.000 C 
ATOM      7  C   UNL     1      34.733 -16.645 -23.244  0.00  0.00    -0.000 C 
ENDBRANCH   1   2
BRANCH   1   8
ATOM      8  C   UNL     1      34.352 -20.536 -19.974  0.00  0.00    -0.058 C 
ATOM      9  C   UNL     1      32.987 -20.393 -20.646  0.00  0.00    -0.023 C 
BRANCH   8  10
ATOM     10  N   UNL     1      34.512 -21.929 -19.548  0.00  0.00    +0.384 N 
ATOM     11  C   UNL     1      33.429 -22.321 -18.661  0.00  0.00    -0.106 C 
ATOM     12  H   UNL     1      35.401 -22.030 -19.057  0.00  0.00    -0.085 HD
ATOM     13  H   UNL     1      34.495 -22.529 -20.373  0.00  0.00    -0.085 HD
ENDBRANCH   8  10
ENDBRANCH   1   8
TORSDOF 3
ENDMDL
MODEL 9
REMARK VINA RESULT:      -5.9      2.909      5.278
REMARK  Name = 36604
REMARK  3 active torsions:
REMARK  status: ('A' for Active; 'I' for Inactive)
REMARK    1  A    between atoms: C_1  and  C_2
REMARK    2  A    between atoms: C_1  and  C_8
REMARK    3  A    between atoms: C_8  and  N_10
REMARK                            x       y       z     vdW  Elec       q    Type
REMARK                         _______ _______ _______ _____ _____    ______ ____
ROOT
ATOM      1  C   UNL     1      35.033 -17.308 -21.241  0.00  0.00    +0.005 C 
ENDROOT
BRANCH   1   2
ATOM      2  C   UNL     1      34.315 -16.033 -21.617  0.00  0.00    -0.024 C 
ATOM      3  C   UNL     1      33.318 -15.545 -20.786  0.00  0.00    -0.004 C 
ATOM      4  C   UNL     1      34.666 -15.376 -22.784  0.00  0.00    -0.004 C 
ATOM      5  C   UNL     1      32.655 -14.368 -21.134  0.00  0.00    -0.000 C 
ATOM      6  C   UNL     1      34.003 -14.199 -23.132  0.00  0.00    -0.000 C 
ATOM      7  C   UNL     1      32.998 -13.695 -22.307  0.00  0.00    -0.000 C 
ENDBRANCH   1   2
BRANCH   1   8
ATOM      8  C   UNL     1      34.331 -18.582 -21.746  0.00  0.00    -0.058 C 
ATOM      9  C   UNL     1      34.967 -19.134 -23.022  0.00  0.00    -0.023 C 
BRANCH   8  10
ATOM     10  N   UNL     1      34.395 -19.619 -20.713  0.00  0.00    +0.384 N 
ATOM     11  C   UNL     1      33.075 -20.175 -20.464  0.00  0.00    -0.106 C 
ATOM     12  H   UNL     1      34.755 -19.211 -19.850  0.00  0.00    -0.085 HD
ATOM     13  H   UNL     1      35.011 -20.365 -21.034  0.00  0.00    -0.085 HD
ENDBRANCH   8  10
ENDBRANCH   1   8
TORSDOF 3
ENDMDL
