MODEL 1
REMARK VINA RESULT:     -12.5      0.000      0.000
REMARK  Name = 11633167
REMARK  7 active torsions:
REMARK  status: ('A' for Active; 'I' for Inactive)
REMARK    1  A    between atoms: C_1  and  C_8
REMARK    2  A    between atoms: C_2  and  C_25
REMARK    3  A    between atoms: C_4  and  O_17
REMARK    4  A    between atoms: O_17  and  C_18
REMARK    5  A    between atoms: C_18  and  C_20
REMARK    6  A    between atoms: C_25  and  N_26
REMARK    7  A    between atoms: N_26  and  C_29
REMARK                            x       y       z     vdW  Elec       q    Type
REMARK                         _______ _______ _______ _____ _____    ______ ____
ROOT
ATOM      1  C   UNL     1      35.245 -20.193 -20.396  0.00  0.00    -0.000 C 
ATOM      2  C   UNL     1      34.320 -21.842 -18.894  0.00  0.00    +0.031 C 
ATOM      3  C   UNL     1      34.151 -20.920 -19.927  0.00  0.00    +0.000 C 
ATOM      4  C   UNL     1      35.581 -22.036 -18.331  0.00  0.00    +0.137 C 
ATOM      5  C   UNL     1      36.505 -20.386 -19.834  0.00  0.00    +0.003 C 
ATOM      6  C   UNL     1      36.674 -21.309 -18.801  0.00  0.00    +0.037 C 
ENDROOT
BRANCH   1   8
ATOM      7  N   UNL     1      34.694 -15.611 -22.231  0.00  0.00    -0.312 N 
ATOM      8  C   UNL     1      35.070 -19.235 -21.468  0.00  0.00    +0.001 C 
ATOM      9  C   UNL     1      34.812 -16.982 -22.229  0.00  0.00    +0.048 C 
ATOM     10  C   UNL     1      34.734 -17.402 -23.559  0.00  0.00    +0.015 C 
ATOM     11  C   UNL     1      34.980 -17.874 -21.163  0.00  0.00    +0.015 C 
ATOM     12  C   UNL     1      34.997 -19.683 -22.785  0.00  0.00    +0.000 C 
ATOM     13  C   UNL     1      34.828 -18.780 -23.841  0.00  0.00    +0.001 C 
ATOM     14  C   UNL     1      34.568 -16.237 -24.357  0.00  0.00    +0.017 C 
ATOM     15  C   UNL     1      34.546 -15.150 -23.512  0.00  0.00    +0.062 C 
ATOM     16  H   UNL     1      34.714 -15.042 -21.427  0.00  0.00    +0.152 HD
ENDBRANCH   1   8
BRANCH   4  17
ATOM     17  O   UNL     1      35.763 -22.932 -17.322  0.00  0.00    -0.469 OA
BRANCH  17  18
ATOM     18  C   UNL     1      36.725 -22.598 -16.323  0.00  0.00    +0.251 C 
BRANCH  18  20
ATOM     19  N   UNL     1      36.166 -24.804 -15.498  0.00  0.00    -0.244 NA
ATOM     20  C   UNL     1      37.107 -23.841 -15.575  0.00  0.00    +0.103 C 
ATOM     21  C   UNL     1      38.368 -23.930 -15.020  0.00  0.00    +0.018 C 
ATOM     22  C   UNL     1      38.690 -25.095 -14.333  0.00  0.00    +0.003 C 
ATOM     23  C   UNL     1      36.515 -25.922 -14.823  0.00  0.00    +0.099 C 
ATOM     24  C   UNL     1      37.751 -26.116 -14.228  0.00  0.00    +0.021 C 
ENDBRANCH  18  20
ENDBRANCH  17  18
ENDBRANCH   4  17
BRANCH   2  25
ATOM     25  C   UNL     1      33.139 -22.613 -18.403  0.00  0.00    +0.117 C 
BRANCH  25  26
ATOM     26  N   UNL     1      33.316 -23.085 -17.030  0.00  0.00    -0.327 N 
ATOM     27  H   UNL     1      34.209 -23.388 -16.748  0.00  0.00    +0.147 HD
BRANCH  26  29
ATOM     28  N   UNL     1      31.517 -23.274 -13.797  0.00  0.00    -0.228 NA
ATOM     29  C   UNL     1      32.291 -23.127 -16.113  0.00  0.00    +0.077 C 
ATOM     30  C   UNL     1      32.496 -23.230 -14.728  0.00  0.00    +0.139 C 
ATOM     31  C   UNL     1      30.948 -23.067 -16.527  0.00  0.00    +0.019 C 
ATOM     32  C   UNL     1      29.913 -23.109 -15.599  0.00  0.00    +0.022 C 
ATOM     33  C   UNL     1      30.248 -23.212 -14.258  0.00  0.00    +0.100 C 
ATOM     34  N   UNL     1      33.839 -23.294 -14.276  0.00  0.00    -0.342 N 
ATOM     35  H   UNL     1      34.030 -23.366 -13.313  0.00  0.00    +0.144 HD
ATOM     36  H   UNL     1      34.579 -23.265 -14.925  0.00  0.00    +0.144 HD
ENDBRANCH  26  29
ENDBRANCH  25  26
ENDBRANCH   2  25
TORSDOF 7
ENDMDL
MODEL 2
REMARK VINA RESULT:     -12.4      1.001      1.541
REMARK  Name = 11633167
REMARK  7 active torsions:
REMARK  status: ('A' for Active; 'I' for Inactive)
REMARK    1  A    between atoms: C_1  and  C_8
REMARK    2  A    between atoms: C_2  and  C_25
REMARK    3  A    between atoms: C_4  and  O_17
REMARK    4  A    between atoms: O_17  and  C_18
REMARK    5  A    between atoms: C_18  and  C_20
REMARK    6  A    between atoms: C_25  and  N_26
REMARK    7  A    between atoms: N_26  and  C_29
REMARK                            x       y       z     vdW  Elec       q    Type
REMARK                         _______ _______ _______ _____ _____    ______ ____
ROOT
ATOM      1  C   UNL     1      35.284 -20.326 -20.289  0.00  0.00    -0.000 C 
ATOM      2  C   UNL     1      34.418 -22.099 -18.897  0.00  0.00    +0.031 C 
ATOM      3  C   UNL     1      34.247 -21.192 -19.944  0.00  0.00    +0.000 C 
ATOM      4  C   UNL     1      35.623 -22.138 -18.198  0.00  0.00    +0.137 C 
ATOM      5  C   UNL     1      36.489 -20.364 -19.590  0.00  0.00    +0.003 C 
ATOM      6  C   UNL     1      36.660 -21.271 -18.544  0.00  0.00    +0.037 C 
ENDROOT
BRANCH   1   8
ATOM      7  N   UNL     1      34.795 -15.767 -22.197  0.00  0.00    -0.312 N 
ATOM      8  C   UNL     1      35.107 -19.384 -21.375  0.00  0.00    +0.001 C 
ATOM      9  C   UNL     1      34.882 -17.140 -22.173  0.00  0.00    +0.048 C 
ATOM     10  C   UNL     1      34.767 -17.583 -23.493  0.00  0.00    +0.015 C 
ATOM     11  C   UNL     1      35.053 -18.016 -21.094  0.00  0.00    +0.015 C 
ATOM     12  C   UNL     1      34.996 -19.855 -22.681  0.00  0.00    +0.000 C 
ATOM     13  C   UNL     1      34.824 -18.967 -23.750  0.00  0.00    +0.001 C 
ATOM     14  C   UNL     1      34.609 -16.428 -24.308  0.00  0.00    +0.017 C 
ATOM     15  C   UNL     1      34.629 -15.327 -23.484  0.00  0.00    +0.062 C 
ATOM     16  H   UNL     1      34.844 -15.184 -21.405  0.00  0.00    +0.152 HD
ENDBRANCH   1   8
BRANCH   4  17
ATOM     17  O   UNL     1      35.806 -23.017 -17.173  0.00  0.00    -0.469 OA
BRANCH  17  18
ATOM     18  C   UNL     1      36.675 -22.610 -16.117  0.00  0.00    +0.251 C 
BRANCH  18  20
ATOM     19  N   UNL     1      38.483 -23.871 -15.117  0.00  0.00    -0.244 NA
ATOM     20  C   UNL     1      37.163 -23.828 -15.389  0.00  0.00    +0.103 C 
ATOM     21  C   UNL     1      36.258 -24.812 -15.043  0.00  0.00    +0.018 C 
ATOM     22  C   UNL     1      36.743 -25.926 -14.369  0.00  0.00    +0.003 C 
ATOM     23  C   UNL     1      38.918 -24.970 -14.461  0.00  0.00    +0.099 C 
ATOM     24  C   UNL     1      38.098 -26.015 -14.068  0.00  0.00    +0.021 C 
ENDBRANCH  18  20
ENDBRANCH  17  18
ENDBRANCH   4  17
BRANCH   2  25
ATOM     25  C   UNL     1      33.299 -23.020 -18.540  0.00  0.00    +0.117 C 
BRANCH  25  26
ATOM     26  N   UNL     1      32.321 -22.389 -17.653  0.00  0.00    -0.327 N 
ATOM     27  H   UNL     1      31.924 -21.530 -17.926  0.00  0.00    +0.147 HD
BRANCH  26  29
ATOM     28  N   UNL     1      30.163 -23.629 -14.910  0.00  0.00    -0.228 NA
ATOM     29  C   UNL     1      31.929 -22.939 -16.455  0.00  0.00    +0.077 C 
ATOM     30  C   UNL     1      30.587 -23.095 -16.077  0.00  0.00    +0.139 C 
ATOM     31  C   UNL     1      32.881 -23.386 -15.520  0.00  0.00    +0.019 C 
ATOM     32  C   UNL     1      32.484 -23.942 -14.308  0.00  0.00    +0.022 C 
ATOM     33  C   UNL     1      31.125 -24.040 -14.054  0.00  0.00    +0.100 C 
ATOM     34  N   UNL     1      29.601 -22.654 -16.996  0.00  0.00    -0.342 N 
ATOM     35  H   UNL     1      28.646 -22.744 -16.774  0.00  0.00    +0.144 HD
ATOM     36  H   UNL     1      29.872 -22.259 -17.857  0.00  0.00    +0.144 HD
ENDBRANCH  26  29
ENDBRANCH  25  26
ENDBRANCH   2  25
TORSDOF 7
ENDMDL
MODEL 3
REMARK VINA RESULT:     -12.2      1.088      4.268
REMARK  Name = 11633167
REMARK  7 active torsions:
REMARK  status: ('A' for Active; 'I' for Inactive)
REMARK    1  A    between atoms: C_1  and  C_8
REMARK    2  A    between atoms: C_2  and  C_25
REMARK    3  A    between atoms: C_4  and  O_17
REMARK    4  A    between atoms: O_17  and  C_18
REMARK    5  A    between atoms: C_18  and  C_20
REMARK    6  A    between atoms: C_25  and  N_26
REMARK    7  A    between atoms: N_26  and  C_29
REMARK                            x       y       z     vdW  Elec       q    Type
REMARK                         _______ _______ _______ _____ _____    ______ ____
ROOT
ATOM      1  C   UNL     1      34.540 -20.127 -20.541  0.00  0.00    -0.000 C 
ATOM      2  C   UNL     1      35.619 -21.522 -18.891  0.00  0.00    +0.031 C 
ATOM      3  C   UNL     1      35.699 -20.556 -19.894  0.00  0.00    +0.000 C 
ATOM      4  C   UNL     1      34.382 -22.058 -18.535  0.00  0.00    +0.137 C 
ATOM      5  C   UNL     1      33.303 -20.662 -20.186  0.00  0.00    +0.003 C 
ATOM      6  C   UNL     1      33.223 -21.628 -19.181  0.00  0.00    +0.037 C 
ENDROOT
BRANCH   1   8
ATOM      7  N   UNL     1      34.326 -15.479 -22.277  0.00  0.00    -0.312 N 
ATOM      8  C   UNL     1      34.622 -19.125 -21.582  0.00  0.00    +0.001 C 
ATOM      9  C   UNL     1      34.491 -16.846 -22.297  0.00  0.00    +0.048 C 
ATOM     10  C   UNL     1      34.787 -17.204 -23.615  0.00  0.00    +0.015 C 
ATOM     11  C   UNL     1      34.402 -17.782 -21.261  0.00  0.00    +0.015 C 
ATOM     12  C   UNL     1      34.919 -19.512 -22.887  0.00  0.00    +0.000 C 
ATOM     13  C   UNL     1      35.004 -18.564 -23.914  0.00  0.00    +0.001 C 
ATOM     14  C   UNL     1      34.795 -16.007 -24.382  0.00  0.00    +0.017 C 
ATOM     15  C   UNL     1      34.507 -14.963 -23.533  0.00  0.00    +0.062 C 
ATOM     16  H   UNL     1      34.109 -14.949 -21.476  0.00  0.00    +0.152 HD
ENDBRANCH   1   8
BRANCH   4  17
ATOM     17  O   UNL     1      34.286 -23.002 -17.558  0.00  0.00    -0.469 OA
BRANCH  17  18
ATOM     18  C   UNL     1      33.143 -23.854 -17.589  0.00  0.00    +0.251 C 
BRANCH  18  20
ATOM     19  N   UNL     1      32.841 -24.123 -15.202  0.00  0.00    -0.244 NA
ATOM     20  C   UNL     1      32.331 -23.628 -16.348  0.00  0.00    +0.103 C 
ATOM     21  C   UNL     1      31.135 -22.943 -16.442  0.00  0.00    +0.018 C 
ATOM     22  C   UNL     1      30.407 -22.752 -15.274  0.00  0.00    +0.003 C 
ATOM     23  C   UNL     1      32.106 -23.918 -14.087  0.00  0.00    +0.099 C 
ATOM     24  C   UNL     1      30.894 -23.245 -14.069  0.00  0.00    +0.021 C 
ENDBRANCH  18  20
ENDBRANCH  17  18
ENDBRANCH   4  17
BRANCH   2  25
ATOM     25  C   UNL     1      36.869 -21.971 -18.209  0.00  0.00    +0.117 C 
BRANCH  25  26
ATOM     26  N   UNL     1      36.828 -21.738 -16.765  0.00  0.00    -0.327 N 
ATOM     27  H   UNL     1      36.556 -20.850 -16.439  0.00  0.00    +0.147 HD
BRANCH  26  29
ATOM     28  N   UNL     1      36.605 -23.997 -13.838  0.00  0.00    -0.228 NA
ATOM     29  C   UNL     1      37.153 -22.702 -15.839  0.00  0.00    +0.077 C 
ATOM     30  C   UNL     1      36.321 -23.056 -14.767  0.00  0.00    +0.139 C 
ATOM     31  C   UNL     1      38.370 -23.403 -15.923  0.00  0.00    +0.019 C 
ATOM     32  C   UNL     1      38.698 -24.378 -14.986  0.00  0.00    +0.022 C 
ATOM     33  C   UNL     1      37.789 -24.635 -13.973  0.00  0.00    +0.100 C 
ATOM     34  N   UNL     1      35.086 -22.369 -14.652  0.00  0.00    -0.342 N 
ATOM     35  H   UNL     1      34.470 -22.585 -13.915  0.00  0.00    +0.144 HD
ATOM     36  H   UNL     1      34.844 -21.677 -15.309  0.00  0.00    +0.144 HD
ENDBRANCH  26  29
ENDBRANCH  25  26
ENDBRANCH   2  25
TORSDOF 7
ENDMDL
MODEL 4
REMARK VINA RESULT:     -11.9      1.606      4.929
REMARK  Name = 11633167
REMARK  7 active torsions:
REMARK  status: ('A' for Active; 'I' for Inactive)
REMARK    1  A    between atoms: C_1  and  C_8
REMARK    2  A    between atoms: C_2  and  C_25
REMARK    3  A    between atoms: C_4  and  O_17
REMARK    4  A    between atoms: O_17  and  C_18
REMARK    5  A    between atoms: C_18  and  C_20
REMARK    6  A    between atoms: C_25  and  N_26
REMARK    7  A    between atoms: N_26  and  C_29
REMARK                            x       y       z     vdW  Elec       q    Type
REMARK                         _______ _______ _______ _____ _____    ______ ____
ROOT
ATOM      1  C   UNL     1      35.143 -21.456 -19.002  0.00  0.00    -0.000 C 
ATOM      2  C   UNL     1      35.801 -22.501 -16.926  0.00  0.00    +0.031 C 
ATOM      3  C   UNL     1      36.079 -21.634 -17.983  0.00  0.00    +0.000 C 
ATOM      4  C   UNL     1      34.589 -23.189 -16.889  0.00  0.00    +0.137 C 
ATOM      5  C   UNL     1      33.931 -22.143 -18.965  0.00  0.00    +0.003 C 
ATOM      6  C   UNL     1      33.653 -23.010 -17.907  0.00  0.00    +0.037 C 
ENDROOT
BRANCH   1   8
ATOM      7  N   UNL     1      33.989 -18.966 -23.140  0.00  0.00    -0.312 N 
ATOM      8  C   UNL     1      35.431 -20.557 -20.099  0.00  0.00    +0.001 C 
ATOM      9  C   UNL     1      34.755 -19.410 -22.087  0.00  0.00    +0.048 C 
ATOM     10  C   UNL     1      36.012 -18.813 -22.213  0.00  0.00    +0.015 C 
ATOM     11  C   UNL     1      34.436 -20.285 -21.042  0.00  0.00    +0.015 C 
ATOM     12  C   UNL     1      36.693 -19.977 -20.199  0.00  0.00    +0.000 C 
ATOM     13  C   UNL     1      37.000 -19.103 -21.250  0.00  0.00    +0.001 C 
ATOM     14  C   UNL     1      35.972 -17.996 -23.376  0.00  0.00    +0.017 C 
ATOM     15  C   UNL     1      34.716 -18.111 -23.926  0.00  0.00    +0.062 C 
ATOM     16  H   UNL     1      33.054 -19.225 -23.306  0.00  0.00    +0.152 HD
ENDBRANCH   1   8
BRANCH   4  17
ATOM     17  O   UNL     1      34.301 -24.039 -15.864  0.00  0.00    -0.469 OA
BRANCH  17  18
ATOM     18  C   UNL     1      33.701 -23.474 -14.701  0.00  0.00    +0.251 C 
BRANCH  18  20
ATOM     19  N   UNL     1      31.889 -25.030 -14.304  0.00  0.00    -0.244 NA
ATOM     20  C   UNL     1      32.234 -23.789 -14.704  0.00  0.00    +0.103 C 
ATOM     21  C   UNL     1      31.339 -22.817 -15.104  0.00  0.00    +0.018 C 
ATOM     22  C   UNL     1      29.987 -23.141 -15.096  0.00  0.00    +0.003 C 
ATOM     23  C   UNL     1      30.567 -25.309 -14.308  0.00  0.00    +0.099 C 
ATOM     24  C   UNL     1      29.585 -24.409 -14.691  0.00  0.00    +0.021 C 
ENDBRANCH  18  20
ENDBRANCH  17  18
ENDBRANCH   4  17
BRANCH   2  25
ATOM     25  C   UNL     1      36.813 -22.681 -15.844  0.00  0.00    +0.117 C 
BRANCH  25  26
ATOM     26  N   UNL     1      37.232 -24.076 -15.701  0.00  0.00    -0.327 N 
ATOM     27  H   UNL     1      37.439 -24.590 -16.514  0.00  0.00    +0.147 HD
BRANCH  26  29
ATOM     28  N   UNL     1      36.913 -26.619 -13.027  0.00  0.00    -0.228 NA
ATOM     29  C   UNL     1      37.351 -24.703 -14.482  0.00  0.00    +0.077 C 
ATOM     30  C   UNL     1      36.818 -25.971 -14.210  0.00  0.00    +0.139 C 
ATOM     31  C   UNL     1      38.033 -24.087 -13.417  0.00  0.00    +0.019 C 
ATOM     32  C   UNL     1      38.153 -24.722 -12.185  0.00  0.00    +0.022 C 
ATOM     33  C   UNL     1      37.580 -25.976 -12.043  0.00  0.00    +0.100 C 
ATOM     34  N   UNL     1      36.123 -26.620 -15.262  0.00  0.00    -0.342 N 
ATOM     35  H   UNL     1      35.732 -27.512 -15.116  0.00  0.00    +0.144 HD
ATOM     36  H   UNL     1      36.032 -26.179 -16.138  0.00  0.00    +0.144 HD
ENDBRANCH  26  29
ENDBRANCH  25  26
ENDBRANCH   2  25
TORSDOF 7
ENDMDL
MODEL 5
REMARK VINA RESULT:     -11.8      2.513      9.158
REMARK  Name = 11633167
REMARK  7 active torsions:
REMARK  status: ('A' for Active; 'I' for Inactive)
REMARK    1  A    between atoms: C_1  and  C_8
REMARK    2  A    between atoms: C_2  and  C_25
REMARK    3  A    between atoms: C_4  and  O_17
REMARK    4  A    between atoms: O_17  and  C_18
REMARK    5  A    between atoms: C_18  and  C_20
REMARK    6  A    between atoms: C_25  and  N_26
REMARK    7  A    between atoms: N_26  and  C_29
REMARK                            x       y       z     vdW  Elec       q    Type
REMARK                         _______ _______ _______ _____ _____    ______ ____
ROOT
ATOM      1  C   UNL     1      34.613 -24.051 -14.780  0.00  0.00    -0.000 C 
ATOM      2  C   UNL     1      33.138 -23.215 -16.499  0.00  0.00    +0.031 C 
ATOM      3  C   UNL     1      34.398 -23.663 -16.102  0.00  0.00    +0.000 C 
ATOM      4  C   UNL     1      32.096 -23.154 -15.575  0.00  0.00    +0.137 C 
ATOM      5  C   UNL     1      33.572 -23.991 -13.856  0.00  0.00    +0.003 C 
ATOM      6  C   UNL     1      32.312 -23.544 -14.253  0.00  0.00    +0.037 C 
ENDROOT
BRANCH   1   8
ATOM      7  N   UNL     1      39.455 -24.918 -15.466  0.00  0.00    -0.312 N 
ATOM      8  C   UNL     1      35.921 -24.517 -14.367  0.00  0.00    +0.001 C 
ATOM      9  C   UNL     1      38.241 -24.885 -14.819  0.00  0.00    +0.048 C 
ATOM     10  C   UNL     1      38.440 -25.423 -13.545  0.00  0.00    +0.015 C 
ATOM     11  C   UNL     1      36.995 -24.424 -15.257  0.00  0.00    +0.015 C 
ATOM     12  C   UNL     1      36.090 -25.049 -13.091  0.00  0.00    +0.000 C 
ATOM     13  C   UNL     1      37.342 -25.507 -12.665  0.00  0.00    +0.001 C 
ATOM     14  C   UNL     1      39.814 -25.778 -13.451  0.00  0.00    +0.017 C 
ATOM     15  C   UNL     1      40.413 -25.457 -14.648  0.00  0.00    +0.062 C 
ATOM     16  H   UNL     1      39.613 -24.600 -16.385  0.00  0.00    +0.152 HD
ENDBRANCH   1   8
BRANCH   4  17
ATOM     17  O   UNL     1      30.860 -22.719 -15.945  0.00  0.00    -0.469 OA
BRANCH  17  18
ATOM     18  C   UNL     1      29.834 -23.703 -16.064  0.00  0.00    +0.251 C 
BRANCH  18  20
ATOM     19  N   UNL     1      28.212 -22.902 -17.673  0.00  0.00    -0.244 NA
ATOM     20  C   UNL     1      28.533 -23.020 -16.369  0.00  0.00    +0.103 C 
ATOM     21  C   UNL     1      27.754 -22.562 -15.324  0.00  0.00    +0.018 C 
ATOM     22  C   UNL     1      26.556 -21.934 -15.641  0.00  0.00    +0.003 C 
ATOM     23  C   UNL     1      27.039 -22.286 -17.942  0.00  0.00    +0.099 C 
ATOM     24  C   UNL     1      26.183 -21.789 -16.972  0.00  0.00    +0.021 C 
ENDBRANCH  18  20
ENDBRANCH  17  18
ENDBRANCH   4  17
BRANCH   2  25
ATOM     25  C   UNL     1      32.923 -22.803 -17.918  0.00  0.00    +0.117 C 
BRANCH  25  26
ATOM     26  N   UNL     1      34.166 -22.391 -18.571  0.00  0.00    -0.327 N 
ATOM     27  H   UNL     1      34.997 -22.870 -18.347  0.00  0.00    +0.147 HD
BRANCH  26  29
ATOM     28  N   UNL     1      35.538 -19.854 -20.896  0.00  0.00    -0.228 NA
ATOM     29  C   UNL     1      34.230 -21.364 -19.484  0.00  0.00    +0.077 C 
ATOM     30  C   UNL     1      35.435 -20.861 -19.999  0.00  0.00    +0.139 C 
ATOM     31  C   UNL     1      33.059 -20.749 -19.963  0.00  0.00    +0.019 C 
ATOM     32  C   UNL     1      33.124 -19.711 -20.886  0.00  0.00    +0.022 C 
ATOM     33  C   UNL     1      34.378 -19.305 -21.317  0.00  0.00    +0.100 C 
ATOM     34  N   UNL     1      36.635 -21.458 -19.537  0.00  0.00    -0.342 N 
ATOM     35  H   UNL     1      37.504 -21.137 -19.871  0.00  0.00    +0.144 HD
ATOM     36  H   UNL     1      36.600 -22.193 -18.883  0.00  0.00    +0.144 HD
ENDBRANCH  26  29
ENDBRANCH  25  26
ENDBRANCH   2  25
TORSDOF 7
ENDMDL
MODEL 6
REMARK VINA RESULT:     -11.5      4.532     11.723
REMARK  Name = 11633167
REMARK  7 active torsions:
REMARK  status: ('A' for Active; 'I' for Inactive)
REMARK    1  A    between atoms: C_1  and  C_8
REMARK    2  A    between atoms: C_2  and  C_25
REMARK    3  A    between atoms: C_4  and  O_17
REMARK    4  A    between atoms: O_17  and  C_18
REMARK    5  A    between atoms: C_18  and  C_20
REMARK    6  A    between atoms: C_25  and  N_26
REMARK    7  A    between atoms: N_26  and  C_29
REMARK                            x       y       z     vdW  Elec       q    Type
REMARK                         _______ _______ _______ _____ _____    ______ ____
ROOT
ATOM      1  C   UNL     1      34.225 -16.929 -21.845  0.00  0.00    -0.000 C 
ATOM      2  C   UNL     1      32.965 -14.871 -21.746  0.00  0.00    +0.031 C 
ATOM      3  C   UNL     1      33.304 -16.108 -21.195  0.00  0.00    +0.000 C 
ATOM      4  C   UNL     1      33.546 -14.459 -22.944  0.00  0.00    +0.137 C 
ATOM      5  C   UNL     1      34.806 -16.517 -23.042  0.00  0.00    +0.003 C 
ATOM      6  C   UNL     1      34.468 -15.280 -23.592  0.00  0.00    +0.037 C 
ENDROOT
BRANCH   1   8
ATOM      7  N   UNL     1      33.180 -21.351 -19.838  0.00  0.00    -0.312 N 
ATOM      8  C   UNL     1      34.577 -18.213 -21.274  0.00  0.00    +0.001 C 
ATOM      9  C   UNL     1      33.946 -20.313 -20.319  0.00  0.00    +0.048 C 
ATOM     10  C   UNL     1      35.284 -20.690 -20.175  0.00  0.00    +0.015 C 
ATOM     11  C   UNL     1      33.563 -19.083 -20.864  0.00  0.00    +0.015 C 
ATOM     12  C   UNL     1      35.919 -18.562 -21.143  0.00  0.00    +0.000 C 
ATOM     13  C   UNL     1      36.289 -19.796 -20.595  0.00  0.00    +0.001 C 
ATOM     14  C   UNL     1      35.292 -21.988 -19.594  0.00  0.00    +0.017 C 
ATOM     15  C   UNL     1      33.984 -22.368 -19.397  0.00  0.00    +0.062 C 
ATOM     16  H   UNL     1      32.196 -21.361 -19.814  0.00  0.00    +0.152 HD
ENDBRANCH   1   8
BRANCH   4  17
ATOM     17  O   UNL     1      33.226 -13.255 -23.495  0.00  0.00    -0.469 OA
BRANCH  17  18
ATOM     18  C   UNL     1      33.140 -13.195 -24.917  0.00  0.00    +0.251 C 
BRANCH  18  20
ATOM     19  N   UNL     1      34.373 -11.147 -24.535  0.00  0.00    -0.244 NA
ATOM     20  C   UNL     1      34.050 -12.112 -25.419  0.00  0.00    +0.103 C 
ATOM     21  C   UNL     1      34.498 -12.162 -26.724  0.00  0.00    +0.018 C 
ATOM     22  C   UNL     1      35.339 -11.144 -27.157  0.00  0.00    +0.003 C 
ATOM     23  C   UNL     1      35.192 -10.174 -24.991  0.00  0.00    +0.099 C 
ATOM     24  C   UNL     1      35.699 -10.127 -26.280  0.00  0.00    +0.021 C 
ENDBRANCH  18  20
ENDBRANCH  17  18
ENDBRANCH   4  17
BRANCH   2  25
ATOM     25  C   UNL     1      31.977 -14.004 -21.038  0.00  0.00    +0.117 C 
BRANCH  25  26
ATOM     26  N   UNL     1      31.795 -12.713 -21.704  0.00  0.00    -0.327 N 
ATOM     27  H   UNL     1      31.675 -12.701 -22.681  0.00  0.00    +0.147 HD
BRANCH  26  29
ATOM     28  N   UNL     1      31.886  -9.071 -21.034  0.00  0.00    -0.228 NA
ATOM     29  C   UNL     1      31.784 -11.515 -21.028  0.00  0.00    +0.077 C 
ATOM     30  C   UNL     1      31.893 -10.268 -21.662  0.00  0.00    +0.139 C 
ATOM     31  C   UNL     1      31.658 -11.477 -19.627  0.00  0.00    +0.019 C 
ATOM     32  C   UNL     1      31.647 -10.265 -18.944  0.00  0.00    +0.022 C 
ATOM     33  C   UNL     1      31.763  -9.101 -19.688  0.00  0.00    +0.100 C 
ATOM     34  N   UNL     1      32.021 -10.270 -23.074  0.00  0.00    -0.342 N 
ATOM     35  H   UNL     1      32.100  -9.418 -23.562  0.00  0.00    +0.144 HD
ATOM     36  H   UNL     1      32.030 -11.123 -23.567  0.00  0.00    +0.144 HD
ENDBRANCH  26  29
ENDBRANCH  25  26
ENDBRANCH   2  25
TORSDOF 7
ENDMDL
MODEL 7
REMARK VINA RESULT:     -11.4      1.803      2.203
REMARK  Name = 11633167
REMARK  7 active torsions:
REMARK  status: ('A' for Active; 'I' for Inactive)
REMARK    1  A    between atoms: C_1  and  C_8
REMARK    2  A    between atoms: C_2  and  C_25
REMARK    3  A    between atoms: C_4  and  O_17
REMARK    4  A    between atoms: O_17  and  C_18
REMARK    5  A    between atoms: C_18  and  C_20
REMARK    6  A    between atoms: C_25  and  N_26
REMARK    7  A    between atoms: N_26  and  C_29
REMARK                            x       y       z     vdW  Elec       q    Type
REMARK                         _______ _______ _______ _____ _____    ______ ____
ROOT
ATOM      1  C   UNL     1      35.621 -21.130 -19.255  0.00  0.00    -0.000 C 
ATOM      2  C   UNL     1      34.386 -22.657 -17.850  0.00  0.00    +0.031 C 
ATOM      3  C   UNL     1      34.446 -21.823 -18.967  0.00  0.00    +0.000 C 
ATOM      4  C   UNL     1      35.500 -22.796 -17.023  0.00  0.00    +0.137 C 
ATOM      5  C   UNL     1      36.735 -21.269 -18.430  0.00  0.00    +0.003 C 
ATOM      6  C   UNL     1      36.676 -22.104 -17.313  0.00  0.00    +0.037 C 
ENDROOT
BRANCH   1   8
ATOM      7  N   UNL     1      33.824 -19.152 -23.442  0.00  0.00    -0.312 N 
ATOM      8  C   UNL     1      35.684 -20.264 -20.414  0.00  0.00    +0.001 C 
ATOM      9  C   UNL     1      34.710 -19.385 -22.415  0.00  0.00    +0.048 C 
ATOM     10  C   UNL     1      35.829 -18.580 -22.648  0.00  0.00    +0.015 C 
ATOM     11  C   UNL     1      34.609 -20.235 -21.308  0.00  0.00    +0.015 C 
ATOM     12  C   UNL     1      36.812 -19.473 -20.621  0.00  0.00    +0.000 C 
ATOM     13  C   UNL     1      36.900 -18.627 -21.733  0.00  0.00    +0.001 C 
ATOM     14  C   UNL     1      35.581 -17.858 -23.848  0.00  0.00    +0.017 C 
ATOM     15  C   UNL     1      34.341 -18.232 -24.314  0.00  0.00    +0.062 C 
ATOM     16  H   UNL     1      32.945 -19.586 -23.537  0.00  0.00    +0.152 HD
ENDBRANCH   1   8
BRANCH   4  17
ATOM     17  O   UNL     1      35.459 -23.606 -15.929  0.00  0.00    -0.469 OA
BRANCH  17  18
ATOM     18  C   UNL     1      36.709 -24.047 -15.401  0.00  0.00    +0.251 C 
BRANCH  18  20
ATOM     19  N   UNL     1      35.437 -23.762 -13.361  0.00  0.00    -0.244 NA
ATOM     20  C   UNL     1      36.645 -24.018 -13.902  0.00  0.00    +0.103 C 
ATOM     21  C   UNL     1      37.796 -24.251 -13.176  0.00  0.00    +0.018 C 
ATOM     22  C   UNL     1      37.703 -24.217 -11.790  0.00  0.00    +0.003 C 
ATOM     23  C   UNL     1      35.385 -23.737 -12.010  0.00  0.00    +0.099 C 
ATOM     24  C   UNL     1      36.478 -23.956 -11.187  0.00  0.00    +0.021 C 
ENDBRANCH  18  20
ENDBRANCH  17  18
ENDBRANCH   4  17
BRANCH   2  25
ATOM     25  C   UNL     1      33.121 -23.392 -17.554  0.00  0.00    +0.117 C 
BRANCH  25  26
ATOM     26  N   UNL     1      32.688 -23.218 -16.167  0.00  0.00    -0.327 N 
ATOM     27  H   UNL     1      33.267 -22.709 -15.555  0.00  0.00    +0.147 HD
BRANCH  26  29
ATOM     28  N   UNL     1      30.313 -25.165 -14.097  0.00  0.00    -0.228 NA
ATOM     29  C   UNL     1      31.511 -23.734 -15.678  0.00  0.00    +0.077 C 
ATOM     30  C   UNL     1      31.449 -24.636 -14.605  0.00  0.00    +0.139 C 
ATOM     31  C   UNL     1      30.274 -23.374 -16.243  0.00  0.00    +0.019 C 
ATOM     32  C   UNL     1      29.084 -23.896 -15.748  0.00  0.00    +0.022 C 
ATOM     33  C   UNL     1      29.158 -24.780 -14.683  0.00  0.00    +0.100 C 
ATOM     34  N   UNL     1      32.677 -25.021 -14.012  0.00  0.00    -0.342 N 
ATOM     35  H   UNL     1      32.682 -25.652 -13.256  0.00  0.00    +0.144 HD
ATOM     36  H   UNL     1      33.526 -24.657 -14.355  0.00  0.00    +0.144 HD
ENDBRANCH  26  29
ENDBRANCH  25  26
ENDBRANCH   2  25
TORSDOF 7
ENDMDL
MODEL 8
REMARK VINA RESULT:     -11.3      1.542      2.080
REMARK  Name = 11633167
REMARK  7 active torsions:
REMARK  status: ('A' for Active; 'I' for Inactive)
REMARK    1  A    between atoms: C_1  and  C_8
REMARK    2  A    between atoms: C_2  and  C_25
REMARK    3  A    between atoms: C_4  and  O_17
REMARK    4  A    between atoms: O_17  and  C_18
REMARK    5  A    between atoms: C_18  and  C_20
REMARK    6  A    between atoms: C_25  and  N_26
REMARK    7  A    between atoms: N_26  and  C_29
REMARK                            x       y       z     vdW  Elec       q    Type
REMARK                         _______ _______ _______ _____ _____    ______ ____
ROOT
ATOM      1  C   UNL     1      35.231 -21.295 -19.049  0.00  0.00    -0.000 C 
ATOM      2  C   UNL     1      34.533 -22.965 -17.450  0.00  0.00    +0.031 C 
ATOM      3  C   UNL     1      34.251 -22.151 -18.548  0.00  0.00    +0.000 C 
ATOM      4  C   UNL     1      35.793 -22.921 -16.855  0.00  0.00    +0.137 C 
ATOM      5  C   UNL     1      36.491 -21.251 -18.455  0.00  0.00    +0.003 C 
ATOM      6  C   UNL     1      36.773 -22.066 -17.358  0.00  0.00    +0.037 C 
ENDROOT
BRANCH   1   8
ATOM      7  N   UNL     1      36.457 -18.155 -22.696  0.00  0.00    -0.312 N 
ATOM      8  C   UNL     1      34.940 -20.450 -20.188  0.00  0.00    +0.001 C 
ATOM      9  C   UNL     1      35.654 -18.944 -21.904  0.00  0.00    +0.048 C 
ATOM     10  C   UNL     1      34.350 -18.823 -22.390  0.00  0.00    +0.015 C 
ATOM     11  C   UNL     1      35.979 -19.750 -20.806  0.00  0.00    +0.015 C 
ATOM     12  C   UNL     1      33.630 -20.348 -20.651  0.00  0.00    +0.000 C 
ATOM     13  C   UNL     1      33.319 -19.539 -21.750  0.00  0.00    +0.001 C 
ATOM     14  C   UNL     1      34.399 -17.935 -23.500  0.00  0.00    +0.017 C 
ATOM     15  C   UNL     1      35.707 -17.539 -23.663  0.00  0.00    +0.062 C 
ATOM     16  H   UNL     1      37.429 -18.047 -22.583  0.00  0.00    +0.152 HD
ENDBRANCH   1   8
BRANCH   4  17
ATOM     17  O   UNL     1      36.085 -23.709 -15.783  0.00  0.00    -0.469 OA
BRANCH  17  18
ATOM     18  C   UNL     1      36.926 -23.149 -14.777  0.00  0.00    +0.251 C 
BRANCH  18  20
ATOM     19  N   UNL     1      39.048 -24.161 -15.353  0.00  0.00    -0.244 NA
ATOM     20  C   UNL     1      38.032 -24.115 -14.469  0.00  0.00    +0.103 C 
ATOM     21  C   UNL     1      37.952 -24.885 -13.325  0.00  0.00    +0.018 C 
ATOM     22  C   UNL     1      38.993 -25.770 -13.069  0.00  0.00    +0.003 C 
ATOM     23  C   UNL     1      40.042 -25.033 -15.072  0.00  0.00    +0.099 C 
ATOM     24  C   UNL     1      40.062 -25.852 -13.954  0.00  0.00    +0.021 C 
ENDBRANCH  18  20
ENDBRANCH  17  18
ENDBRANCH   4  17
BRANCH   2  25
ATOM     25  C   UNL     1      33.473 -23.875 -16.925  0.00  0.00    +0.117 C 
BRANCH  25  26
ATOM     26  N   UNL     1      32.635 -23.229 -15.915  0.00  0.00    -0.327 N 
ATOM     27  H   UNL     1      32.957 -22.397 -15.499  0.00  0.00    +0.147 HD
BRANCH  26  29
ATOM     28  N   UNL     1      30.085 -25.178 -14.066  0.00  0.00    -0.228 NA
ATOM     29  C   UNL     1      31.416 -23.729 -15.518  0.00  0.00    +0.077 C 
ATOM     30  C   UNL     1      31.264 -24.664 -14.484  0.00  0.00    +0.139 C 
ATOM     31  C   UNL     1      30.227 -23.317 -16.147  0.00  0.00    +0.019 C 
ATOM     32  C   UNL     1      28.995 -23.823 -15.745  0.00  0.00    +0.022 C 
ATOM     33  C   UNL     1      28.979 -24.743 -14.709  0.00  0.00    +0.100 C 
ATOM     34  N   UNL     1      32.443 -25.101 -13.829  0.00  0.00    -0.342 N 
ATOM     35  H   UNL     1      32.384 -25.757 -13.096  0.00  0.00    +0.144 HD
ATOM     36  H   UNL     1      33.320 -24.749 -14.105  0.00  0.00    +0.144 HD
ENDBRANCH  26  29
ENDBRANCH  25  26
ENDBRANCH   2  25
TORSDOF 7
ENDMDL
MODEL 9
REMARK VINA RESULT:     -11.2      2.140      6.120
REMARK  Name = 11633167
REMARK  7 active torsions:
REMARK  status: ('A' for Active; 'I' for Inactive)
REMARK    1  A    between atoms: C_1  and  C_8
REMARK    2  A    between atoms: C_2  and  C_25
REMARK    3  A    between atoms: C_4  and  O_17
REMARK    4  A    between atoms: O_17  and  C_18
REMARK    5  A    between atoms: C_18  and  C_20
REMARK    6  A    between atoms: C_25  and  N_26
REMARK    7  A    between atoms: N_26  and  C_29
REMARK                            x       y       z     vdW  Elec       q    Type
REMARK                         _______ _______ _______ _____ _____    ______ ____
ROOT
ATOM      1  C   UNL     1      34.234 -22.561 -17.507  0.00  0.00    -0.000 C 
ATOM      2  C   UNL     1      34.514 -23.394 -15.257  0.00  0.00    +0.031 C 
ATOM      3  C   UNL     1      34.978 -22.631 -16.330  0.00  0.00    +0.000 C 
ATOM      4  C   UNL     1      33.308 -24.084 -15.363  0.00  0.00    +0.137 C 
ATOM      5  C   UNL     1      33.028 -23.251 -17.614  0.00  0.00    +0.003 C 
ATOM      6  C   UNL     1      32.563 -24.013 -16.541  0.00  0.00    +0.037 C 
ENDROOT
BRANCH   1   8
ATOM      7  N   UNL     1      33.645 -19.684 -21.512  0.00  0.00    -0.312 N 
ATOM      8  C   UNL     1      34.716 -21.771 -18.620  0.00  0.00    +0.001 C 
ATOM      9  C   UNL     1      34.302 -20.395 -20.533  0.00  0.00    +0.048 C 
ATOM     10  C   UNL     1      35.671 -20.246 -20.767  0.00  0.00    +0.015 C 
ATOM     11  C   UNL     1      33.795 -21.150 -19.469  0.00  0.00    +0.015 C 
ATOM     12  C   UNL     1      36.086 -21.640 -18.829  0.00  0.00    +0.000 C 
ATOM     13  C   UNL     1      36.580 -20.882 -19.897  0.00  0.00    +0.001 C 
ATOM     14  C   UNL     1      35.812 -19.421 -21.917  0.00  0.00    +0.017 C 
ATOM     15  C   UNL     1      34.549 -19.092 -22.354  0.00  0.00    +0.062 C 
ATOM     16  H   UNL     1      32.666 -19.611 -21.595  0.00  0.00    +0.152 HD
ENDBRANCH   1   8
BRANCH   4  17
ATOM     17  O   UNL     1      32.839 -24.833 -14.326  0.00  0.00    -0.469 OA
BRANCH  17  18
ATOM     18  C   UNL     1      31.873 -24.226 -13.472  0.00  0.00    +0.251 C 
BRANCH  18  20
ATOM     19  N   UNL     1      29.887 -25.078 -14.564  0.00  0.00    -0.244 NA
ATOM     20  C   UNL     1      30.613 -23.986 -14.250  0.00  0.00    +0.103 C 
ATOM     21  C   UNL     1      30.272 -22.693 -14.594  0.00  0.00    +0.018 C 
ATOM     22  C   UNL     1      29.098 -22.505 -15.315  0.00  0.00    +0.003 C 
ATOM     23  C   UNL     1      28.753 -24.857 -15.265  0.00  0.00    +0.099 C 
ATOM     24  C   UNL     1      28.318 -23.603 -15.661  0.00  0.00    +0.021 C 
ENDBRANCH  18  20
ENDBRANCH  17  18
ENDBRANCH   4  17
BRANCH   2  25
ATOM     25  C   UNL     1      35.322 -23.458 -14.004  0.00  0.00    +0.117 C 
BRANCH  25  26
ATOM     26  N   UNL     1      35.731 -24.825 -13.676  0.00  0.00    -0.327 N 
ATOM     27  H   UNL     1      35.056 -25.443 -13.312  0.00  0.00    +0.147 HD
BRANCH  26  29
ATOM     28  N   UNL     1      38.580 -26.884 -14.842  0.00  0.00    -0.228 NA
ATOM     29  C   UNL     1      37.014 -25.287 -13.853  0.00  0.00    +0.077 C 
ATOM     30  C   UNL     1      37.333 -26.400 -14.646  0.00  0.00    +0.139 C 
ATOM     31  C   UNL     1      38.103 -24.651 -13.230  0.00  0.00    +0.019 C 
ATOM     32  C   UNL     1      39.401 -25.119 -13.408  0.00  0.00    +0.022 C 
ATOM     33  C   UNL     1      39.583 -26.229 -14.217  0.00  0.00    +0.100 C 
ATOM     34  N   UNL     1      36.259 -27.066 -15.288  0.00  0.00    -0.342 N 
ATOM     35  H   UNL     1      36.436 -27.851 -15.854  0.00  0.00    +0.144 HD
ATOM     36  H   UNL     1      35.336 -26.743 -15.168  0.00  0.00    +0.144 HD
ENDBRANCH  26  29
ENDBRANCH  25  26
ENDBRANCH   2  25
TORSDOF 7
ENDMDL
