MODEL 1
REMARK VINA RESULT:      -8.0      0.000      0.000
REMARK  Name = 20055482
REMARK  15 active torsions:
REMARK  status: ('A' for Active; 'I' for Inactive)
REMARK    1  A    between atoms: C_1  and  O_2
REMARK    2  A    between atoms: C_1  and  C_4
REMARK    3  A    between atoms: C_1  and  C_19
REMARK    4  A    between atoms: C_4  and  O_5
REMARK    5  A    between atoms: C_4  and  C_7
REMARK    6  A    between atoms: C_7  and  O_8
REMARK    7  A    between atoms: C_7  and  C_13
REMARK    8  A    between atoms: O_8  and  S_9
REMARK    9  A    between atoms: C_13  and  O_14
REMARK   10  A    between atoms: O_14  and  S_15
REMARK   11  A    between atoms: C_19  and  O_20
REMARK   12  A    between atoms: C_19  and  C_25
REMARK   13  A    between atoms: O_20  and  S_21
REMARK   14  A    between atoms: C_25  and  O_26
REMARK   15  A    between atoms: O_26  and  S_27
REMARK                            x       y       z     vdW  Elec       q    Type
REMARK                         _______ _______ _______ _____ _____    ______ ____
ROOT
ATOM      1  C   UNL     1      35.316 -24.531 -15.127  0.00  0.00    +0.172 C 
ENDROOT
BRANCH   1   2
ATOM      2  O   UNL     1      34.421 -25.220 -14.254  0.00  0.00    -0.379 OA
ATOM      3  H   UNL     1      34.773 -26.102 -14.060  0.00  0.00    +0.211 HD
ENDBRANCH   1   2
BRANCH   1   4
ATOM      4  C   UNL     1      34.662 -23.207 -15.558  0.00  0.00    +0.172 C 
BRANCH   4   5
ATOM      5  O   UNL     1      33.889 -22.700 -14.471  0.00  0.00    -0.379 OA
ATOM      6  H   UNL     1      33.028 -22.398 -14.801  0.00  0.00    +0.211 HD
ENDBRANCH   4   5
BRANCH   4   7
ATOM      7  C   UNL     1      33.774 -23.337 -16.811  0.00  0.00    +0.204 C 
BRANCH   7   8
ATOM      8  O   UNL     1      34.132 -22.293 -17.725  0.00  0.00    -0.239 OA
BRANCH   8   9
ATOM      9  S   UNL     1      33.932 -22.559 -19.317  0.00  0.00    -0.005 S 
ATOM     10  O   UNL     1      32.812 -21.777 -19.802  0.00  0.00    -0.072 OA
ATOM     11  O   UNL     1      34.056 -23.975 -19.592  0.00  0.00    -0.072 OA
ATOM     12  C   UNL     1      35.429 -21.762 -19.839  0.00  0.00    +0.181 C 
ENDBRANCH   8   9
ENDBRANCH   7   8
BRANCH   7  13
ATOM     13  C   UNL     1      32.278 -23.194 -16.535  0.00  0.00    +0.207 C 
BRANCH  13  14
ATOM     14  O   UNL     1      31.819 -24.315 -15.782  0.00  0.00    -0.239 OA
BRANCH  14  15
ATOM     15  S   UNL     1      30.904 -24.043 -14.460  0.00  0.00    -0.005 S 
ATOM     16  O   UNL     1      30.198 -22.787 -14.612  0.00  0.00    -0.072 OA
ATOM     17  O   UNL     1      31.669 -24.354 -13.270  0.00  0.00    -0.072 OA
ATOM     18  C   UNL     1      29.751 -25.363 -14.737  0.00  0.00    +0.181 C 
ENDBRANCH  14  15
ENDBRANCH  13  14
ENDBRANCH   7  13
ENDBRANCH   4   7
ENDBRANCH   1   4
BRANCH   1  19
ATOM     19  C   UNL     1      36.682 -24.351 -14.432  0.00  0.00    +0.204 C 
BRANCH  19  20
ATOM     20  O   UNL     1      36.571 -23.263 -13.506  0.00  0.00    -0.239 OA
BRANCH  20  21
ATOM     21  S   UNL     1      36.350 -23.610 -11.932  0.00  0.00    -0.005 S 
ATOM     22  O   UNL     1      34.935 -23.762 -11.664  0.00  0.00    -0.072 OA
ATOM     23  O   UNL     1      37.198 -22.759 -11.123  0.00  0.00    -0.072 OA
ATOM     24  C   UNL     1      37.079 -25.227 -11.985  0.00  0.00    +0.181 C 
ENDBRANCH  20  21
ENDBRANCH  19  20
BRANCH  19  25
ATOM     25  C   UNL     1      37.828 -24.013 -15.383  0.00  0.00    +0.207 C 
BRANCH  25  26
ATOM     26  O   UNL     1      39.059 -24.372 -14.761  0.00  0.00    -0.239 OA
BRANCH  26  27
ATOM     27  S   UNL     1      39.615 -25.893 -14.953  0.00  0.00    -0.005 S 
ATOM     28  O   UNL     1      40.529 -25.935 -16.076  0.00  0.00    -0.072 OA
ATOM     29  O   UNL     1      38.517 -26.829 -14.821  0.00  0.00    -0.072 OA
ATOM     30  C   UNL     1      40.572 -25.949 -13.459  0.00  0.00    +0.181 C 
ENDBRANCH  26  27
ENDBRANCH  25  26
ENDBRANCH  19  25
ENDBRANCH   1  19
TORSDOF 15
ENDMDL
MODEL 2
REMARK VINA RESULT:      -8.0      0.164      7.550
REMARK  Name = 20055482
REMARK  15 active torsions:
REMARK  status: ('A' for Active; 'I' for Inactive)
REMARK    1  A    between atoms: C_1  and  O_2
REMARK    2  A    between atoms: C_1  and  C_4
REMARK    3  A    between atoms: C_1  and  C_19
REMARK    4  A    between atoms: C_4  and  O_5
REMARK    5  A    between atoms: C_4  and  C_7
REMARK    6  A    between atoms: C_7  and  O_8
REMARK    7  A    between atoms: C_7  and  C_13
REMARK    8  A    between atoms: O_8  and  S_9
REMARK    9  A    between atoms: C_13  and  O_14
REMARK   10  A    between atoms: O_14  and  S_15
REMARK   11  A    between atoms: C_19  and  O_20
REMARK   12  A    between atoms: C_19  and  C_25
REMARK   13  A    between atoms: O_20  and  S_21
REMARK   14  A    between atoms: C_25  and  O_26
REMARK   15  A    between atoms: O_26  and  S_27
REMARK                            x       y       z     vdW  Elec       q    Type
REMARK                         _______ _______ _______ _____ _____    ______ ____
ROOT
ATOM      1  C   UNL     1      34.624 -23.240 -15.519  0.00  0.00    +0.172 C 
ENDROOT
BRANCH   1   2
ATOM      2  O   UNL     1      33.828 -22.776 -14.428  0.00  0.00    -0.379 OA
ATOM      3  H   UNL     1      32.888 -22.849 -14.660  0.00  0.00    +0.211 HD
ENDBRANCH   1   2
BRANCH   1   4
ATOM      4  C   UNL     1      35.315 -24.549 -15.101  0.00  0.00    +0.172 C 
BRANCH   4   5
ATOM      5  O   UNL     1      34.448 -25.269 -14.226  0.00  0.00    -0.379 OA
ATOM      6  H   UNL     1      33.529 -25.001 -14.388  0.00  0.00    +0.211 HD
ENDBRANCH   4   5
BRANCH   4   7
ATOM      7  C   UNL     1      36.680 -24.334 -14.417  0.00  0.00    +0.204 C 
BRANCH   7   8
ATOM      8  O   UNL     1      36.555 -23.244 -13.496  0.00  0.00    -0.239 OA
BRANCH   8   9
ATOM      9  S   UNL     1      36.363 -23.585 -11.917  0.00  0.00    -0.005 S 
ATOM     10  O   UNL     1      34.955 -23.769 -11.629  0.00  0.00    -0.072 OA
ATOM     11  O   UNL     1      37.202 -22.708 -11.126  0.00  0.00    -0.072 OA
ATOM     12  C   UNL     1      37.130 -25.185 -11.969  0.00  0.00    +0.181 C 
ENDBRANCH   8   9
ENDBRANCH   7   8
BRANCH   7  13
ATOM     13  C   UNL     1      37.813 -23.978 -15.380  0.00  0.00    +0.207 C 
BRANCH  13  14
ATOM     14  O   UNL     1      39.067 -24.328 -14.798  0.00  0.00    -0.239 OA
BRANCH  14  15
ATOM     15  S   UNL     1      39.608 -25.855 -14.976  0.00  0.00    -0.005 S 
ATOM     16  O   UNL     1      40.530 -25.913 -16.094  0.00  0.00    -0.072 OA
ATOM     17  O   UNL     1      38.501 -26.780 -14.846  0.00  0.00    -0.072 OA
ATOM     18  C   UNL     1      40.555 -25.911 -13.476  0.00  0.00    +0.181 C 
ENDBRANCH  14  15
ENDBRANCH  13  14
ENDBRANCH   7  13
ENDBRANCH   4   7
ENDBRANCH   1   4
BRANCH   1  19
ATOM     19  C   UNL     1      33.747 -23.377 -16.780  0.00  0.00    +0.204 C 
BRANCH  19  20
ATOM     20  O   UNL     1      34.074 -22.302 -17.669  0.00  0.00    -0.239 OA
BRANCH  20  21
ATOM     21  S   UNL     1      33.921 -22.551 -19.270  0.00  0.00    -0.005 S 
ATOM     22  O   UNL     1      32.817 -21.763 -19.779  0.00  0.00    -0.072 OA
ATOM     23  O   UNL     1      34.051 -23.965 -19.556  0.00  0.00    -0.072 OA
ATOM     24  C   UNL     1      35.435 -21.751 -19.738  0.00  0.00    +0.181 C 
ENDBRANCH  20  21
ENDBRANCH  19  20
BRANCH  19  25
ATOM     25  C   UNL     1      32.246 -23.293 -16.511  0.00  0.00    +0.207 C 
BRANCH  25  26
ATOM     26  O   UNL     1      31.858 -24.417 -15.726  0.00  0.00    -0.239 OA
BRANCH  26  27
ATOM     27  S   UNL     1      31.010 -24.158 -14.357  0.00  0.00    -0.005 S 
ATOM     28  O   UNL     1      30.624 -22.763 -14.286  0.00  0.00    -0.072 OA
ATOM     29  O   UNL     1      31.660 -24.832 -13.252  0.00  0.00    -0.072 OA
ATOM     30  C   UNL     1      29.582 -25.104 -14.820  0.00  0.00    +0.181 C 
ENDBRANCH  26  27
ENDBRANCH  25  26
ENDBRANCH  19  25
ENDBRANCH   1  19
TORSDOF 15
ENDMDL
MODEL 3
REMARK VINA RESULT:      -7.8      1.838      4.130
REMARK  Name = 20055482
REMARK  15 active torsions:
REMARK  status: ('A' for Active; 'I' for Inactive)
REMARK    1  A    between atoms: C_1  and  O_2
REMARK    2  A    between atoms: C_1  and  C_4
REMARK    3  A    between atoms: C_1  and  C_19
REMARK    4  A    between atoms: C_4  and  O_5
REMARK    5  A    between atoms: C_4  and  C_7
REMARK    6  A    between atoms: C_7  and  O_8
REMARK    7  A    between atoms: C_7  and  C_13
REMARK    8  A    between atoms: O_8  and  S_9
REMARK    9  A    between atoms: C_13  and  O_14
REMARK   10  A    between atoms: O_14  and  S_15
REMARK   11  A    between atoms: C_19  and  O_20
REMARK   12  A    between atoms: C_19  and  C_25
REMARK   13  A    between atoms: O_20  and  S_21
REMARK   14  A    between atoms: C_25  and  O_26
REMARK   15  A    between atoms: O_26  and  S_27
REMARK                            x       y       z     vdW  Elec       q    Type
REMARK                         _______ _______ _______ _____ _____    ______ ____
ROOT
ATOM      1  C   UNL     1      33.352 -24.676 -14.055  0.00  0.00    +0.172 C 
ENDROOT
BRANCH   1   2
ATOM      2  O   UNL     1      32.361 -25.135 -13.135  0.00  0.00    -0.379 OA
ATOM      3  H   UNL     1      32.096 -26.039 -13.369  0.00  0.00    +0.211 HD
ENDBRANCH   1   2
BRANCH   1   4
ATOM      4  C   UNL     1      33.016 -23.230 -14.458  0.00  0.00    +0.172 C 
BRANCH   4   5
ATOM      5  O   UNL     1      32.205 -22.645 -13.440  0.00  0.00    -0.379 OA
ATOM      6  H   UNL     1      31.529 -22.081 -13.849  0.00  0.00    +0.211 HD
ENDBRANCH   4   5
BRANCH   4   7
ATOM      7  C   UNL     1      32.300 -23.119 -15.819  0.00  0.00    +0.204 C 
BRANCH   7   8
ATOM      8  O   UNL     1      31.075 -23.859 -15.744  0.00  0.00    -0.239 OA
BRANCH   8   9
ATOM      9  S   UNL     1      29.674 -23.046 -15.891  0.00  0.00    -0.005 S 
ATOM     10  O   UNL     1      29.622 -22.399 -17.187  0.00  0.00    -0.072 OA
ATOM     11  O   UNL     1      29.396 -22.331 -14.663  0.00  0.00    -0.072 OA
ATOM     12  C   UNL     1      28.624 -24.477 -15.946  0.00  0.00    +0.181 C 
ENDBRANCH   8   9
ENDBRANCH   7   8
BRANCH   7  13
ATOM     13  C   UNL     1      33.096 -23.691 -16.992  0.00  0.00    +0.207 C 
BRANCH  13  14
ATOM     14  O   UNL     1      33.982 -22.696 -17.502  0.00  0.00    -0.239 OA
BRANCH  14  15
ATOM     15  S   UNL     1      34.009 -22.429 -19.110  0.00  0.00    -0.005 S 
ATOM     16  O   UNL     1      33.023 -21.422 -19.449  0.00  0.00    -0.072 OA
ATOM     17  O   UNL     1      34.085 -23.695 -19.810  0.00  0.00    -0.072 OA
ATOM     18  C   UNL     1      35.613 -21.671 -19.162  0.00  0.00    +0.181 C 
ENDBRANCH  14  15
ENDBRANCH  13  14
ENDBRANCH   7  13
ENDBRANCH   4   7
ENDBRANCH   1   4
BRANCH   1  19
ATOM     19  C   UNL     1      34.753 -24.837 -13.432  0.00  0.00    +0.204 C 
BRANCH  19  20
ATOM     20  O   UNL     1      34.810 -24.032 -12.247  0.00  0.00    -0.239 OA
BRANCH  20  21
ATOM     21  S   UNL     1      35.892 -24.426 -11.098  0.00  0.00    -0.005 S 
ATOM     22  O   UNL     1      36.629 -25.603 -11.511  0.00  0.00    -0.072 OA
ATOM     23  O   UNL     1      35.274 -24.325  -9.793  0.00  0.00    -0.072 OA
ATOM     24  C   UNL     1      36.940 -23.010 -11.324  0.00  0.00    +0.181 C 
ENDBRANCH  20  21
ENDBRANCH  19  20
BRANCH  19  25
ATOM     25  C   UNL     1      35.896 -24.380 -14.336  0.00  0.00    +0.207 C 
BRANCH  25  26
ATOM     26  O   UNL     1      36.041 -25.319 -15.399  0.00  0.00    -0.239 OA
BRANCH  26  27
ATOM     27  S   UNL     1      36.988 -26.625 -15.162  0.00  0.00    -0.005 S 
ATOM     28  O   UNL     1      36.994 -27.440 -16.359  0.00  0.00    -0.072 OA
ATOM     29  O   UNL     1      36.719 -27.186 -13.853  0.00  0.00    -0.072 OA
ATOM     30  C   UNL     1      38.529 -25.748 -15.082  0.00  0.00    +0.181 C 
ENDBRANCH  26  27
ENDBRANCH  25  26
ENDBRANCH  19  25
ENDBRANCH   1  19
TORSDOF 15
ENDMDL
MODEL 4
REMARK VINA RESULT:      -7.3      1.942      6.516
REMARK  Name = 20055482
REMARK  15 active torsions:
REMARK  status: ('A' for Active; 'I' for Inactive)
REMARK    1  A    between atoms: C_1  and  O_2
REMARK    2  A    between atoms: C_1  and  C_4
REMARK    3  A    between atoms: C_1  and  C_19
REMARK    4  A    between atoms: C_4  and  O_5
REMARK    5  A    between atoms: C_4  and  C_7
REMARK    6  A    between atoms: C_7  and  O_8
REMARK    7  A    between atoms: C_7  and  C_13
REMARK    8  A    between atoms: O_8  and  S_9
REMARK    9  A    between atoms: C_13  and  O_14
REMARK   10  A    between atoms: O_14  and  S_15
REMARK   11  A    between atoms: C_19  and  O_20
REMARK   12  A    between atoms: C_19  and  C_25
REMARK   13  A    between atoms: O_20  and  S_21
REMARK   14  A    between atoms: C_25  and  O_26
REMARK   15  A    between atoms: O_26  and  S_27
REMARK                            x       y       z     vdW  Elec       q    Type
REMARK                         _______ _______ _______ _____ _____    ______ ____
ROOT
ATOM      1  C   UNL     1      32.840 -23.193 -14.952  0.00  0.00    +0.172 C 
ENDROOT
BRANCH   1   2
ATOM      2  O   UNL     1      32.253 -22.851 -13.697  0.00  0.00    -0.379 OA
ATOM      3  H   UNL     1      31.288 -22.923 -13.761  0.00  0.00    +0.211 HD
ENDBRANCH   1   2
BRANCH   1   4
ATOM      4  C   UNL     1      33.508 -24.572 -14.824  0.00  0.00    +0.172 C 
BRANCH   4   5
ATOM      5  O   UNL     1      32.886 -25.288 -13.757  0.00  0.00    -0.379 OA
ATOM      6  H   UNL     1      33.154 -24.900 -12.909  0.00  0.00    +0.211 HD
ENDBRANCH   4   5
BRANCH   4   7
ATOM      7  C   UNL     1      35.029 -24.502 -14.584  0.00  0.00    +0.204 C 
BRANCH   7   8
ATOM      8  O   UNL     1      35.491 -25.814 -14.241  0.00  0.00    -0.239 OA
BRANCH   8   9
ATOM      9  S   UNL     1      36.850 -26.363 -14.947  0.00  0.00    -0.005 S 
ATOM     10  O   UNL     1      36.526 -26.945 -16.234  0.00  0.00    -0.072 OA
ATOM     11  O   UNL     1      37.656 -27.062 -13.968  0.00  0.00    -0.072 OA
ATOM     12  C   UNL     1      37.580 -24.770 -15.228  0.00  0.00    +0.181 C 
ENDBRANCH   8   9
ENDBRANCH   7   8
BRANCH   7  13
ATOM     13  C   UNL     1      35.440 -23.571 -13.443  0.00  0.00    +0.207 C 
BRANCH  13  14
ATOM     14  O   UNL     1      34.892 -24.047 -12.215  0.00  0.00    -0.239 OA
BRANCH  14  15
ATOM     15  S   UNL     1      35.916 -24.507 -11.033  0.00  0.00    -0.005 S 
ATOM     16  O   UNL     1      36.526 -25.773 -11.388  0.00  0.00    -0.072 OA
ATOM     17  O   UNL     1      35.295 -24.289  -9.743  0.00  0.00    -0.072 OA
ATOM     18  C   UNL     1      37.115 -23.224 -11.293  0.00  0.00    +0.181 C 
ENDBRANCH  14  15
ENDBRANCH  13  14
ENDBRANCH   7  13
ENDBRANCH   4   7
ENDBRANCH   1   4
BRANCH   1  19
ATOM     19  C   UNL     1      31.770 -23.122 -16.061  0.00  0.00    +0.204 C 
BRANCH  19  20
ATOM     20  O   UNL     1      30.853 -24.205 -15.866  0.00  0.00    -0.239 OA
BRANCH  20  21
ATOM     21  S   UNL     1      29.358 -23.861 -15.323  0.00  0.00    -0.005 S 
ATOM     22  O   UNL     1      29.337 -22.517 -14.783  0.00  0.00    -0.072 OA
ATOM     23  O   UNL     1      28.835 -24.993 -14.587  0.00  0.00    -0.072 OA
ATOM     24  C   UNL     1      28.575 -23.829 -16.916  0.00  0.00    +0.181 C 
ENDBRANCH  20  21
ENDBRANCH  19  20
BRANCH  19  25
ATOM     25  C   UNL     1      32.327 -23.259 -17.477  0.00  0.00    +0.207 C 
BRANCH  25  26
ATOM     26  O   UNL     1      33.513 -22.476 -17.580  0.00  0.00    -0.239 OA
BRANCH  26  27
ATOM     27  S   UNL     1      34.366 -22.533 -18.969  0.00  0.00    -0.005 S 
ATOM     28  O   UNL     1      34.024 -23.737 -19.697  0.00  0.00    -0.072 OA
ATOM     29  O   UNL     1      35.741 -22.159 -18.707  0.00  0.00    -0.072 OA
ATOM     30  C   UNL     1      33.561 -21.162 -19.758  0.00  0.00    +0.181 C 
ENDBRANCH  26  27
ENDBRANCH  25  26
ENDBRANCH  19  25
ENDBRANCH   1  19
TORSDOF 15
ENDMDL
MODEL 5
REMARK VINA RESULT:      -7.2      1.602      7.306
REMARK  Name = 20055482
REMARK  15 active torsions:
REMARK  status: ('A' for Active; 'I' for Inactive)
REMARK    1  A    between atoms: C_1  and  O_2
REMARK    2  A    between atoms: C_1  and  C_4
REMARK    3  A    between atoms: C_1  and  C_19
REMARK    4  A    between atoms: C_4  and  O_5
REMARK    5  A    between atoms: C_4  and  C_7
REMARK    6  A    between atoms: C_7  and  O_8
REMARK    7  A    between atoms: C_7  and  C_13
REMARK    8  A    between atoms: O_8  and  S_9
REMARK    9  A    between atoms: C_13  and  O_14
REMARK   10  A    between atoms: O_14  and  S_15
REMARK   11  A    between atoms: C_19  and  O_20
REMARK   12  A    between atoms: C_19  and  C_25
REMARK   13  A    between atoms: O_20  and  S_21
REMARK   14  A    between atoms: C_25  and  O_26
REMARK   15  A    between atoms: O_26  and  S_27
REMARK                            x       y       z     vdW  Elec       q    Type
REMARK                         _______ _______ _______ _____ _____    ______ ____
ROOT
ATOM      1  C   UNL     1      33.381 -23.224 -15.307  0.00  0.00    +0.172 C 
ENDROOT
BRANCH   1   2
ATOM      2  O   UNL     1      32.324 -22.899 -14.403  0.00  0.00    -0.379 OA
ATOM      3  H   UNL     1      31.502 -22.768 -14.901  0.00  0.00    +0.211 HD
ENDBRANCH   1   2
BRANCH   1   4
ATOM      4  C   UNL     1      34.018 -24.551 -14.862  0.00  0.00    +0.172 C 
BRANCH   4   5
ATOM      5  O   UNL     1      33.370 -24.997 -13.672  0.00  0.00    -0.379 OA
ATOM      6  H   UNL     1      33.639 -24.436 -12.927  0.00  0.00    +0.211 HD
ENDBRANCH   4   5
BRANCH   4   7
ATOM      7  C   UNL     1      35.538 -24.455 -14.620  0.00  0.00    +0.204 C 
BRANCH   7   8
ATOM      8  O   UNL     1      35.991 -25.715 -14.109  0.00  0.00    -0.239 OA
BRANCH   8   9
ATOM      9  S   UNL     1      37.111 -26.534 -14.958  0.00  0.00    -0.005 S 
ATOM     10  O   UNL     1      36.527 -27.011 -16.196  0.00  0.00    -0.072 OA
ATOM     11  O   UNL     1      37.850 -27.408 -14.070  0.00  0.00    -0.072 OA
ATOM     12  C   UNL     1      38.135 -25.133 -15.333  0.00  0.00    +0.181 C 
ENDBRANCH   8   9
ENDBRANCH   7   8
BRANCH   7  13
ATOM     13  C   UNL     1      35.943 -23.389 -13.603  0.00  0.00    +0.207 C 
BRANCH  13  14
ATOM     14  O   UNL     1      35.637 -23.840 -12.285  0.00  0.00    -0.239 OA
BRANCH  14  15
ATOM     15  S   UNL     1      36.747 -23.625 -11.111  0.00  0.00    -0.005 S 
ATOM     16  O   UNL     1      36.241 -24.163  -9.864  0.00  0.00    -0.072 OA
ATOM     17  O   UNL     1      37.296 -22.288 -11.203  0.00  0.00    -0.072 OA
ATOM     18  C   UNL     1      37.948 -24.761 -11.757  0.00  0.00    +0.181 C 
ENDBRANCH  14  15
ENDBRANCH  13  14
ENDBRANCH   7  13
ENDBRANCH   4   7
ENDBRANCH   1   4
BRANCH   1  19
ATOM     19  C   UNL     1      32.839 -23.249 -16.751  0.00  0.00    +0.204 C 
BRANCH  19  20
ATOM     20  O   UNL     1      33.653 -22.379 -17.547  0.00  0.00    -0.239 OA
BRANCH  20  21
ATOM     21  S   UNL     1      33.759 -22.670 -19.145  0.00  0.00    -0.005 S 
ATOM     22  O   UNL     1      32.772 -21.875 -19.848  0.00  0.00    -0.072 OA
ATOM     23  O   UNL     1      33.902 -24.093 -19.370  0.00  0.00    -0.072 OA
ATOM     24  C   UNL     1      35.347 -21.911 -19.376  0.00  0.00    +0.181 C 
ENDBRANCH  20  21
ENDBRANCH  19  20
BRANCH  19  25
ATOM     25  C   UNL     1      31.399 -22.762 -16.888  0.00  0.00    +0.207 C 
BRANCH  25  26
ATOM     26  O   UNL     1      30.521 -23.864 -16.672  0.00  0.00    -0.239 OA
BRANCH  26  27
ATOM     27  S   UNL     1      29.137 -23.609 -15.846  0.00  0.00    -0.005 S 
ATOM     28  O   UNL     1      28.005 -23.811 -16.727  0.00  0.00    -0.072 OA
ATOM     29  O   UNL     1      29.274 -22.418 -15.033  0.00  0.00    -0.072 OA
ATOM     30  C   UNL     1      29.272 -25.024 -14.783  0.00  0.00    +0.181 C 
ENDBRANCH  26  27
ENDBRANCH  25  26
ENDBRANCH  19  25
ENDBRANCH   1  19
TORSDOF 15
ENDMDL
MODEL 6
REMARK VINA RESULT:      -7.2      1.292      7.030
REMARK  Name = 20055482
REMARK  15 active torsions:
REMARK  status: ('A' for Active; 'I' for Inactive)
REMARK    1  A    between atoms: C_1  and  O_2
REMARK    2  A    between atoms: C_1  and  C_4
REMARK    3  A    between atoms: C_1  and  C_19
REMARK    4  A    between atoms: C_4  and  O_5
REMARK    5  A    between atoms: C_4  and  C_7
REMARK    6  A    between atoms: C_7  and  O_8
REMARK    7  A    between atoms: C_7  and  C_13
REMARK    8  A    between atoms: O_8  and  S_9
REMARK    9  A    between atoms: C_13  and  O_14
REMARK   10  A    between atoms: O_14  and  S_15
REMARK   11  A    between atoms: C_19  and  O_20
REMARK   12  A    between atoms: C_19  and  C_25
REMARK   13  A    between atoms: O_20  and  S_21
REMARK   14  A    between atoms: C_25  and  O_26
REMARK   15  A    between atoms: O_26  and  S_27
REMARK                            x       y       z     vdW  Elec       q    Type
REMARK                         _______ _______ _______ _____ _____    ______ ____
ROOT
ATOM      1  C   UNL     1      34.232 -23.584 -15.056  0.00  0.00    +0.172 C 
ENDROOT
BRANCH   1   2
ATOM      2  O   UNL     1      34.954 -22.362 -14.909  0.00  0.00    -0.379 OA
ATOM      3  H   UNL     1      34.795 -21.997 -14.024  0.00  0.00    +0.211 HD
ENDBRANCH   1   2
BRANCH   1   4
ATOM      4  C   UNL     1      34.359 -24.390 -13.752  0.00  0.00    +0.172 C 
BRANCH   4   5
ATOM      5  O   UNL     1      33.794 -23.631 -12.684  0.00  0.00    -0.379 OA
ATOM      6  H   UNL     1      34.166 -22.735 -12.693  0.00  0.00    +0.211 HD
ENDBRANCH   4   5
BRANCH   4   7
ATOM      7  C   UNL     1      35.810 -24.775 -13.403  0.00  0.00    +0.204 C 
BRANCH   7   8
ATOM      8  O   UNL     1      36.493 -23.597 -12.957  0.00  0.00    -0.239 OA
BRANCH   8   9
ATOM      9  S   UNL     1      37.375 -23.685 -11.593  0.00  0.00    -0.005 S 
ATOM     10  O   UNL     1      38.346 -22.610 -11.573  0.00  0.00    -0.072 OA
ATOM     11  O   UNL     1      37.748 -25.063 -11.346  0.00  0.00    -0.072 OA
ATOM     12  C   UNL     1      36.057 -23.262 -10.482  0.00  0.00    +0.181 C 
ENDBRANCH   8   9
ENDBRANCH   7   8
BRANCH   7  13
ATOM     13  C   UNL     1      36.609 -25.335 -14.581  0.00  0.00    +0.207 C 
BRANCH  13  14
ATOM     14  O   UNL     1      37.861 -24.659 -14.676  0.00  0.00    -0.239 OA
BRANCH  14  15
ATOM     15  S   UNL     1      39.229 -25.523 -14.478  0.00  0.00    -0.005 S 
ATOM     16  O   UNL     1      38.914 -26.938 -14.499  0.00  0.00    -0.072 OA
ATOM     17  O   UNL     1      40.027 -24.931 -13.424  0.00  0.00    -0.072 OA
ATOM     18  C   UNL     1      39.966 -25.098 -16.036  0.00  0.00    +0.181 C 
ENDBRANCH  14  15
ENDBRANCH  13  14
ENDBRANCH   7  13
ENDBRANCH   4   7
ENDBRANCH   1   4
BRANCH   1  19
ATOM     19  C   UNL     1      32.774 -23.281 -15.458  0.00  0.00    +0.204 C 
BRANCH  19  20
ATOM     20  O   UNL     1      31.940 -24.320 -14.930  0.00  0.00    -0.239 OA
BRANCH  20  21
ATOM     21  S   UNL     1      30.570 -23.894 -14.163  0.00  0.00    -0.005 S 
ATOM     22  O   UNL     1      30.082 -22.642 -14.705  0.00  0.00    -0.072 OA
ATOM     23  O   UNL     1      30.724 -24.108 -12.739  0.00  0.00    -0.072 OA
ATOM     24  C   UNL     1      29.567 -25.206 -14.814  0.00  0.00    +0.181 C 
ENDBRANCH  20  21
ENDBRANCH  19  20
BRANCH  19  25
ATOM     25  C   UNL     1      32.536 -23.242 -16.966  0.00  0.00    +0.207 C 
BRANCH  25  26
ATOM     26  O   UNL     1      33.788 -23.394 -17.631  0.00  0.00    -0.239 OA
BRANCH  26  27
ATOM     27  S   UNL     1      33.936 -22.827 -19.153  0.00  0.00    -0.005 S 
ATOM     28  O   UNL     1      32.867 -21.888 -19.425  0.00  0.00    -0.072 OA
ATOM     29  O   UNL     1      34.242 -23.924 -20.049  0.00  0.00    -0.072 OA
ATOM     30  C   UNL     1      35.427 -21.903 -18.881  0.00  0.00    +0.181 C 
ENDBRANCH  26  27
ENDBRANCH  25  26
ENDBRANCH  19  25
ENDBRANCH   1  19
TORSDOF 15
ENDMDL
MODEL 7
REMARK VINA RESULT:      -7.1      1.188      3.963
REMARK  Name = 20055482
REMARK  15 active torsions:
REMARK  status: ('A' for Active; 'I' for Inactive)
REMARK    1  A    between atoms: C_1  and  O_2
REMARK    2  A    between atoms: C_1  and  C_4
REMARK    3  A    between atoms: C_1  and  C_19
REMARK    4  A    between atoms: C_4  and  O_5
REMARK    5  A    between atoms: C_4  and  C_7
REMARK    6  A    between atoms: C_7  and  O_8
REMARK    7  A    between atoms: C_7  and  C_13
REMARK    8  A    between atoms: O_8  and  S_9
REMARK    9  A    between atoms: C_13  and  O_14
REMARK   10  A    between atoms: O_14  and  S_15
REMARK   11  A    between atoms: C_19  and  O_20
REMARK   12  A    between atoms: C_19  and  C_25
REMARK   13  A    between atoms: O_20  and  S_21
REMARK   14  A    between atoms: C_25  and  O_26
REMARK   15  A    between atoms: O_26  and  S_27
REMARK                            x       y       z     vdW  Elec       q    Type
REMARK                         _______ _______ _______ _____ _____    ______ ____
ROOT
ATOM      1  C   UNL     1      34.914 -24.594 -14.055  0.00  0.00    +0.172 C 
ENDROOT
BRANCH   1   2
ATOM      2  O   UNL     1      34.298 -24.139 -12.850  0.00  0.00    -0.379 OA
ATOM      3  H   UNL     1      33.810 -24.870 -12.440  0.00  0.00    +0.211 HD
ENDBRANCH   1   2
BRANCH   1   4
ATOM      4  C   UNL     1      34.704 -23.530 -15.146  0.00  0.00    +0.172 C 
BRANCH   4   5
ATOM      5  O   UNL     1      35.190 -22.277 -14.668  0.00  0.00    -0.379 OA
ATOM      6  H   UNL     1      34.954 -22.175 -13.732  0.00  0.00    +0.211 HD
ENDBRANCH   4   5
BRANCH   4   7
ATOM      7  C   UNL     1      33.235 -23.383 -15.589  0.00  0.00    +0.204 C 
BRANCH   7   8
ATOM      8  O   UNL     1      32.446 -24.323 -14.850  0.00  0.00    -0.239 OA
BRANCH   8   9
ATOM      9  S   UNL     1      31.047 -23.811 -14.197  0.00  0.00    -0.005 S 
ATOM     10  O   UNL     1      30.573 -22.647 -14.917  0.00  0.00    -0.072 OA
ATOM     11  O   UNL     1      31.150 -23.832 -12.752  0.00  0.00    -0.072 OA
ATOM     12  C   UNL     1      30.074 -25.208 -14.701  0.00  0.00    +0.181 C 
ENDBRANCH   8   9
ENDBRANCH   7   8
BRANCH   7  13
ATOM     13  C   UNL     1      32.997 -23.669 -17.072  0.00  0.00    +0.207 C 
BRANCH  13  14
ATOM     14  O   UNL     1      33.046 -22.450 -17.811  0.00  0.00    -0.239 OA
BRANCH  14  15
ATOM     15  S   UNL     1      33.913 -22.410 -19.191  0.00  0.00    -0.005 S 
ATOM     16  O   UNL     1      33.477 -21.292 -20.003  0.00  0.00    -0.072 OA
ATOM     17  O   UNL     1      34.029 -23.750 -19.728  0.00  0.00    -0.072 OA
ATOM     18  C   UNL     1      35.464 -21.978 -18.443  0.00  0.00    +0.181 C 
ENDBRANCH  14  15
ENDBRANCH  13  14
ENDBRANCH   7  13
ENDBRANCH   4   7
ENDBRANCH   1   4
BRANCH   1  19
ATOM     19  C   UNL     1      36.397 -24.924 -13.787  0.00  0.00    +0.204 C 
BRANCH  19  20
ATOM     20  O   UNL     1      37.023 -23.755 -13.245  0.00  0.00    -0.239 OA
BRANCH  20  21
ATOM     21  S   UNL     1      37.543 -23.804 -11.703  0.00  0.00    -0.005 S 
ATOM     22  O   UNL     1      36.466 -23.413 -10.817  0.00  0.00    -0.072 OA
ATOM     23  O   UNL     1      38.862 -23.213 -11.617  0.00  0.00    -0.072 OA
ATOM     24  C   UNL     1      37.721 -25.568 -11.614  0.00  0.00    +0.181 C 
ENDBRANCH  20  21
ENDBRANCH  19  20
BRANCH  19  25
ATOM     25  C   UNL     1      37.186 -25.314 -15.035  0.00  0.00    +0.207 C 
BRANCH  25  26
ATOM     26  O   UNL     1      38.386 -25.969 -14.631  0.00  0.00    -0.239 OA
BRANCH  26  27
ATOM     27  S   UNL     1      39.815 -25.265 -14.983  0.00  0.00    -0.005 S 
ATOM     28  O   UNL     1      40.516 -26.064 -15.967  0.00  0.00    -0.072 OA
ATOM     29  O   UNL     1      40.450 -24.824 -13.758  0.00  0.00    -0.072 OA
ATOM     30  C   UNL     1      39.144 -23.842 -15.803  0.00  0.00    +0.181 C 
ENDBRANCH  26  27
ENDBRANCH  25  26
ENDBRANCH  19  25
ENDBRANCH   1  19
TORSDOF 15
ENDMDL
MODEL 8
REMARK VINA RESULT:      -6.9      1.376      3.520
REMARK  Name = 20055482
REMARK  15 active torsions:
REMARK  status: ('A' for Active; 'I' for Inactive)
REMARK    1  A    between atoms: C_1  and  O_2
REMARK    2  A    between atoms: C_1  and  C_4
REMARK    3  A    between atoms: C_1  and  C_19
REMARK    4  A    between atoms: C_4  and  O_5
REMARK    5  A    between atoms: C_4  and  C_7
REMARK    6  A    between atoms: C_7  and  O_8
REMARK    7  A    between atoms: C_7  and  C_13
REMARK    8  A    between atoms: O_8  and  S_9
REMARK    9  A    between atoms: C_13  and  O_14
REMARK   10  A    between atoms: O_14  and  S_15
REMARK   11  A    between atoms: C_19  and  O_20
REMARK   12  A    between atoms: C_19  and  C_25
REMARK   13  A    between atoms: O_20  and  S_21
REMARK   14  A    between atoms: C_25  and  O_26
REMARK   15  A    between atoms: O_26  and  S_27
REMARK                            x       y       z     vdW  Elec       q    Type
REMARK                         _______ _______ _______ _____ _____    ______ ____
ROOT
ATOM      1  C   UNL     1      36.539 -24.460 -15.174  0.00  0.00    +0.172 C 
ENDROOT
BRANCH   1   2
ATOM      2  O   UNL     1      35.748 -25.613 -15.459  0.00  0.00    -0.379 OA
ATOM      3  H   UNL     1      35.889 -26.282 -14.769  0.00  0.00    +0.211 HD
ENDBRANCH   1   2
BRANCH   1   4
ATOM      4  C   UNL     1      35.715 -23.204 -15.503  0.00  0.00    +0.172 C 
BRANCH   4   5
ATOM      5  O   UNL     1      35.090 -22.737 -14.309  0.00  0.00    -0.379 OA
ATOM      6  H   UNL     1      34.861 -21.799 -14.410  0.00  0.00    +0.211 HD
ENDBRANCH   4   5
BRANCH   4   7
ATOM      7  C   UNL     1      34.648 -23.434 -16.592  0.00  0.00    +0.204 C 
BRANCH   7   8
ATOM      8  O   UNL     1      34.804 -22.422 -17.595  0.00  0.00    -0.239 OA
BRANCH   8   9
ATOM      9  S   UNL     1      33.943 -22.558 -18.968  0.00  0.00    -0.005 S 
ATOM     10  O   UNL     1      32.655 -21.917 -18.797  0.00  0.00    -0.072 OA
ATOM     11  O   UNL     1      34.069 -23.904 -19.489  0.00  0.00    -0.072 OA
ATOM     12  C   UNL     1      34.967 -21.489 -19.947  0.00  0.00    +0.181 C 
ENDBRANCH   8   9
ENDBRANCH   7   8
BRANCH   7  13
ATOM     13  C   UNL     1      33.209 -23.343 -16.086  0.00  0.00    +0.207 C 
BRANCH  13  14
ATOM     14  O   UNL     1      32.993 -24.321 -15.070  0.00  0.00    -0.239 OA
BRANCH  14  15
ATOM     15  S   UNL     1      31.510 -24.437 -14.404  0.00  0.00    -0.005 S 
ATOM     16  O   UNL     1      31.614 -25.065 -13.102  0.00  0.00    -0.072 OA
ATOM     17  O   UNL     1      30.565 -24.893 -15.403  0.00  0.00    -0.072 OA
ATOM     18  C   UNL     1      31.260 -22.697 -14.160  0.00  0.00    +0.181 C 
ENDBRANCH  14  15
ENDBRANCH  13  14
ENDBRANCH   7  13
ENDBRANCH   4   7
ENDBRANCH   1   4
BRANCH   1  19
ATOM     19  C   UNL     1      37.029 -24.515 -13.712  0.00  0.00    +0.204 C 
BRANCH  19  20
ATOM     20  O   UNL     1      38.461 -24.452 -13.719  0.00  0.00    -0.239 OA
BRANCH  20  21
ATOM     21  S   UNL     1      39.261 -25.230 -14.902  0.00  0.00    -0.005 S 
ATOM     22  O   UNL     1      39.756 -24.268 -15.866  0.00  0.00    -0.072 OA
ATOM     23  O   UNL     1      38.515 -26.405 -15.302  0.00  0.00    -0.072 OA
ATOM     24  C   UNL     1      40.627 -25.759 -13.898  0.00  0.00    +0.181 C 
ENDBRANCH  20  21
ENDBRANCH  19  20
BRANCH  19  25
ATOM     25  C   UNL     1      36.642 -25.792 -12.970  0.00  0.00    +0.207 C 
BRANCH  25  26
ATOM     26  O   UNL     1      36.638 -25.525 -11.570  0.00  0.00    -0.239 OA
BRANCH  26  27
ATOM     27  S   UNL     1      35.612 -24.395 -10.995  0.00  0.00    -0.005 S 
ATOM     28  O   UNL     1      35.343 -24.656  -9.595  0.00  0.00    -0.072 OA
ATOM     29  O   UNL     1      34.549 -24.176 -11.954  0.00  0.00    -0.072 OA
ATOM     30  C   UNL     1      36.739 -23.027 -11.095  0.00  0.00    +0.181 C 
ENDBRANCH  26  27
ENDBRANCH  25  26
ENDBRANCH  19  25
ENDBRANCH   1  19
TORSDOF 15
ENDMDL
MODEL 9
REMARK VINA RESULT:      -6.7      1.498      1.939
REMARK  Name = 20055482
REMARK  15 active torsions:
REMARK  status: ('A' for Active; 'I' for Inactive)
REMARK    1  A    between atoms: C_1  and  O_2
REMARK    2  A    between atoms: C_1  and  C_4
REMARK    3  A    between atoms: C_1  and  C_19
REMARK    4  A    between atoms: C_4  and  O_5
REMARK    5  A    between atoms: C_4  and  C_7
REMARK    6  A    between atoms: C_7  and  O_8
REMARK    7  A    between atoms: C_7  and  C_13
REMARK    8  A    between atoms: O_8  and  S_9
REMARK    9  A    between atoms: C_13  and  O_14
REMARK   10  A    between atoms: O_14  and  S_15
REMARK   11  A    between atoms: C_19  and  O_20
REMARK   12  A    between atoms: C_19  and  C_25
REMARK   13  A    between atoms: O_20  and  S_21
REMARK   14  A    between atoms: C_25  and  O_26
REMARK   15  A    between atoms: O_26  and  S_27
REMARK                            x       y       z     vdW  Elec       q    Type
REMARK                         _______ _______ _______ _____ _____    ______ ____
ROOT
ATOM      1  C   UNL     1      35.674 -23.145 -15.219  0.00  0.00    +0.172 C 
ENDROOT
BRANCH   1   2
ATOM      2  O   UNL     1      36.159 -23.566 -16.494  0.00  0.00    -0.379 OA
ATOM      3  H   UNL     1      36.488 -22.797 -16.985  0.00  0.00    +0.211 HD
ENDBRANCH   1   2
BRANCH   1   4
ATOM      4  C   UNL     1      34.174 -23.471 -15.130  0.00  0.00    +0.172 C 
BRANCH   4   5
ATOM      5  O   UNL     1      34.015 -24.750 -14.517  0.00  0.00    -0.379 OA
ATOM      6  H   UNL     1      34.708 -24.876 -13.849  0.00  0.00    +0.211 HD
ENDBRANCH   4   5
BRANCH   4   7
ATOM      7  C   UNL     1      33.458 -23.459 -16.496  0.00  0.00    +0.204 C 
BRANCH   7   8
ATOM      8  O   UNL     1      33.937 -22.333 -17.243  0.00  0.00    -0.239 OA
BRANCH   8   9
ATOM      9  S   UNL     1      34.302 -22.549 -18.814  0.00  0.00    -0.005 S 
ATOM     10  O   UNL     1      33.787 -23.828 -19.260  0.00  0.00    -0.072 OA
ATOM     11  O   UNL     1      35.673 -22.147 -19.052  0.00  0.00    -0.072 OA
ATOM     12  C   UNL     1      33.236 -21.275 -19.439  0.00  0.00    +0.181 C 
ENDBRANCH   8   9
ENDBRANCH   7   8
BRANCH   7  13
ATOM     13  C   UNL     1      31.939 -23.320 -16.405  0.00  0.00    +0.207 C 
BRANCH  13  14
ATOM     14  O   UNL     1      31.382 -24.500 -15.828  0.00  0.00    -0.239 OA
BRANCH  14  15
ATOM     15  S   UNL     1      30.178 -24.342 -14.741  0.00  0.00    -0.005 S 
ATOM     16  O   UNL     1      30.648 -24.759 -13.435  0.00  0.00    -0.072 OA
ATOM     17  O   UNL     1      28.944 -24.844 -15.310  0.00  0.00    -0.072 OA
ATOM     18  C   UNL     1      30.115 -22.568 -14.765  0.00  0.00    +0.181 C 
ENDBRANCH  14  15
ENDBRANCH  13  14
ENDBRANCH   7  13
ENDBRANCH   4   7
ENDBRANCH   1   4
BRANCH   1  19
ATOM     19  C   UNL     1      36.517 -23.796 -14.103  0.00  0.00    +0.204 C 
BRANCH  19  20
ATOM     20  O   UNL     1      35.981 -23.382 -12.840  0.00  0.00    -0.239 OA
BRANCH  20  21
ATOM     21  S   UNL     1      36.733 -23.874 -11.484  0.00  0.00    -0.005 S 
ATOM     22  O   UNL     1      37.307 -22.730 -10.806  0.00  0.00    -0.072 OA
ATOM     23  O   UNL     1      37.504 -25.068 -11.762  0.00  0.00    -0.072 OA
ATOM     24  C   UNL     1      35.265 -24.356 -10.610  0.00  0.00    +0.181 C 
ENDBRANCH  20  21
ENDBRANCH  19  20
BRANCH  19  25
ATOM     25  C   UNL     1      37.990 -23.394 -14.115  0.00  0.00    +0.207 C 
BRANCH  25  26
ATOM     26  O   UNL     1      38.645 -24.090 -15.172  0.00  0.00    -0.239 OA
BRANCH  26  27
ATOM     27  S   UNL     1      39.617 -25.345 -14.795  0.00  0.00    -0.005 S 
ATOM     28  O   UNL     1      40.245 -25.101 -13.513  0.00  0.00    -0.072 OA
ATOM     29  O   UNL     1      40.382 -25.732 -15.963  0.00  0.00    -0.072 OA
ATOM     30  C   UNL     1      38.324 -26.538 -14.560  0.00  0.00    +0.181 C 
ENDBRANCH  26  27
ENDBRANCH  25  26
ENDBRANCH  19  25
ENDBRANCH   1  19
TORSDOF 15
ENDMDL
