MODEL 1
REMARK VINA RESULT:     -12.2      0.000      0.000
REMARK  Name = 46937119
REMARK  2 active torsions:
REMARK  status: ('A' for Active; 'I' for Inactive)
REMARK    1  A    between atoms: N_3  and  C_26
REMARK    2  A    between atoms: C_5  and  N_16
REMARK                            x       y       z     vdW  Elec       q    Type
REMARK                         _______ _______ _______ _____ _____    ______ ____
ROOT
ATOM      1  N   UNL     1      33.598 -15.081 -24.778  0.00  0.00    -0.242 N 
ATOM      2  N   UNL     1      33.797 -12.951 -22.981  0.00  0.00    -0.388 NA
ATOM      3  N   UNL     1      33.205 -11.387 -24.603  0.00  0.00    -0.287 N 
ATOM      4  N   UNL     1      33.070 -15.169 -26.931  0.00  0.00    -0.224 NA
ATOM      5  C   UNL     1      34.582 -16.909 -21.712  0.00  0.00    +0.045 C 
ATOM      6  C   UNL     1      34.222 -16.689 -23.041  0.00  0.00    +0.032 C 
ATOM      7  C   UNL     1      33.963 -15.385 -23.461  0.00  0.00    +0.084 C 
ATOM      8  C   UNL     1      34.678 -15.839 -20.822  0.00  0.00    -0.004 C 
ATOM      9  C   UNL     1      34.054 -14.287 -22.581  0.00  0.00    +0.129 C 
ATOM     10  C   UNL     1      34.416 -14.535 -21.254  0.00  0.00    +0.088 C 
ATOM     11  C   UNL     1      33.350 -13.786 -25.158  0.00  0.00    +0.121 C 
ATOM     12  C   UNL     1      33.455 -12.685 -24.221  0.00  0.00    +0.199 C 
ATOM     13  C   UNL     1      33.417 -15.875 -25.876  0.00  0.00    +0.172 C 
ATOM     14  C   UNL     1      33.025 -13.868 -26.493  0.00  0.00    +0.119 C 
ATOM     15  H   UNL     1      32.952 -11.244 -25.543  0.00  0.00    +0.155 HD
ENDROOT
BRANCH   5  16
ATOM     16  N   UNL     1      34.846 -18.210 -21.267  0.00  0.00    -0.312 N 
ATOM     17  N   UNL     1      35.439 -20.761 -20.140  0.00  0.00    +0.387 N 
ATOM     18  C   UNL     1      34.100 -20.486 -20.673  0.00  0.00    -0.042 C 
ATOM     19  C   UNL     1      33.787 -18.983 -20.608  0.00  0.00    +0.069 C 
ATOM     20  C   UNL     1      36.219 -18.533 -20.858  0.00  0.00    +0.067 C 
ATOM     21  C   UNL     1      36.450 -20.041 -20.910  0.00  0.00    -0.060 C 
ATOM     22  C   UNL     1      33.069 -21.284 -19.876  0.00  0.00    -0.022 C 
ATOM     23  H   UNL     1      35.623 -21.764 -20.196  0.00  0.00    -0.084 HD
ATOM     24  H   UNL     1      35.479 -20.452 -19.168  0.00  0.00    -0.084 HD
ENDBRANCH   5  16
BRANCH   3  26
ATOM     25 CL   UNL     1      31.048 -11.164 -22.501  0.00  0.00    -0.081 Cl
ATOM     26  C   UNL     1      33.274 -10.255 -23.796  0.00  0.00    +0.057 C 
ATOM     27  C   UNL     1      34.295  -9.327 -24.001  0.00  0.00    -0.008 C 
ATOM     28  C   UNL     1      32.330 -10.044 -22.790  0.00  0.00    +0.071 C 
ATOM     29  C   UNL     1      34.372  -8.188 -23.199  0.00  0.00    -0.003 C 
ATOM     30  C   UNL     1      35.319  -9.525 -25.070  0.00  0.00    +0.032 C 
ATOM     31  C   UNL     1      32.409  -8.905 -21.989  0.00  0.00    +0.013 C 
ATOM     32  C   UNL     1      33.429  -7.977 -22.194  0.00  0.00    +0.001 C 
ENDBRANCH   3  26
TORSDOF 2
ENDMDL
MODEL 2
REMARK VINA RESULT:     -11.7      1.059      1.647
REMARK  Name = 46937119
REMARK  2 active torsions:
REMARK  status: ('A' for Active; 'I' for Inactive)
REMARK    1  A    between atoms: N_3  and  C_26
REMARK    2  A    between atoms: C_5  and  N_16
REMARK                            x       y       z     vdW  Elec       q    Type
REMARK                         _______ _______ _______ _____ _____    ______ ____
ROOT
ATOM      1  N   UNL     1      33.599 -15.122 -24.741  0.00  0.00    -0.242 N 
ATOM      2  N   UNL     1      33.822 -12.965 -22.980  0.00  0.00    -0.388 NA
ATOM      3  N   UNL     1      33.227 -11.423 -24.622  0.00  0.00    -0.287 N 
ATOM      4  N   UNL     1      33.055 -15.241 -26.888  0.00  0.00    -0.224 NA
ATOM      5  C   UNL     1      34.595 -16.906 -21.654  0.00  0.00    +0.045 C 
ATOM      6  C   UNL     1      34.228 -16.705 -22.983  0.00  0.00    +0.032 C 
ATOM      7  C   UNL     1      33.972 -15.406 -23.422  0.00  0.00    +0.084 C 
ATOM      8  C   UNL     1      34.703 -15.822 -20.782  0.00  0.00    -0.004 C 
ATOM      9  C   UNL     1      34.076 -14.295 -22.560  0.00  0.00    +0.129 C 
ATOM     10  C   UNL     1      34.445 -14.524 -21.232  0.00  0.00    +0.088 C 
ATOM     11  C   UNL     1      33.355 -13.831 -25.140  0.00  0.00    +0.121 C 
ATOM     12  C   UNL     1      33.473 -12.717 -24.222  0.00  0.00    +0.199 C 
ATOM     13  C   UNL     1      33.406 -15.932 -25.824  0.00  0.00    +0.172 C 
ATOM     14  C   UNL     1      33.021 -13.933 -26.471  0.00  0.00    +0.119 C 
ATOM     15  H   UNL     1      32.968 -11.294 -25.563  0.00  0.00    +0.155 HD
ENDROOT
BRANCH   5  16
ATOM     16  N   UNL     1      34.856 -18.201 -21.190  0.00  0.00    -0.312 N 
ATOM     17  N   UNL     1      35.431 -20.738 -20.023  0.00  0.00    +0.387 N 
ATOM     18  C   UNL     1      34.111 -20.482 -20.610  0.00  0.00    -0.042 C 
ATOM     19  C   UNL     1      33.780 -18.981 -20.568  0.00  0.00    +0.069 C 
ATOM     20  C   UNL     1      36.214 -18.506 -20.724  0.00  0.00    +0.067 C 
ATOM     21  C   UNL     1      36.464 -20.011 -20.757  0.00  0.00    -0.060 C 
ATOM     22  C   UNL     1      33.058 -21.285 -19.849  0.00  0.00    -0.022 C 
ATOM     23  H   UNL     1      35.629 -21.739 -20.065  0.00  0.00    -0.084 HD
ATOM     24  H   UNL     1      35.429 -20.423 -19.052  0.00  0.00    -0.084 HD
ENDBRANCH   5  16
BRANCH   3  26
ATOM     25 CL   UNL     1      35.534  -9.579 -25.253  0.00  0.00    -0.081 Cl
ATOM     26  C   UNL     1      33.308 -10.279 -23.834  0.00  0.00    +0.057 C 
ATOM     27  C   UNL     1      32.355 -10.063 -22.838  0.00  0.00    -0.008 C 
ATOM     28  C   UNL     1      34.332  -9.353 -24.033  0.00  0.00    +0.071 C 
ATOM     29  C   UNL     1      32.428  -8.920 -22.041  0.00  0.00    -0.003 C 
ATOM     30  C   UNL     1      31.247 -11.036 -22.600  0.00  0.00    +0.032 C 
ATOM     31  C   UNL     1      34.404  -8.210 -23.235  0.00  0.00    +0.013 C 
ATOM     32  C   UNL     1      33.452  -7.995 -22.239  0.00  0.00    +0.001 C 
ENDBRANCH   3  26
TORSDOF 2
ENDMDL
MODEL 3
REMARK VINA RESULT:     -11.4      2.570      8.457
REMARK  Name = 46937119
REMARK  2 active torsions:
REMARK  status: ('A' for Active; 'I' for Inactive)
REMARK    1  A    between atoms: N_3  and  C_26
REMARK    2  A    between atoms: C_5  and  N_16
REMARK                            x       y       z     vdW  Elec       q    Type
REMARK                         _______ _______ _______ _____ _____    ______ ____
ROOT
ATOM      1  N   UNL     1      33.950 -15.974 -23.709  0.00  0.00    -0.242 N 
ATOM      2  N   UNL     1      34.078 -17.340 -21.275  0.00  0.00    -0.388 NA
ATOM      3  N   UNL     1      34.956 -19.254 -22.272  0.00  0.00    -0.287 N 
ATOM      4  N   UNL     1      34.497 -16.561 -25.777  0.00  0.00    -0.224 NA
ATOM      5  C   UNL     1      32.613 -13.375 -21.435  0.00  0.00    +0.045 C 
ATOM      6  C   UNL     1      33.030 -13.986 -22.617  0.00  0.00    +0.032 C 
ATOM      7  C   UNL     1      33.513 -15.293 -22.566  0.00  0.00    +0.084 C 
ATOM      8  C   UNL     1      32.681 -14.066 -20.224  0.00  0.00    -0.004 C 
ATOM      9  C   UNL     1      33.591 -16.011 -21.356  0.00  0.00    +0.129 C 
ATOM     10  C   UNL     1      33.167 -15.376 -20.185  0.00  0.00    +0.088 C 
ATOM     11  C   UNL     1      34.420 -17.261 -23.622  0.00  0.00    +0.121 C 
ATOM     12  C   UNL     1      34.484 -17.964 -22.357  0.00  0.00    +0.199 C 
ATOM     13  C   UNL     1      34.016 -15.597 -25.020  0.00  0.00    +0.172 C 
ATOM     14  C   UNL     1      34.751 -17.600 -24.915  0.00  0.00    +0.119 C 
ATOM     15  H   UNL     1      35.247 -19.674 -23.113  0.00  0.00    +0.155 HD
ENDROOT
BRANCH   5  16
ATOM     16  N   UNL     1      32.125 -12.064 -21.461  0.00  0.00    -0.312 N 
ATOM     17  N   UNL     1      31.339  -9.323 -21.399  0.00  0.00    +0.387 N 
ATOM     18  C   UNL     1      31.493 -10.015 -22.684  0.00  0.00    -0.042 C 
ATOM     19  C   UNL     1      32.500 -11.170 -22.563  0.00  0.00    +0.069 C 
ATOM     20  C   UNL     1      31.840 -11.409 -20.178  0.00  0.00    +0.067 C 
ATOM     21  C   UNL     1      30.863 -10.252 -20.375  0.00  0.00    -0.060 C 
ATOM     22  C   UNL     1      31.950  -9.012 -23.742  0.00  0.00    -0.022 C 
ATOM     23  H   UNL     1      30.664  -8.564 -21.504  0.00  0.00    -0.084 HD
ATOM     24  H   UNL     1      32.244  -8.949 -21.113  0.00  0.00    -0.084 HD
ENDBRANCH   5  16
BRANCH   3  26
ATOM     25 CL   UNL     1      32.367 -20.440 -21.266  0.00  0.00    -0.081 Cl
ATOM     26  C   UNL     1      35.063 -20.026 -21.119  0.00  0.00    +0.057 C 
ATOM     27  C   UNL     1      36.311 -20.197 -20.520  0.00  0.00    -0.008 C 
ATOM     28  C   UNL     1      33.933 -20.625 -20.560  0.00  0.00    +0.071 C 
ATOM     29  C   UNL     1      36.430 -20.967 -19.364  0.00  0.00    -0.003 C 
ATOM     30  C   UNL     1      37.539 -19.567 -21.094  0.00  0.00    +0.032 C 
ATOM     31  C   UNL     1      34.053 -21.395 -19.403  0.00  0.00    +0.013 C 
ATOM     32  C   UNL     1      35.301 -21.566 -18.805  0.00  0.00    +0.001 C 
ENDBRANCH   3  26
TORSDOF 2
ENDMDL
MODEL 4
REMARK VINA RESULT:     -11.3      2.710      8.574
REMARK  Name = 46937119
REMARK  2 active torsions:
REMARK  status: ('A' for Active; 'I' for Inactive)
REMARK    1  A    between atoms: N_3  and  C_26
REMARK    2  A    between atoms: C_5  and  N_16
REMARK                            x       y       z     vdW  Elec       q    Type
REMARK                         _______ _______ _______ _____ _____    ______ ____
ROOT
ATOM      1  N   UNL     1      33.854 -15.915 -23.748  0.00  0.00    -0.242 N 
ATOM      2  N   UNL     1      34.047 -17.268 -21.311  0.00  0.00    -0.388 NA
ATOM      3  N   UNL     1      34.884 -19.193 -22.322  0.00  0.00    -0.287 N 
ATOM      4  N   UNL     1      34.337 -16.517 -25.828  0.00  0.00    -0.224 NA
ATOM      5  C   UNL     1      32.601 -13.295 -21.451  0.00  0.00    +0.045 C 
ATOM      6  C   UNL     1      32.979 -13.915 -22.642  0.00  0.00    +0.032 C 
ATOM      7  C   UNL     1      33.456 -15.224 -22.597  0.00  0.00    +0.084 C 
ATOM      8  C   UNL     1      32.701 -13.979 -20.239  0.00  0.00    -0.004 C 
ATOM      9  C   UNL     1      33.566 -15.936 -21.385  0.00  0.00    +0.129 C 
ATOM     10  C   UNL     1      33.180 -15.292 -20.206  0.00  0.00    +0.088 C 
ATOM     11  C   UNL     1      34.319 -17.204 -23.668  0.00  0.00    +0.121 C 
ATOM     12  C   UNL     1      34.417 -17.900 -22.401  0.00  0.00    +0.199 C 
ATOM     13  C   UNL     1      33.883 -15.546 -25.063  0.00  0.00    +0.172 C 
ATOM     14  C   UNL     1      34.610 -17.553 -24.967  0.00  0.00    +0.119 C 
ATOM     15  H   UNL     1      35.147 -19.619 -23.169  0.00  0.00    +0.155 HD
ENDROOT
BRANCH   5  16
ATOM     16  N   UNL     1      32.119 -11.981 -21.471  0.00  0.00    -0.312 N 
ATOM     17  N   UNL     1      31.348  -9.237 -21.395  0.00  0.00    +0.387 N 
ATOM     18  C   UNL     1      31.496  -9.923 -22.683  0.00  0.00    -0.042 C 
ATOM     19  C   UNL     1      32.497 -11.084 -22.569  0.00  0.00    +0.069 C 
ATOM     20  C   UNL     1      31.840 -11.330 -20.184  0.00  0.00    +0.067 C 
ATOM     21  C   UNL     1      30.869 -10.167 -20.375  0.00  0.00    -0.060 C 
ATOM     22  C   UNL     1      31.957  -8.918 -23.737  0.00  0.00    -0.022 C 
ATOM     23  H   UNL     1      30.677  -8.474 -21.496  0.00  0.00    -0.084 HD
ATOM     24  H   UNL     1      32.256  -8.869 -21.109  0.00  0.00    -0.084 HD
ENDBRANCH   5  16
BRANCH   3  26
ATOM     25 CL   UNL     1      37.694 -19.403 -21.237  0.00  0.00    -0.081 Cl
ATOM     26  C   UNL     1      35.021 -19.958 -21.169  0.00  0.00    +0.057 C 
ATOM     27  C   UNL     1      33.895 -20.560 -20.606  0.00  0.00    -0.008 C 
ATOM     28  C   UNL     1      36.273 -20.128 -20.575  0.00  0.00    +0.071 C 
ATOM     29  C   UNL     1      34.021 -21.331 -19.450  0.00  0.00    -0.003 C 
ATOM     30  C   UNL     1      32.542 -20.398 -21.218  0.00  0.00    +0.032 C 
ATOM     31  C   UNL     1      36.398 -20.899 -19.419  0.00  0.00    +0.013 C 
ATOM     32  C   UNL     1      35.272 -21.501 -18.858  0.00  0.00    +0.001 C 
ENDBRANCH   3  26
TORSDOF 2
ENDMDL
MODEL 5
REMARK VINA RESULT:     -10.0      2.550      4.722
REMARK  Name = 46937119
REMARK  2 active torsions:
REMARK  status: ('A' for Active; 'I' for Inactive)
REMARK    1  A    between atoms: N_3  and  C_26
REMARK    2  A    between atoms: C_5  and  N_16
REMARK                            x       y       z     vdW  Elec       q    Type
REMARK                         _______ _______ _______ _____ _____    ______ ____
ROOT
ATOM      1  N   UNL     1      32.283 -11.673 -21.685  0.00  0.00    -0.242 N 
ATOM      2  N   UNL     1      33.045 -10.043 -23.822  0.00  0.00    -0.388 NA
ATOM      3  N   UNL     1      32.241  -8.119 -22.782  0.00  0.00    -0.287 N 
ATOM      4  N   UNL     1      31.287 -11.228 -19.754  0.00  0.00    -0.224 NA
ATOM      5  C   UNL     1      33.766 -14.209 -23.939  0.00  0.00    +0.045 C 
ATOM      6  C   UNL     1      33.142 -13.667 -22.816  0.00  0.00    +0.032 C 
ATOM      7  C   UNL     1      32.904 -12.293 -22.777  0.00  0.00    +0.084 C 
ATOM      8  C   UNL     1      34.143 -13.386 -25.001  0.00  0.00    -0.004 C 
ATOM      9  C   UNL     1      33.276 -11.442 -23.837  0.00  0.00    +0.129 C 
ATOM     10  C   UNL     1      33.900 -12.011 -24.950  0.00  0.00    +0.088 C 
ATOM     11  C   UNL     1      32.064 -10.318 -21.679  0.00  0.00    +0.121 C 
ATOM     12  C   UNL     1      32.461  -9.478 -22.790  0.00  0.00    +0.199 C 
ATOM     13  C   UNL     1      31.801 -12.176 -20.510  0.00  0.00    +0.172 C 
ATOM     14  C   UNL     1      31.447 -10.069 -20.474  0.00  0.00    +0.119 C 
ATOM     15  H   UNL     1      31.800  -7.748 -21.984  0.00  0.00    +0.155 HD
ENDROOT
BRANCH   5  16
ATOM     16  N   UNL     1      34.016 -15.585 -24.002  0.00  0.00    -0.312 N 
ATOM     17  N   UNL     1      34.750 -18.332 -24.222  0.00  0.00    +0.387 N 
ATOM     18  C   UNL     1      34.415 -17.763 -22.911  0.00  0.00    -0.042 C 
ATOM     19  C   UNL     1      34.697 -16.252 -22.886  0.00  0.00    +0.069 C 
ATOM     20  C   UNL     1      34.220 -16.189 -25.325  0.00  0.00    +0.067 C 
ATOM     21  C   UNL     1      33.959 -17.692 -25.271  0.00  0.00    -0.060 C 
ATOM     22  C   UNL     1      35.225 -18.479 -21.832  0.00  0.00    -0.022 C 
ATOM     23  H   UNL     1      34.552 -19.333 -24.214  0.00  0.00    -0.084 HD
ATOM     24  H   UNL     1      35.740 -18.173 -24.409  0.00  0.00    -0.084 HD
ENDBRANCH   5  16
BRANCH   3  26
ATOM     25 CL   UNL     1      35.198  -7.835 -23.328  0.00  0.00    -0.081 Cl
ATOM     26  C   UNL     1      32.577  -7.217 -23.786  0.00  0.00    +0.057 C 
ATOM     27  C   UNL     1      31.567  -6.524 -24.453  0.00  0.00    -0.008 C 
ATOM     28  C   UNL     1      33.913  -7.001 -24.127  0.00  0.00    +0.071 C 
ATOM     29  C   UNL     1      31.892  -5.615 -25.460  0.00  0.00    -0.003 C 
ATOM     30  C   UNL     1      30.128  -6.732 -24.110  0.00  0.00    +0.032 C 
ATOM     31  C   UNL     1      34.238  -6.092 -25.134  0.00  0.00    +0.013 C 
ATOM     32  C   UNL     1      33.227  -5.399 -25.800  0.00  0.00    +0.001 C 
ENDBRANCH   3  26
TORSDOF 2
ENDMDL
MODEL 6
REMARK VINA RESULT:      -9.7      2.390      4.480
REMARK  Name = 46937119
REMARK  2 active torsions:
REMARK  status: ('A' for Active; 'I' for Inactive)
REMARK    1  A    between atoms: N_3  and  C_26
REMARK    2  A    between atoms: C_5  and  N_16
REMARK                            x       y       z     vdW  Elec       q    Type
REMARK                         _______ _______ _______ _____ _____    ______ ____
ROOT
ATOM      1  N   UNL     1      32.290 -11.720 -21.675  0.00  0.00    -0.242 N 
ATOM      2  N   UNL     1      33.080 -10.102 -23.811  0.00  0.00    -0.388 NA
ATOM      3  N   UNL     1      32.287  -8.169 -22.782  0.00  0.00    -0.287 N 
ATOM      4  N   UNL     1      31.286 -11.261 -19.751  0.00  0.00    -0.224 NA
ATOM      5  C   UNL     1      33.765 -14.275 -23.912  0.00  0.00    +0.045 C 
ATOM      6  C   UNL     1      33.139 -13.724 -22.794  0.00  0.00    +0.032 C 
ATOM      7  C   UNL     1      32.913 -12.349 -22.760  0.00  0.00    +0.084 C 
ATOM      8  C   UNL     1      34.156 -13.459 -24.973  0.00  0.00    -0.004 C 
ATOM      9  C   UNL     1      33.298 -11.504 -23.820  0.00  0.00    +0.129 C 
ATOM     10  C   UNL     1      33.924 -12.081 -24.928  0.00  0.00    +0.088 C 
ATOM     11  C   UNL     1      32.083 -10.363 -21.673  0.00  0.00    +0.121 C 
ATOM     12  C   UNL     1      32.494  -9.529 -22.784  0.00  0.00    +0.199 C 
ATOM     13  C   UNL     1      31.796 -12.215 -20.500  0.00  0.00    +0.172 C 
ATOM     14  C   UNL     1      31.460 -10.105 -20.473  0.00  0.00    +0.119 C 
ATOM     15  H   UNL     1      31.844  -7.792 -21.987  0.00  0.00    +0.155 HD
ENDROOT
BRANCH   5  16
ATOM     16  N   UNL     1      34.004 -15.653 -23.969  0.00  0.00    -0.312 N 
ATOM     17  N   UNL     1      34.719 -18.407 -24.164  0.00  0.00    +0.387 N 
ATOM     18  C   UNL     1      34.310 -17.843 -22.873  0.00  0.00    -0.042 C 
ATOM     19  C   UNL     1      34.606 -16.336 -22.818  0.00  0.00    +0.069 C 
ATOM     20  C   UNL     1      34.282 -16.250 -25.281  0.00  0.00    +0.067 C 
ATOM     21  C   UNL     1      34.002 -17.751 -25.255  0.00  0.00    -0.060 C 
ATOM     22  C   UNL     1      35.043 -18.575 -21.750  0.00  0.00    -0.022 C 
ATOM     23  H   UNL     1      34.509 -19.406 -24.176  0.00  0.00    -0.084 HD
ATOM     24  H   UNL     1      35.721 -18.258 -24.288  0.00  0.00    -0.084 HD
ENDBRANCH   5  16
BRANCH   3  26
ATOM     25 CL   UNL     1      29.972  -6.826 -24.180  0.00  0.00    -0.081 Cl
ATOM     26  C   UNL     1      32.637  -7.272 -23.786  0.00  0.00    +0.057 C 
ATOM     27  C   UNL     1      33.985  -7.057 -24.076  0.00  0.00    -0.008 C 
ATOM     28  C   UNL     1      31.652  -6.591 -24.503  0.00  0.00    +0.071 C 
ATOM     29  C   UNL     1      34.347  -6.162 -25.082  0.00  0.00    -0.003 C 
ATOM     30  C   UNL     1      35.062  -7.772 -23.326  0.00  0.00    +0.032 C 
ATOM     31  C   UNL     1      32.016  -5.696 -25.509  0.00  0.00    +0.013 C 
ATOM     32  C   UNL     1      33.363  -5.482 -25.798  0.00  0.00    +0.001 C 
ENDBRANCH   3  26
TORSDOF 2
ENDMDL
MODEL 7
REMARK VINA RESULT:      -9.6      6.789     13.194
REMARK  Name = 46937119
REMARK  2 active torsions:
REMARK  status: ('A' for Active; 'I' for Inactive)
REMARK    1  A    between atoms: N_3  and  C_26
REMARK    2  A    between atoms: C_5  and  N_16
REMARK                            x       y       z     vdW  Elec       q    Type
REMARK                         _______ _______ _______ _____ _____    ______ ____
ROOT
ATOM      1  N   UNL     1      33.060 -23.187 -16.674  0.00  0.00    -0.242 N 
ATOM      2  N   UNL     1      35.723 -23.551 -15.912  0.00  0.00    -0.388 NA
ATOM      3  N   UNL     1      35.133 -24.877 -14.089  0.00  0.00    -0.287 N 
ATOM      4  N   UNL     1      31.151 -23.919 -15.814  0.00  0.00    -0.224 NA
ATOM      5  C   UNL     1      34.764 -21.218 -19.307  0.00  0.00    +0.045 C 
ATOM      6  C   UNL     1      33.728 -21.800 -18.578  0.00  0.00    +0.032 C 
ATOM      7  C   UNL     1      34.043 -22.570 -17.459  0.00  0.00    +0.084 C 
ATOM      8  C   UNL     1      36.091 -21.406 -18.918  0.00  0.00    -0.004 C 
ATOM      9  C   UNL     1      35.375 -22.774 -17.046  0.00  0.00    +0.129 C 
ATOM     10  C   UNL     1      36.395 -22.179 -17.794  0.00  0.00    +0.088 C 
ATOM     11  C   UNL     1      33.406 -23.938 -15.579  0.00  0.00    +0.121 C 
ATOM     12  C   UNL     1      34.788 -24.123 -15.188  0.00  0.00    +0.199 C 
ATOM     13  C   UNL     1      31.698 -23.205 -16.776  0.00  0.00    +0.172 C 
ATOM     14  C   UNL     1      32.207 -24.379 -15.065  0.00  0.00    +0.119 C 
ATOM     15  H   UNL     1      34.393 -25.283 -13.583  0.00  0.00    +0.155 HD
ENDROOT
BRANCH   5  16
ATOM     16  N   UNL     1      34.472 -20.442 -20.435  0.00  0.00    -0.312 N 
ATOM     17  N   UNL     1      33.826 -18.675 -22.578  0.00  0.00    +0.387 N 
ATOM     18  C   UNL     1      35.173 -19.247 -22.478  0.00  0.00    -0.042 C 
ATOM     19  C   UNL     1      35.513 -19.587 -21.018  0.00  0.00    +0.069 C 
ATOM     20  C   UNL     1      33.092 -19.975 -20.613  0.00  0.00    +0.067 C 
ATOM     21  C   UNL     1      32.832 -19.622 -22.076  0.00  0.00    -0.060 C 
ATOM     22  C   UNL     1      36.184 -18.254 -23.048  0.00  0.00    -0.022 C 
ATOM     23  H   UNL     1      33.623 -18.461 -23.555  0.00  0.00    -0.084 HD
ATOM     24  H   UNL     1      33.785 -17.823 -22.018  0.00  0.00    -0.084 HD
ENDBRANCH   5  16
BRANCH   3  26
ATOM     25 CL   UNL     1      36.693 -26.957 -15.626  0.00  0.00    -0.081 Cl
ATOM     26  C   UNL     1      36.419 -25.123 -13.621  0.00  0.00    +0.057 C 
ATOM     27  C   UNL     1      36.892 -24.422 -12.511  0.00  0.00    -0.008 C 
ATOM     28  C   UNL     1      37.235 -26.064 -14.250  0.00  0.00    +0.071 C 
ATOM     29  C   UNL     1      38.180 -24.662 -12.031  0.00  0.00    -0.003 C 
ATOM     30  C   UNL     1      36.043 -23.409 -11.815  0.00  0.00    +0.032 C 
ATOM     31  C   UNL     1      38.523 -26.304 -13.770  0.00  0.00    +0.013 C 
ATOM     32  C   UNL     1      38.995 -25.603 -12.660  0.00  0.00    +0.001 C 
ENDBRANCH   3  26
TORSDOF 2
ENDMDL
MODEL 8
REMARK VINA RESULT:      -9.4      6.684     13.161
REMARK  Name = 46937119
REMARK  2 active torsions:
REMARK  status: ('A' for Active; 'I' for Inactive)
REMARK    1  A    between atoms: N_3  and  C_26
REMARK    2  A    between atoms: C_5  and  N_16
REMARK                            x       y       z     vdW  Elec       q    Type
REMARK                         _______ _______ _______ _____ _____    ______ ____
ROOT
ATOM      1  N   UNL     1      33.097 -23.184 -16.654  0.00  0.00    -0.242 N 
ATOM      2  N   UNL     1      35.780 -23.551 -15.965  0.00  0.00    -0.388 NA
ATOM      3  N   UNL     1      35.238 -24.872 -14.124  0.00  0.00    -0.287 N 
ATOM      4  N   UNL     1      31.211 -23.910 -15.740  0.00  0.00    -0.224 NA
ATOM      5  C   UNL     1      34.731 -21.223 -19.337  0.00  0.00    +0.045 C 
ATOM      6  C   UNL     1      33.714 -21.802 -18.578  0.00  0.00    +0.032 C 
ATOM      7  C   UNL     1      34.059 -22.570 -17.467  0.00  0.00    +0.084 C 
ATOM      8  C   UNL     1      36.068 -21.413 -18.985  0.00  0.00    -0.004 C 
ATOM      9  C   UNL     1      35.402 -22.775 -17.090  0.00  0.00    +0.129 C 
ATOM     10  C   UNL     1      36.401 -22.184 -17.868  0.00  0.00    +0.088 C 
ATOM     11  C   UNL     1      33.471 -23.933 -15.567  0.00  0.00    +0.121 C 
ATOM     12  C   UNL     1      34.864 -24.120 -15.214  0.00  0.00    +0.199 C 
ATOM     13  C   UNL     1      31.732 -23.200 -16.718  0.00  0.00    +0.172 C 
ATOM     14  C   UNL     1      32.287 -24.370 -15.019  0.00  0.00    +0.119 C 
ATOM     15  H   UNL     1      34.511 -25.275 -13.596  0.00  0.00    +0.155 HD
ENDROOT
BRANCH   5  16
ATOM     16  N   UNL     1      34.410 -20.448 -20.458  0.00  0.00    -0.312 N 
ATOM     17  N   UNL     1      33.714 -18.683 -22.587  0.00  0.00    +0.387 N 
ATOM     18  C   UNL     1      35.049 -19.290 -22.542  0.00  0.00    -0.042 C 
ATOM     19  C   UNL     1      35.445 -19.627 -21.095  0.00  0.00    +0.069 C 
ATOM     20  C   UNL     1      33.035 -19.947 -20.579  0.00  0.00    +0.067 C 
ATOM     21  C   UNL     1      32.720 -19.598 -22.032  0.00  0.00    -0.060 C 
ATOM     22  C   UNL     1      36.059 -18.328 -23.165  0.00  0.00    -0.022 C 
ATOM     23  H   UNL     1      33.474 -18.471 -23.556  0.00  0.00    -0.084 HD
ATOM     24  H   UNL     1      33.722 -17.825 -22.033  0.00  0.00    -0.084 HD
ENDBRANCH   5  16
BRANCH   3  26
ATOM     25 CL   UNL     1      36.192 -23.135 -11.845  0.00  0.00    -0.081 Cl
ATOM     26  C   UNL     1      36.536 -25.119 -13.690  0.00  0.00    +0.057 C 
ATOM     27  C   UNL     1      37.290 -26.115 -14.311  0.00  0.00    -0.008 C 
ATOM     28  C   UNL     1      37.087 -24.379 -12.643  0.00  0.00    +0.071 C 
ATOM     29  C   UNL     1      38.593 -26.371 -13.886  0.00  0.00    -0.003 C 
ATOM     30  C   UNL     1      36.729 -26.924 -15.435  0.00  0.00    +0.032 C 
ATOM     31  C   UNL     1      38.391 -24.635 -12.218  0.00  0.00    +0.013 C 
ATOM     32  C   UNL     1      39.144 -25.631 -12.840  0.00  0.00    +0.001 C 
ENDBRANCH   3  26
TORSDOF 2
ENDMDL
