MODEL 1
REMARK VINA RESULT:      -8.5      0.000      0.000
REMARK  Name = 49867144
REMARK  7 active torsions:
REMARK  status: ('A' for Active; 'I' for Inactive)
REMARK    1  A    between atoms: C_2  and  O_7
REMARK    2  A    between atoms: C_3  and  O_17
REMARK    3  A    between atoms: C_4  and  O_9
REMARK    4  A    between atoms: C_5  and  C_14
REMARK    5  A    between atoms: C_6  and  O_11
REMARK    6  A    between atoms: C_14  and  O_15
REMARK    7  A    between atoms: O_17  and  S_18
REMARK                            x       y       z     vdW  Elec       q    Type
REMARK                         _______ _______ _______ _____ _____    ______ ____
ROOT
ATOM      1  O   UNL     1      38.329 -26.385 -15.487  0.00  0.00    -0.317 OA
ATOM      2  C   UNL     1      36.668 -25.089 -13.508  0.00  0.00    +0.175 C 
ATOM      3  C   UNL     1      36.080 -25.743 -14.759  0.00  0.00    +0.232 C 
ATOM      4  C   UNL     1      38.129 -24.686 -13.749  0.00  0.00    +0.178 C 
ATOM      5  C   UNL     1      38.931 -25.861 -14.304  0.00  0.00    +0.245 C 
ATOM      6  C   UNL     1      37.002 -26.865 -15.260  0.00  0.00    +0.266 C 
ENDROOT
BRANCH   2   7
ATOM      7  O   UNL     1      36.588 -26.028 -12.436  0.00  0.00    -0.379 OA
ATOM      8  H   UNL     1      37.188 -25.757 -11.724  0.00  0.00    +0.211 HD
ENDBRANCH   2   7
BRANCH   4   9
ATOM      9  O   UNL     1      38.716 -24.243 -12.530  0.00  0.00    -0.379 OA
ATOM     10  H   UNL     1      39.588 -23.860 -12.711  0.00  0.00    +0.211 HD
ENDBRANCH   4   9
BRANCH   6  11
ATOM     11  O   UNL     1      36.479 -27.469 -16.440  0.00  0.00    -0.358 OA
ATOM     12  H   UNL     1      36.794 -26.982 -17.218  0.00  0.00    +0.213 HD
ENDBRANCH   6  11
BRANCH   5  14
ATOM     13  O   UNL     1      41.011 -24.642 -14.179  0.00  0.00    -0.247 OA
ATOM     14  C   UNL     1      40.276 -25.414 -14.777  0.00  0.00    +0.344 C 
BRANCH  14  15
ATOM     15  O   UNL     1      40.577 -25.982 -15.971  0.00  0.00    -0.478 OA
ATOM     16  H   UNL     1      40.030 -26.659 -16.318  0.00  0.00    +0.295 HD
ENDBRANCH  14  15
ENDBRANCH   5  14
BRANCH   3  17
ATOM     17  O   UNL     1      35.945 -24.738 -15.762  0.00  0.00    -0.195 OA
BRANCH  17  18
ATOM     18  S   UNL     1      34.743 -23.641 -15.648  0.00  0.00    +0.239 S 
ATOM     19  O   UNL     1      34.221 -23.482 -17.185  0.00  0.00    -0.022 OA
ATOM     20  O   UNL     1      33.672 -24.253 -14.883  0.00  0.00    -0.116 OA
ATOM     21  O   UNL     1      35.301 -22.368 -15.232  0.00  0.00    -0.116 OA
ENDBRANCH  17  18
ENDBRANCH   3  17
TORSDOF 7
ENDMDL
MODEL 2
REMARK VINA RESULT:      -8.1      2.013      3.693
REMARK  Name = 49867144
REMARK  7 active torsions:
REMARK  status: ('A' for Active; 'I' for Inactive)
REMARK    1  A    between atoms: C_2  and  O_7
REMARK    2  A    between atoms: C_3  and  O_17
REMARK    3  A    between atoms: C_4  and  O_9
REMARK    4  A    between atoms: C_5  and  C_14
REMARK    5  A    between atoms: C_6  and  O_11
REMARK    6  A    between atoms: C_14  and  O_15
REMARK    7  A    between atoms: O_17  and  S_18
REMARK                            x       y       z     vdW  Elec       q    Type
REMARK                         _______ _______ _______ _____ _____    ______ ____
ROOT
ATOM      1  O   UNL     1      38.745 -24.215 -13.891  0.00  0.00    -0.317 OA
ATOM      2  C   UNL     1      36.202 -25.386 -14.604  0.00  0.00    +0.175 C 
ATOM      3  C   UNL     1      36.330 -24.331 -13.505  0.00  0.00    +0.232 C 
ATOM      4  C   UNL     1      37.532 -26.127 -14.796  0.00  0.00    +0.178 C 
ATOM      5  C   UNL     1      38.681 -25.138 -14.978  0.00  0.00    +0.245 C 
ATOM      6  C   UNL     1      37.553 -23.438 -13.761  0.00  0.00    +0.266 C 
ENDROOT
BRANCH   2   7
ATOM      7  O   UNL     1      35.828 -24.726 -15.813  0.00  0.00    -0.379 OA
ATOM      8  H   UNL     1      36.536 -24.829 -16.469  0.00  0.00    +0.211 HD
ENDBRANCH   2   7
BRANCH   4   9
ATOM      9  O   UNL     1      37.452 -26.978 -15.934  0.00  0.00    -0.379 OA
ATOM     10  H   UNL     1      37.612 -26.460 -16.738  0.00  0.00    +0.211 HD
ENDBRANCH   4   9
BRANCH   6  11
ATOM     11  O   UNL     1      37.700 -22.464 -12.732  0.00  0.00    -0.358 OA
ATOM     12  H   UNL     1      38.206 -21.709 -13.071  0.00  0.00    +0.213 HD
ENDBRANCH   6  11
BRANCH   5  14
ATOM     13  O   UNL     1      40.548 -26.205 -13.882  0.00  0.00    -0.247 OA
ATOM     14  C   UNL     1      40.002 -25.834 -14.910  0.00  0.00    +0.344 C 
BRANCH  14  15
ATOM     15  O   UNL     1      40.519 -26.001 -16.152  0.00  0.00    -0.478 OA
ATOM     16  H   UNL     1      40.517 -26.849 -16.550  0.00  0.00    +0.295 HD
ENDBRANCH  14  15
ENDBRANCH   5  14
BRANCH   3  17
ATOM     17  O   UNL     1      36.472 -25.007 -12.257  0.00  0.00    -0.195 OA
BRANCH  17  18
ATOM     18  S   UNL     1      35.774 -24.385 -10.919  0.00  0.00    +0.239 S 
ATOM     19  O   UNL     1      34.564 -23.464 -11.510  0.00  0.00    -0.022 OA
ATOM     20  O   UNL     1      35.172 -25.488 -10.194  0.00  0.00    -0.116 OA
ATOM     21  O   UNL     1      36.721 -23.507 -10.257  0.00  0.00    -0.116 OA
ENDBRANCH  17  18
ENDBRANCH   3  17
TORSDOF 7
ENDMDL
MODEL 3
REMARK VINA RESULT:      -7.8      2.383      4.869
REMARK  Name = 49867144
REMARK  7 active torsions:
REMARK  status: ('A' for Active; 'I' for Inactive)
REMARK    1  A    between atoms: C_2  and  O_7
REMARK    2  A    between atoms: C_3  and  O_17
REMARK    3  A    between atoms: C_4  and  O_9
REMARK    4  A    between atoms: C_5  and  C_14
REMARK    5  A    between atoms: C_6  and  O_11
REMARK    6  A    between atoms: C_14  and  O_15
REMARK    7  A    between atoms: O_17  and  S_18
REMARK                            x       y       z     vdW  Elec       q    Type
REMARK                         _______ _______ _______ _____ _____    ______ ____
ROOT
ATOM      1  O   UNL     1      36.288 -25.670 -12.783  0.00  0.00    -0.317 OA
ATOM      2  C   UNL     1      37.961 -23.831 -14.256  0.00  0.00    +0.175 C 
ATOM      3  C   UNL     1      37.839 -25.305 -14.642  0.00  0.00    +0.232 C 
ATOM      4  C   UNL     1      37.632 -23.636 -12.769  0.00  0.00    +0.178 C 
ATOM      5  C   UNL     1      36.298 -24.290 -12.418  0.00  0.00    +0.245 C 
ATOM      6  C   UNL     1      36.486 -25.869 -14.184  0.00  0.00    +0.266 C 
ENDROOT
BRANCH   2   7
ATOM      7  O   UNL     1      37.050 -23.083 -15.061  0.00  0.00    -0.379 OA
ATOM      8  H   UNL     1      37.258 -23.221 -15.998  0.00  0.00    +0.211 HD
ENDBRANCH   2   7
BRANCH   4   9
ATOM      9  O   UNL     1      37.576 -22.247 -12.463  0.00  0.00    -0.379 OA
ATOM     10  H   UNL     1      37.962 -21.739 -13.194  0.00  0.00    +0.211 HD
ENDBRANCH   4   9
BRANCH   6  11
ATOM     11  O   UNL     1      36.367 -27.249 -14.516  0.00  0.00    -0.358 OA
ATOM     12  H   UNL     1      35.490 -27.415 -14.897  0.00  0.00    +0.213 HD
ENDBRANCH   6  11
BRANCH   5  14
ATOM     13  O   UNL     1      36.655 -23.601 -10.133  0.00  0.00    -0.247 OA
ATOM     14  C   UNL     1      36.094 -24.329 -10.938  0.00  0.00    +0.344 C 
BRANCH  14  15
ATOM     15  O   UNL     1      35.196 -25.288 -10.604  0.00  0.00    -0.478 OA
ATOM     16  H   UNL     1      35.239 -26.131 -11.011  0.00  0.00    +0.295 HD
ENDBRANCH  14  15
ENDBRANCH   5  14
BRANCH   3  17
ATOM     17  O   UNL     1      38.903 -26.016 -14.012  0.00  0.00    -0.195 OA
BRANCH  17  18
ATOM     18  S   UNL     1      40.436 -25.796 -14.525  0.00  0.00    +0.239 S 
ATOM     19  O   UNL     1      41.253 -27.026 -13.833  0.00  0.00    -0.022 OA
ATOM     20  O   UNL     1      40.447 -26.016 -15.959  0.00  0.00    -0.116 OA
ATOM     21  O   UNL     1      40.946 -24.555 -13.973  0.00  0.00    -0.116 OA
ENDBRANCH  17  18
ENDBRANCH   3  17
TORSDOF 7
ENDMDL
MODEL 4
REMARK VINA RESULT:      -7.7      2.061      5.201
REMARK  Name = 49867144
REMARK  7 active torsions:
REMARK  status: ('A' for Active; 'I' for Inactive)
REMARK    1  A    between atoms: C_2  and  O_7
REMARK    2  A    between atoms: C_3  and  O_17
REMARK    3  A    between atoms: C_4  and  O_9
REMARK    4  A    between atoms: C_5  and  C_14
REMARK    5  A    between atoms: C_6  and  O_11
REMARK    6  A    between atoms: C_14  and  O_15
REMARK    7  A    between atoms: O_17  and  S_18
REMARK                            x       y       z     vdW  Elec       q    Type
REMARK                         _______ _______ _______ _____ _____    ______ ____
ROOT
ATOM      1  O   UNL     1      36.528 -23.463 -13.640  0.00  0.00    -0.317 OA
ATOM      2  C   UNL     1      37.474 -26.174 -13.959  0.00  0.00    +0.175 C 
ATOM      3  C   UNL     1      38.308 -25.101 -13.261  0.00  0.00    +0.232 C 
ATOM      4  C   UNL     1      36.473 -25.531 -14.929  0.00  0.00    +0.178 C 
ATOM      5  C   UNL     1      35.669 -24.437 -14.232  0.00  0.00    +0.245 C 
ATOM      6  C   UNL     1      37.396 -24.024 -12.653  0.00  0.00    +0.266 C 
ENDROOT
BRANCH   2   7
ATOM      7  O   UNL     1      36.778 -26.918 -12.958  0.00  0.00    -0.379 OA
ATOM      8  H   UNL     1      36.447 -27.745 -13.342  0.00  0.00    +0.211 HD
ENDBRANCH   2   7
BRANCH   4   9
ATOM      9  O   UNL     1      35.587 -26.522 -15.438  0.00  0.00    -0.379 OA
ATOM     10  H   UNL     1      35.154 -26.189 -16.239  0.00  0.00    +0.211 HD
ENDBRANCH   4   9
BRANCH   6  11
ATOM     11  O   UNL     1      38.161 -23.003 -12.019  0.00  0.00    -0.358 OA
ATOM     12  H   UNL     1      38.920 -22.774 -12.578  0.00  0.00    +0.213 HD
ENDBRANCH   6  11
BRANCH   5  14
ATOM     13  O   UNL     1      34.919 -23.790 -16.433  0.00  0.00    -0.247 OA
ATOM     14  C   UNL     1      34.882 -23.639 -15.221  0.00  0.00    +0.344 C 
BRANCH  14  15
ATOM     15  O   UNL     1      34.116 -22.716 -14.589  0.00  0.00    -0.478 OA
ATOM     16  H   UNL     1      33.686 -22.047 -15.084  0.00  0.00    +0.295 HD
ENDBRANCH  14  15
ENDBRANCH   5  14
BRANCH   3  17
ATOM     17  O   UNL     1      39.176 -24.515 -14.230  0.00  0.00    -0.195 OA
BRANCH  17  18
ATOM     18  S   UNL     1      40.584 -25.251 -14.602  0.00  0.00    +0.239 S 
ATOM     19  O   UNL     1      40.296 -25.916 -16.063  0.00  0.00    -0.022 OA
ATOM     20  O   UNL     1      41.579 -24.212 -14.783  0.00  0.00    -0.116 OA
ATOM     21  O   UNL     1      40.818 -26.329 -13.659  0.00  0.00    -0.116 OA
ENDBRANCH  17  18
ENDBRANCH   3  17
TORSDOF 7
ENDMDL
MODEL 5
REMARK VINA RESULT:      -7.2      2.110      3.650
REMARK  Name = 49867144
REMARK  7 active torsions:
REMARK  status: ('A' for Active; 'I' for Inactive)
REMARK    1  A    between atoms: C_2  and  O_7
REMARK    2  A    between atoms: C_3  and  O_17
REMARK    3  A    between atoms: C_4  and  O_9
REMARK    4  A    between atoms: C_5  and  C_14
REMARK    5  A    between atoms: C_6  and  O_11
REMARK    6  A    between atoms: C_14  and  O_15
REMARK    7  A    between atoms: O_17  and  S_18
REMARK                            x       y       z     vdW  Elec       q    Type
REMARK                         _______ _______ _______ _____ _____    ______ ____
ROOT
ATOM      1  O   UNL     1      36.425 -23.162 -13.415  0.00  0.00    -0.317 OA
ATOM      2  C   UNL     1      36.071 -25.765 -14.618  0.00  0.00    +0.175 C 
ATOM      3  C   UNL     1      35.058 -24.636 -14.812  0.00  0.00    +0.232 C 
ATOM      4  C   UNL     1      36.864 -25.558 -13.321  0.00  0.00    +0.178 C 
ATOM      5  C   UNL     1      37.445 -24.148 -13.259  0.00  0.00    +0.245 C 
ATOM      6  C   UNL     1      35.744 -23.270 -14.667  0.00  0.00    +0.266 C 
ENDROOT
BRANCH   2   7
ATOM      7  O   UNL     1      36.955 -25.766 -15.739  0.00  0.00    -0.379 OA
ATOM      8  H   UNL     1      37.726 -26.320 -15.542  0.00  0.00    +0.211 HD
ENDBRANCH   2   7
BRANCH   4   9
ATOM      9  O   UNL     1      37.918 -26.511 -13.241  0.00  0.00    -0.379 OA
ATOM     10  H   UNL     1      37.567 -27.356 -12.918  0.00  0.00    +0.211 HD
ENDBRANCH   4   9
BRANCH   6  11
ATOM     11  O   UNL     1      34.808 -22.207 -14.821  0.00  0.00    -0.358 OA
ATOM     12  H   UNL     1      34.062 -22.510 -15.362  0.00  0.00    +0.213 HD
ENDBRANCH   6  11
BRANCH   5  14
ATOM     13  O   UNL     1      38.922 -23.094 -11.668  0.00  0.00    -0.247 OA
ATOM     14  C   UNL     1      37.996 -23.855 -11.901  0.00  0.00    +0.344 C 
BRANCH  14  15
ATOM     15  O   UNL     1      37.326 -24.554 -10.952  0.00  0.00    -0.478 OA
ATOM     16  H   UNL     1      37.511 -25.463 -10.822  0.00  0.00    +0.295 HD
ENDBRANCH  14  15
ENDBRANCH   5  14
BRANCH   3  17
ATOM     17  O   UNL     1      34.041 -24.780 -13.822  0.00  0.00    -0.195 OA
BRANCH  17  18
ATOM     18  S   UNL     1      32.501 -24.379 -14.183  0.00  0.00    +0.239 S 
ATOM     19  O   UNL     1      32.157 -23.185 -13.126  0.00  0.00    -0.022 OA
ATOM     20  O   UNL     1      32.507 -23.798 -15.513  0.00  0.00    -0.116 OA
ATOM     21  O   UNL     1      31.636 -25.504 -13.883  0.00  0.00    -0.116 OA
ENDBRANCH  17  18
ENDBRANCH   3  17
TORSDOF 7
ENDMDL
MODEL 6
REMARK VINA RESULT:      -7.2      2.542      5.093
REMARK  Name = 49867144
REMARK  7 active torsions:
REMARK  status: ('A' for Active; 'I' for Inactive)
REMARK    1  A    between atoms: C_2  and  O_7
REMARK    2  A    between atoms: C_3  and  O_17
REMARK    3  A    between atoms: C_4  and  O_9
REMARK    4  A    between atoms: C_5  and  C_14
REMARK    5  A    between atoms: C_6  and  O_11
REMARK    6  A    between atoms: C_14  and  O_15
REMARK    7  A    between atoms: O_17  and  S_18
REMARK                            x       y       z     vdW  Elec       q    Type
REMARK                         _______ _______ _______ _____ _____    ______ ____
ROOT
ATOM      1  O   UNL     1      36.453 -23.979 -14.433  0.00  0.00    -0.317 OA
ATOM      2  C   UNL     1      37.928 -24.358 -11.977  0.00  0.00    +0.175 C 
ATOM      3  C   UNL     1      38.628 -24.170 -13.323  0.00  0.00    +0.232 C 
ATOM      4  C   UNL     1      36.511 -24.912 -12.181  0.00  0.00    +0.178 C 
ATOM      5  C   UNL     1      35.743 -24.072 -13.198  0.00  0.00    +0.245 C 
ATOM      6  C   UNL     1      37.736 -23.367 -14.282  0.00  0.00    +0.266 C 
ENDROOT
BRANCH   2   7
ATOM      7  O   UNL     1      37.870 -23.091 -11.323  0.00  0.00    -0.379 OA
ATOM      8  H   UNL     1      38.634 -22.996 -10.733  0.00  0.00    +0.211 HD
ENDBRANCH   2   7
BRANCH   4   9
ATOM      9  O   UNL     1      35.810 -24.916 -10.941  0.00  0.00    -0.379 OA
ATOM     10  H   UNL     1      36.242 -25.531 -10.328  0.00  0.00    +0.211 HD
ENDBRANCH   4   9
BRANCH   6  11
ATOM     11  O   UNL     1      38.365 -23.203 -15.550  0.00  0.00    -0.358 OA
ATOM     12  H   UNL     1      38.678 -24.064 -15.868  0.00  0.00    +0.213 HD
ENDBRANCH   6  11
BRANCH   5  14
ATOM     13  O   UNL     1      33.407 -24.643 -12.991  0.00  0.00    -0.247 OA
ATOM     14  C   UNL     1      34.467 -24.744 -13.591  0.00  0.00    +0.344 C 
BRANCH  14  15
ATOM     15  O   UNL     1      34.642 -25.487 -14.711  0.00  0.00    -0.478 OA
ATOM     16  H   UNL     1      34.100 -25.339 -15.461  0.00  0.00    +0.295 HD
ENDBRANCH  14  15
ENDBRANCH   5  14
BRANCH   3  17
ATOM     17  O   UNL     1      38.893 -25.461 -13.868  0.00  0.00    -0.195 OA
BRANCH  17  18
ATOM     18  S   UNL     1      40.329 -25.754 -14.586  0.00  0.00    +0.239 S 
ATOM     19  O   UNL     1      41.163 -24.371 -14.353  0.00  0.00    -0.022 OA
ATOM     20  O   UNL     1      40.988 -26.796 -13.823  0.00  0.00    -0.116 OA
ATOM     21  O   UNL     1      40.121 -25.915 -16.012  0.00  0.00    -0.116 OA
ENDBRANCH  17  18
ENDBRANCH   3  17
TORSDOF 7
ENDMDL
MODEL 7
REMARK VINA RESULT:      -7.2      2.722      5.823
REMARK  Name = 49867144
REMARK  7 active torsions:
REMARK  status: ('A' for Active; 'I' for Inactive)
REMARK    1  A    between atoms: C_2  and  O_7
REMARK    2  A    between atoms: C_3  and  O_17
REMARK    3  A    between atoms: C_4  and  O_9
REMARK    4  A    between atoms: C_5  and  C_14
REMARK    5  A    between atoms: C_6  and  O_11
REMARK    6  A    between atoms: C_14  and  O_15
REMARK    7  A    between atoms: O_17  and  S_18
REMARK                            x       y       z     vdW  Elec       q    Type
REMARK                         _______ _______ _______ _____ _____    ______ ____
ROOT
ATOM      1  O   UNL     1      33.843 -23.345 -16.031  0.00  0.00    -0.317 OA
ATOM      2  C   UNL     1      34.162 -24.486 -13.395  0.00  0.00    +0.175 C 
ATOM      3  C   UNL     1      35.329 -24.368 -14.375  0.00  0.00    +0.232 C 
ATOM      4  C   UNL     1      32.827 -24.520 -14.152  0.00  0.00    +0.178 C 
ATOM      5  C   UNL     1      32.732 -23.356 -15.136  0.00  0.00    +0.245 C 
ATOM      6  C   UNL     1      35.093 -23.206 -15.352  0.00  0.00    +0.266 C 
ENDROOT
BRANCH   2   7
ATOM      7  O   UNL     1      34.200 -23.361 -12.518  0.00  0.00    -0.379 OA
ATOM      8  H   UNL     1      34.652 -23.606 -11.696  0.00  0.00    +0.211 HD
ENDBRANCH   2   7
BRANCH   4   9
ATOM      9  O   UNL     1      31.745 -24.452 -13.229  0.00  0.00    -0.379 OA
ATOM     10  H   UNL     1      30.945 -24.154 -13.688  0.00  0.00    +0.211 HD
ENDBRANCH   4   9
BRANCH   6  11
ATOM     11  O   UNL     1      36.162 -23.098 -16.287  0.00  0.00    -0.358 OA
ATOM     12  H   UNL     1      37.008 -23.219 -15.826  0.00  0.00    +0.213 HD
ENDBRANCH   6  11
BRANCH   5  14
ATOM     13  O   UNL     1      30.593 -24.233 -15.828  0.00  0.00    -0.247 OA
ATOM     14  C   UNL     1      31.562 -23.523 -16.050  0.00  0.00    +0.344 C 
BRANCH  14  15
ATOM     15  O   UNL     1      31.719 -22.775 -17.170  0.00  0.00    -0.478 OA
ATOM     16  H   UNL     1      32.169 -23.130 -17.910  0.00  0.00    +0.295 HD
ENDBRANCH  14  15
ENDBRANCH   5  14
BRANCH   3  17
ATOM     17  O   UNL     1      35.430 -25.596 -15.093  0.00  0.00    -0.195 OA
BRANCH  17  18
ATOM     18  S   UNL     1      36.822 -26.448 -15.043  0.00  0.00    +0.239 S 
ATOM     19  O   UNL     1      37.975 -25.312 -15.244  0.00  0.00    -0.022 OA
ATOM     20  O   UNL     1      36.957 -26.975 -13.698  0.00  0.00    -0.116 OA
ATOM     21  O   UNL     1      36.871 -27.341 -16.185  0.00  0.00    -0.116 OA
ENDBRANCH  17  18
ENDBRANCH   3  17
TORSDOF 7
ENDMDL
MODEL 8
REMARK VINA RESULT:      -7.2      2.310      4.860
REMARK  Name = 49867144
REMARK  7 active torsions:
REMARK  status: ('A' for Active; 'I' for Inactive)
REMARK    1  A    between atoms: C_2  and  O_7
REMARK    2  A    between atoms: C_3  and  O_17
REMARK    3  A    between atoms: C_4  and  O_9
REMARK    4  A    between atoms: C_5  and  C_14
REMARK    5  A    between atoms: C_6  and  O_11
REMARK    6  A    between atoms: C_14  and  O_15
REMARK    7  A    between atoms: O_17  and  S_18
REMARK                            x       y       z     vdW  Elec       q    Type
REMARK                         _______ _______ _______ _____ _____    ______ ____
ROOT
ATOM      1  O   UNL     1      35.260 -24.833 -15.815  0.00  0.00    -0.317 OA
ATOM      2  C   UNL     1      37.459 -23.273 -14.777  0.00  0.00    +0.175 C 
ATOM      3  C   UNL     1      37.073 -24.626 -14.181  0.00  0.00    +0.232 C 
ATOM      4  C   UNL     1      36.256 -22.633 -15.482  0.00  0.00    +0.178 C 
ATOM      5  C   UNL     1      35.618 -23.613 -16.463  0.00  0.00    +0.245 C 
ATOM      6  C   UNL     1      36.386 -25.501 -15.241  0.00  0.00    +0.266 C 
ENDROOT
BRANCH   2   7
ATOM      7  O   UNL     1      38.520 -23.482 -15.708  0.00  0.00    -0.379 OA
ATOM      8  H   UNL     1      39.372 -23.392 -15.254  0.00  0.00    +0.211 HD
ENDBRANCH   2   7
BRANCH   4   9
ATOM      9  O   UNL     1      36.670 -21.463 -16.180  0.00  0.00    -0.379 OA
ATOM     10  H   UNL     1      36.731 -20.721 -15.559  0.00  0.00    +0.211 HD
ENDBRANCH   4   9
BRANCH   6  11
ATOM     11  O   UNL     1      35.998 -26.758 -14.695  0.00  0.00    -0.358 OA
ATOM     12  H   UNL     1      35.539 -26.616 -13.852  0.00  0.00    +0.213 HD
ENDBRANCH   6  11
BRANCH   5  14
ATOM     13  O   UNL     1      33.251 -23.156 -16.350  0.00  0.00    -0.247 OA
ATOM     14  C   UNL     1      34.308 -23.096 -16.961  0.00  0.00    +0.344 C 
BRANCH  14  15
ATOM     15  O   UNL     1      34.447 -22.547 -18.193  0.00  0.00    -0.478 OA
ATOM     16  H   UNL     1      34.781 -21.677 -18.283  0.00  0.00    +0.295 HD
ENDBRANCH  14  15
ENDBRANCH   5  14
BRANCH   3  17
ATOM     17  O   UNL     1      36.184 -24.393 -13.091  0.00  0.00    -0.195 OA
BRANCH  17  18
ATOM     18  S   UNL     1      36.560 -24.961 -11.608  0.00  0.00    +0.239 S 
ATOM     19  O   UNL     1      37.035 -26.495 -11.893  0.00  0.00    -0.022 OA
ATOM     20  O   UNL     1      37.720 -24.223 -11.144  0.00  0.00    -0.116 OA
ATOM     21  O   UNL     1      35.356 -25.010 -10.800  0.00  0.00    -0.116 OA
ENDBRANCH  17  18
ENDBRANCH   3  17
TORSDOF 7
ENDMDL
MODEL 9
REMARK VINA RESULT:      -7.1      2.796      5.840
REMARK  Name = 49867144
REMARK  7 active torsions:
REMARK  status: ('A' for Active; 'I' for Inactive)
REMARK    1  A    between atoms: C_2  and  O_7
REMARK    2  A    between atoms: C_3  and  O_17
REMARK    3  A    between atoms: C_4  and  O_9
REMARK    4  A    between atoms: C_5  and  C_14
REMARK    5  A    between atoms: C_6  and  O_11
REMARK    6  A    between atoms: C_14  and  O_15
REMARK    7  A    between atoms: O_17  and  S_18
REMARK                            x       y       z     vdW  Elec       q    Type
REMARK                         _______ _______ _______ _____ _____    ______ ____
ROOT
ATOM      1  O   UNL     1      33.788 -24.199 -12.995  0.00  0.00    -0.317 OA
ATOM      2  C   UNL     1      35.939 -24.286 -14.922  0.00  0.00    +0.175 C 
ATOM      3  C   UNL     1      36.185 -24.459 -13.423  0.00  0.00    +0.232 C 
ATOM      4  C   UNL     1      34.645 -23.499 -15.168  0.00  0.00    +0.178 C 
ATOM      5  C   UNL     1      33.483 -24.108 -14.387  0.00  0.00    +0.245 C 
ATOM      6  C   UNL     1      34.930 -25.018 -12.736  0.00  0.00    +0.266 C 
ENDROOT
BRANCH   2   7
ATOM      7  O   UNL     1      35.843 -25.584 -15.510  0.00  0.00    -0.379 OA
ATOM      8  H   UNL     1      35.209 -25.561 -16.244  0.00  0.00    +0.211 HD
ENDBRANCH   2   7
BRANCH   4   9
ATOM      9  O   UNL     1      34.336 -23.497 -16.557  0.00  0.00    -0.379 OA
ATOM     10  H   UNL     1      33.940 -24.348 -16.802  0.00  0.00    +0.211 HD
ENDBRANCH   4   9
BRANCH   6  11
ATOM     11  O   UNL     1      35.135 -25.162 -11.334  0.00  0.00    -0.358 OA
ATOM     12  H   UNL     1      34.293 -25.381 -10.905  0.00  0.00    +0.213 HD
ENDBRANCH   6  11
BRANCH   5  14
ATOM     13  O   UNL     1      31.689 -22.871 -15.424  0.00  0.00    -0.247 OA
ATOM     14  C   UNL     1      32.290 -23.209 -14.415  0.00  0.00    +0.344 C 
BRANCH  14  15
ATOM     15  O   UNL     1      31.960 -22.812 -13.161  0.00  0.00    -0.478 OA
ATOM     16  H   UNL     1      32.261 -23.301 -12.422  0.00  0.00    +0.295 HD
ENDBRANCH  14  15
ENDBRANCH   5  14
BRANCH   3  17
ATOM     17  O   UNL     1      36.512 -23.182 -12.879  0.00  0.00    -0.195 OA
BRANCH  17  18
ATOM     18  S   UNL     1      37.506 -23.085 -11.588  0.00  0.00    +0.239 S 
ATOM     19  O   UNL     1      38.160 -24.577 -11.495  0.00  0.00    -0.022 OA
ATOM     20  O   UNL     1      38.570 -22.161 -11.932  0.00  0.00    -0.116 OA
ATOM     21  O   UNL     1      36.711 -22.871 -10.394  0.00  0.00    -0.116 OA
ENDBRANCH  17  18
ENDBRANCH   3  17
TORSDOF 7
ENDMDL
