MODEL 1
REMARK VINA RESULT:      -9.1      0.000      0.000
REMARK  Name = 5284533
REMARK  2 active torsions:
REMARK  status: ('A' for Active; 'I' for Inactive)
REMARK    1  A    between atoms: C_7  and  C_23
REMARK    2  A    between atoms: C_7  and  O_25
REMARK                            x       y       z     vdW  Elec       q    Type
REMARK                         _______ _______ _______ _____ _____    ______ ____
ROOT
ATOM      1 CL   UNL     1      37.611 -22.483 -16.973  0.00  0.00    -0.083 Cl
ATOM      2  O   UNL     1      39.885 -25.818 -13.700  0.00  0.00    -0.291 OA
ATOM      3  C   UNL     1      31.638 -23.919 -14.765  0.00  0.00    +0.029 C 
ATOM      4  C   UNL     1      32.781 -23.563 -15.752  0.00  0.00    +0.007 C 
ATOM      5  C   UNL     1      34.100 -23.246 -15.031  0.00  0.00    +0.023 C 
ATOM      6  C   UNL     1      34.533 -24.519 -14.246  0.00  0.00    +0.008 C 
ATOM      7  C   UNL     1      30.475 -24.093 -15.774  0.00  0.00    +0.139 C 
ATOM      8  C   UNL     1      32.064 -25.173 -13.980  0.00  0.00    +0.003 C 
ATOM      9  C   UNL     1      32.148 -22.501 -16.649  0.00  0.00    +0.003 C 
ATOM     10  C   UNL     1      33.420 -24.980 -13.273  0.00  0.00    +0.001 C 
ATOM     11  C   UNL     1      35.961 -24.347 -13.613  0.00  0.00    +0.021 C 
ATOM     12  C   UNL     1      30.677 -22.943 -16.786  0.00  0.00    +0.034 C 
ATOM     13  C   UNL     1      31.308 -22.777 -13.763  0.00  0.00    +0.003 C 
ATOM     14  C   UNL     1      35.197 -22.793 -15.955  0.00  0.00    -0.015 C 
ATOM     15  C   UNL     1      36.969 -24.029 -14.744  0.00  0.00    -0.010 C 
ATOM     16  C   UNL     1      36.362 -25.673 -12.910  0.00  0.00    +0.012 C 
ATOM     17  C   UNL     1      35.997 -23.199 -12.576  0.00  0.00    +0.004 C 
ATOM     18  C   UNL     1      36.484 -23.157 -15.825  0.00  0.00    +0.049 C 
ATOM     19  C   UNL     1      37.824 -25.725 -12.498  0.00  0.00    +0.069 C 
ATOM     20  C   UNL     1      38.213 -24.546 -14.750  0.00  0.00    +0.034 C 
ATOM     21  C   UNL     1      38.725 -25.412 -13.660  0.00  0.00    +0.173 C 
ENDROOT
BRANCH   7  23
ATOM     22  O   UNL     1      28.743 -25.007 -14.412  0.00  0.00    -0.294 OA
ATOM     23  C   UNL     1      29.107 -24.103 -15.163  0.00  0.00    +0.175 C 
ATOM     24  C   UNL     1      28.201 -22.953 -15.511  0.00  0.00    +0.075 C 
ENDBRANCH   7  23
BRANCH   7  25
ATOM     25  O   UNL     1      30.568 -25.343 -16.452  0.00  0.00    -0.380 OA
ATOM     26  H   UNL     1      29.691 -25.604 -16.772  0.00  0.00    +0.211 HD
ENDBRANCH   7  25
TORSDOF 2
ENDMDL
MODEL 2
REMARK VINA RESULT:      -8.5      1.971      6.897
REMARK  Name = 5284533
REMARK  2 active torsions:
REMARK  status: ('A' for Active; 'I' for Inactive)
REMARK    1  A    between atoms: C_7  and  C_23
REMARK    2  A    between atoms: C_7  and  O_25
REMARK                            x       y       z     vdW  Elec       q    Type
REMARK                         _______ _______ _______ _____ _____    ______ ____
ROOT
ATOM      1 CL   UNL     1      32.459 -21.865 -18.824  0.00  0.00    -0.083 Cl
ATOM      2  O   UNL     1      28.017 -21.952 -16.127  0.00  0.00    -0.291 OA
ATOM      3  C   UNL     1      35.891 -24.292 -13.830  0.00  0.00    +0.029 C 
ATOM      4  C   UNL     1      35.531 -23.432 -15.070  0.00  0.00    +0.007 C 
ATOM      5  C   UNL     1      34.190 -23.841 -15.697  0.00  0.00    +0.023 C 
ATOM      6  C   UNL     1      33.077 -23.621 -14.631  0.00  0.00    +0.008 C 
ATOM      7  C   UNL     1      37.286 -23.699 -13.505  0.00  0.00    +0.139 C 
ATOM      8  C   UNL     1      34.790 -24.085 -12.774  0.00  0.00    +0.003 C 
ATOM      9  C   UNL     1      36.800 -23.495 -15.918  0.00  0.00    +0.003 C 
ATOM     10  C   UNL     1      33.388 -24.404 -13.330  0.00  0.00    +0.001 C 
ATOM     11  C   UNL     1      31.645 -23.852 -15.236  0.00  0.00    +0.021 C 
ATOM     12  C   UNL     1      37.948 -23.510 -14.887  0.00  0.00    +0.034 C 
ATOM     13  C   UNL     1      36.018 -25.810 -14.145  0.00  0.00    +0.003 C 
ATOM     14  C   UNL     1      33.865 -23.098 -16.963  0.00  0.00    -0.015 C 
ATOM     15  C   UNL     1      31.455 -22.892 -16.435  0.00  0.00    -0.010 C 
ATOM     16  C   UNL     1      30.583 -23.546 -14.144  0.00  0.00    +0.012 C 
ATOM     17  C   UNL     1      31.455 -25.308 -15.727  0.00  0.00    +0.004 C 
ATOM     18  C   UNL     1      32.634 -22.666 -17.284  0.00  0.00    +0.049 C 
ATOM     19  C   UNL     1      29.164 -23.469 -14.682  0.00  0.00    +0.069 C 
ATOM     20  C   UNL     1      30.279 -22.278 -16.670  0.00  0.00    +0.034 C 
ATOM     21  C   UNL     1      29.075 -22.508 -15.836  0.00  0.00    +0.173 C 
ENDROOT
BRANCH   7  23
ATOM     22  O   UNL     1      37.908 -24.515 -11.351  0.00  0.00    -0.294 OA
ATOM     23  C   UNL     1      38.115 -24.519 -12.564  0.00  0.00    +0.175 C 
ATOM     24  C   UNL     1      39.212 -25.348 -13.175  0.00  0.00    +0.075 C 
ENDBRANCH   7  23
BRANCH   7  25
ATOM     25  O   UNL     1      37.165 -22.434 -12.859  0.00  0.00    -0.380 OA
ATOM     26  H   UNL     1      36.280 -22.072 -13.020  0.00  0.00    +0.211 HD
ENDBRANCH   7  25
TORSDOF 2
ENDMDL
MODEL 3
REMARK VINA RESULT:      -7.6     10.902     13.441
REMARK  Name = 5284533
REMARK  2 active torsions:
REMARK  status: ('A' for Active; 'I' for Inactive)
REMARK    1  A    between atoms: C_7  and  C_23
REMARK    2  A    between atoms: C_7  and  O_25
REMARK                            x       y       z     vdW  Elec       q    Type
REMARK                         _______ _______ _______ _____ _____    ______ ____
ROOT
ATOM      1 CL   UNL     1      33.392 -14.062 -27.476  0.00  0.00    -0.083 Cl
ATOM      2  O   UNL     1      33.832  -9.487 -25.051  0.00  0.00    -0.291 OA
ATOM      3  C   UNL     1      34.662 -17.417 -22.023  0.00  0.00    +0.029 C 
ATOM      4  C   UNL     1      34.659 -17.020 -23.523  0.00  0.00    +0.007 C 
ATOM      5  C   UNL     1      33.724 -15.836 -23.813  0.00  0.00    +0.023 C 
ATOM      6  C   UNL     1      34.238 -14.611 -23.001  0.00  0.00    +0.008 C 
ATOM      7  C   UNL     1      35.603 -18.648 -22.088  0.00  0.00    +0.139 C 
ATOM      8  C   UNL     1      35.162 -16.208 -21.214  0.00  0.00    +0.003 C 
ATOM      9  C   UNL     1      34.420 -18.350 -24.236  0.00  0.00    +0.003 C 
ATOM     10  C   UNL     1      34.328 -14.942 -21.490  0.00  0.00    +0.001 C 
ATOM     11  C   UNL     1      33.444 -13.305 -23.365  0.00  0.00    +0.021 C 
ATOM     12  C   UNL     1      35.173 -19.385 -23.375  0.00  0.00    +0.034 C 
ATOM     13  C   UNL     1      33.264 -17.844 -21.493  0.00  0.00    +0.003 C 
ATOM     14  C   UNL     1      33.618 -15.497 -25.274  0.00  0.00    -0.015 C 
ATOM     15  C   UNL     1      33.580 -13.051 -24.885  0.00  0.00    -0.010 C 
ATOM     16  C   UNL     1      34.054 -12.112 -22.577  0.00  0.00    +0.012 C 
ATOM     17  C   UNL     1      31.943 -13.425 -23.010  0.00  0.00    +0.004 C 
ATOM     18  C   UNL     1      33.562 -14.241 -25.750  0.00  0.00    +0.049 C 
ATOM     19  C   UNL     1      33.554 -10.756 -23.046  0.00  0.00    +0.069 C 
ATOM     20  C   UNL     1      33.732 -11.810 -25.386  0.00  0.00    +0.034 C 
ATOM     21  C   UNL     1      33.734 -10.597 -24.531  0.00  0.00    +0.173 C 
ENDROOT
BRANCH   7  23
ATOM     22  O   UNL     1      36.489 -19.506 -20.046  0.00  0.00    -0.294 OA
ATOM     23  C   UNL     1      35.578 -19.524 -20.874  0.00  0.00    +0.175 C 
ATOM     24  C   UNL     1      34.384 -20.427 -20.714  0.00  0.00    +0.075 C 
ENDBRANCH   7  23
BRANCH   7  25
ATOM     25  O   UNL     1      36.965 -18.244 -22.204  0.00  0.00    -0.380 OA
ATOM     26  H   UNL     1      37.157 -17.561 -21.543  0.00  0.00    +0.211 HD
ENDBRANCH   7  25
TORSDOF 2
ENDMDL
MODEL 4
REMARK VINA RESULT:      -7.4     13.580     15.792
REMARK  Name = 5284533
REMARK  2 active torsions:
REMARK  status: ('A' for Active; 'I' for Inactive)
REMARK    1  A    between atoms: C_7  and  C_23
REMARK    2  A    between atoms: C_7  and  O_25
REMARK                            x       y       z     vdW  Elec       q    Type
REMARK                         _______ _______ _______ _____ _____    ______ ____
ROOT
ATOM      1 CL   UNL     1      32.229 -14.887 -19.821  0.00  0.00    -0.083 Cl
ATOM      2  O   UNL     1      34.965 -17.477 -23.401  0.00  0.00    -0.291 OA
ATOM      3  C   UNL     1      32.772  -9.241 -23.053  0.00  0.00    +0.029 C 
ATOM      4  C   UNL     1      32.705 -10.244 -21.870  0.00  0.00    +0.007 C 
ATOM      5  C   UNL     1      32.337 -11.663 -22.326  0.00  0.00    +0.023 C 
ATOM      6  C   UNL     1      33.447 -12.156 -23.300  0.00  0.00    +0.008 C 
ATOM      7  C   UNL     1      33.071  -7.940 -22.265  0.00  0.00    +0.139 C 
ATOM      8  C   UNL     1      33.863  -9.726 -24.023  0.00  0.00    +0.003 C 
ATOM      9  C   UNL     1      31.811  -9.530 -20.858  0.00  0.00    +0.003 C 
ATOM     10  C   UNL     1      33.622 -11.176 -24.488  0.00  0.00    +0.001 C 
ATOM     11  C   UNL     1      33.245 -13.665 -23.688  0.00  0.00    +0.021 C 
ATOM     12  C   UNL     1      32.171  -8.038 -21.015  0.00  0.00    +0.034 C 
ATOM     13  C   UNL     1      31.428  -9.101 -23.822  0.00  0.00    +0.003 C 
ATOM     14  C   UNL     1      32.159 -12.633 -21.191  0.00  0.00    -0.015 C 
ATOM     15  C   UNL     1      33.236 -14.512 -22.393  0.00  0.00    -0.010 C 
ATOM     16  C   UNL     1      34.423 -14.111 -24.599  0.00  0.00    +0.012 C 
ATOM     17  C   UNL     1      31.913 -13.893 -24.443  0.00  0.00    +0.004 C 
ATOM     18  C   UNL     1      32.575 -13.911 -21.225  0.00  0.00    +0.049 C 
ATOM     19  C   UNL     1      34.487 -15.614 -24.817  0.00  0.00    +0.069 C 
ATOM     20  C   UNL     1      33.826 -15.721 -22.333  0.00  0.00    +0.034 C 
ATOM     21  C   UNL     1      34.482 -16.350 -23.506  0.00  0.00    +0.173 C 
ENDROOT
BRANCH   7  23
ATOM     22  O   UNL     1      33.489  -6.439 -24.073  0.00  0.00    -0.294 OA
ATOM     23  C   UNL     1      32.863  -6.674 -23.040  0.00  0.00    +0.175 C 
ATOM     24  C   UNL     1      31.850  -5.704 -22.494  0.00  0.00    +0.075 C 
ENDBRANCH   7  23
BRANCH   7  25
ATOM     25  O   UNL     1      34.438  -7.887 -21.864  0.00  0.00    -0.380 OA
ATOM     26  H   UNL     1      34.985  -7.609 -22.615  0.00  0.00    +0.211 HD
ENDBRANCH   7  25
TORSDOF 2
ENDMDL
MODEL 5
REMARK VINA RESULT:      -7.1      3.356      6.742
REMARK  Name = 5284533
REMARK  2 active torsions:
REMARK  status: ('A' for Active; 'I' for Inactive)
REMARK    1  A    between atoms: C_7  and  C_23
REMARK    2  A    between atoms: C_7  and  O_25
REMARK                            x       y       z     vdW  Elec       q    Type
REMARK                         _______ _______ _______ _____ _____    ______ ____
ROOT
ATOM      1 CL   UNL     1      37.735 -20.277 -19.902  0.00  0.00    -0.083 Cl
ATOM      2  O   UNL     1      32.904 -19.259 -21.524  0.00  0.00    -0.291 OA
ATOM      3  C   UNL     1      35.619 -23.936 -14.928  0.00  0.00    +0.029 C 
ATOM      4  C   UNL     1      36.478 -22.924 -15.731  0.00  0.00    +0.007 C 
ATOM      5  C   UNL     1      36.096 -22.883 -17.219  0.00  0.00    +0.023 C 
ATOM      6  C   UNL     1      34.611 -22.424 -17.317  0.00  0.00    +0.008 C 
ATOM      7  C   UNL     1      36.294 -23.796 -13.539  0.00  0.00    +0.139 C 
ATOM      8  C   UNL     1      34.149 -23.492 -15.028  0.00  0.00    +0.003 C 
ATOM      9  C   UNL     1      37.908 -23.293 -15.340  0.00  0.00    +0.003 C 
ATOM     10  C   UNL     1      33.685 -23.351 -16.491  0.00  0.00    +0.001 C 
ATOM     11  C   UNL     1      34.180 -22.187 -18.810  0.00  0.00    +0.021 C 
ATOM     12  C   UNL     1      37.802 -23.712 -13.859  0.00  0.00    +0.034 C 
ATOM     13  C   UNL     1      35.747 -25.399 -15.438  0.00  0.00    +0.003 C 
ATOM     14  C   UNL     1      36.982 -21.991 -18.043  0.00  0.00    -0.015 C 
ATOM     15  C   UNL     1      35.124 -21.132 -19.436  0.00  0.00    -0.010 C 
ATOM     16  C   UNL     1      32.717 -21.662 -18.832  0.00  0.00    +0.012 C 
ATOM     17  C   UNL     1      34.260 -23.487 -19.646  0.00  0.00    +0.004 C 
ATOM     18  C   UNL     1      36.537 -21.199 -19.034  0.00  0.00    +0.049 C 
ATOM     19  C   UNL     1      32.281 -21.140 -20.191  0.00  0.00    +0.069 C 
ATOM     20  C   UNL     1      34.668 -20.188 -20.283  0.00  0.00    +0.034 C 
ATOM     21  C   UNL     1      33.250 -20.117 -20.714  0.00  0.00    +0.173 C 
ENDROOT
BRANCH   7  23
ATOM     22  O   UNL     1      34.880 -24.914 -11.975  0.00  0.00    -0.294 OA
ATOM     23  C   UNL     1      35.960 -24.884 -12.565  0.00  0.00    +0.175 C 
ATOM     24  C   UNL     1      37.009 -25.941 -12.344  0.00  0.00    +0.075 C 
ENDBRANCH   7  23
BRANCH   7  25
ATOM     25  O   UNL     1      35.879 -22.599 -12.887  0.00  0.00    -0.380 OA
ATOM     26  H   UNL     1      36.482 -21.877 -13.123  0.00  0.00    +0.211 HD
ENDBRANCH   7  25
TORSDOF 2
ENDMDL
MODEL 6
REMARK VINA RESULT:      -6.4     15.207     17.305
REMARK  Name = 5284533
REMARK  2 active torsions:
REMARK  status: ('A' for Active; 'I' for Inactive)
REMARK    1  A    between atoms: C_7  and  C_23
REMARK    2  A    between atoms: C_7  and  O_25
REMARK                            x       y       z     vdW  Elec       q    Type
REMARK                         _______ _______ _______ _____ _____    ______ ____
ROOT
ATOM      1 CL   UNL     1      35.689 -11.155 -27.363  0.00  0.00    -0.083 Cl
ATOM      2  O   UNL     1      33.256 -15.675 -26.552  0.00  0.00    -0.291 OA
ATOM      3  C   UNL     1      32.437  -8.193 -22.541  0.00  0.00    +0.029 C 
ATOM      4  C   UNL     1      33.135  -8.411 -23.909  0.00  0.00    +0.007 C 
ATOM      5  C   UNL     1      33.856  -9.765 -23.989  0.00  0.00    +0.023 C 
ATOM      6  C   UNL     1      32.788 -10.886 -23.819  0.00  0.00    +0.008 C 
ATOM      7  C   UNL     1      31.901  -6.754 -22.756  0.00  0.00    +0.139 C 
ATOM      8  C   UNL     1      31.385  -9.301 -22.363  0.00  0.00    +0.003 C 
ATOM      9  C   UNL     1      33.940  -7.127 -24.099  0.00  0.00    +0.003 C 
ATOM     10  C   UNL     1      32.000 -10.709 -22.497  0.00  0.00    +0.001 C 
ATOM     11  C   UNL     1      33.406 -12.311 -24.057  0.00  0.00    +0.021 C 
ATOM     12  C   UNL     1      33.053  -6.025 -23.481  0.00  0.00    +0.034 C 
ATOM     13  C   UNL     1      33.418  -8.220 -21.334  0.00  0.00    +0.003 C 
ATOM     14  C   UNL     1      34.631  -9.960 -25.262  0.00  0.00    -0.015 C 
ATOM     15  C   UNL     1      34.024 -12.352 -25.475  0.00  0.00    -0.010 C 
ATOM     16  C   UNL     1      32.276 -13.372 -23.946  0.00  0.00    +0.012 C 
ATOM     17  C   UNL     1      34.508 -12.640 -23.022  0.00  0.00    +0.004 C 
ATOM     18  C   UNL     1      34.695 -11.125 -25.930  0.00  0.00    +0.049 C 
ATOM     19  C   UNL     1      32.693 -14.754 -24.422  0.00  0.00    +0.069 C 
ATOM     20  C   UNL     1      33.929 -13.444 -26.258  0.00  0.00    +0.034 C 
ATOM     21  C   UNL     1      33.272 -14.696 -25.808  0.00  0.00    +0.173 C 
ENDROOT
BRANCH   7  23
ATOM     22  O   UNL     1      32.030  -6.231 -20.431  0.00  0.00    -0.294 OA
ATOM     23  C   UNL     1      31.459  -6.054 -21.507  0.00  0.00    +0.175 C 
ATOM     24  C   UNL     1      30.283  -5.123 -21.632  0.00  0.00    +0.075 C 
ENDBRANCH   7  23
BRANCH   7  25
ATOM     25  O   UNL     1      30.744  -6.759 -23.587  0.00  0.00    -0.380 OA
ATOM     26  H   UNL     1      30.220  -7.556 -23.408  0.00  0.00    +0.211 HD
ENDBRANCH   7  25
TORSDOF 2
ENDMDL
MODEL 7
REMARK VINA RESULT:      -6.2      3.130      5.009
REMARK  Name = 5284533
REMARK  2 active torsions:
REMARK  status: ('A' for Active; 'I' for Inactive)
REMARK    1  A    between atoms: C_7  and  C_23
REMARK    2  A    between atoms: C_7  and  O_25
REMARK                            x       y       z     vdW  Elec       q    Type
REMARK                         _______ _______ _______ _____ _____    ______ ____
ROOT
ATOM      1 CL   UNL     1      37.784 -22.424 -16.475  0.00  0.00    -0.083 Cl
ATOM      2  O   UNL     1      37.169 -19.394 -20.652  0.00  0.00    -0.291 OA
ATOM      3  C   UNL     1      31.381 -23.604 -16.013  0.00  0.00    +0.029 C 
ATOM      4  C   UNL     1      32.845 -23.320 -15.587  0.00  0.00    +0.007 C 
ATOM      5  C   UNL     1      33.817 -23.343 -16.777  0.00  0.00    +0.023 C 
ATOM      6  C   UNL     1      33.387 -22.221 -17.767  0.00  0.00    +0.008 C 
ATOM      7  C   UNL     1      30.704 -23.592 -14.619  0.00  0.00    +0.139 C 
ATOM      8  C   UNL     1      30.952 -22.502 -16.998  0.00  0.00    +0.003 C 
ATOM      9  C   UNL     1      33.065 -24.289 -14.427  0.00  0.00    +0.003 C 
ATOM     10  C   UNL     1      31.910 -22.396 -18.201  0.00  0.00    +0.001 C 
ATOM     11  C   UNL     1      34.424 -22.056 -18.936  0.00  0.00    +0.021 C 
ATOM     12  C   UNL     1      31.702 -24.339 -13.707  0.00  0.00    +0.034 C 
ATOM     13  C   UNL     1      31.191 -24.993 -16.686  0.00  0.00    +0.003 C 
ATOM     14  C   UNL     1      35.258 -23.178 -16.381  0.00  0.00    -0.015 C 
ATOM     15  C   UNL     1      35.812 -21.747 -18.325  0.00  0.00    -0.010 C 
ATOM     16  C   UNL     1      33.975 -20.876 -19.842  0.00  0.00    +0.012 C 
ATOM     17  C   UNL     1      34.531 -23.337 -19.796  0.00  0.00    +0.004 C 
ATOM     18  C   UNL     1      36.148 -22.450 -17.078  0.00  0.00    +0.049 C 
ATOM     19  C   UNL     1      35.032 -20.443 -20.844  0.00  0.00    +0.069 C 
ATOM     20  C   UNL     1      36.654 -20.862 -18.892  0.00  0.00    +0.034 C 
ATOM     21  C   UNL     1      36.340 -20.157 -20.160  0.00  0.00    +0.173 C 
ENDROOT
BRANCH   7  23
ATOM     22  O   UNL     1      29.102 -25.271 -14.061  0.00  0.00    -0.294 OA
ATOM     23  C   UNL     1      29.326 -24.179 -14.584  0.00  0.00    +0.175 C 
ATOM     24  C   UNL     1      28.228 -23.368 -15.217  0.00  0.00    +0.075 C 
ENDBRANCH   7  23
BRANCH   7  25
ATOM     25  O   UNL     1      30.533 -22.259 -14.145  0.00  0.00    -0.380 OA
ATOM     26  H   UNL     1      29.933 -22.262 -13.382  0.00  0.00    +0.211 HD
ENDBRANCH   7  25
TORSDOF 2
ENDMDL
