MODEL 1
REMARK VINA RESULT:     -11.4      0.000      0.000
REMARK  Name = 124173720
REMARK  4 active torsions:
REMARK  status: ('A' for Active; 'I' for Inactive)
REMARK    1  A    between atoms: C_13  and  N_24
REMARK    2  A    between atoms: C_18  and  C_23
REMARK    3  A    between atoms: N_24  and  C_26
REMARK    4  A    between atoms: C_26  and  C_30
REMARK                            x       y       z     vdW  Elec       q    Type
REMARK                         _______ _______ _______ _____ _____    ______ ____
ROOT
ATOM      1  O   UNL     1      32.679 -22.282 -18.927  0.00  0.00    -0.473 OA
ATOM      2  N   UNL     1      34.001 -23.512 -16.491  0.00  0.00    -0.272 N 
ATOM      3  N   UNL     1      36.188 -23.224 -16.453  0.00  0.00    -0.374 NA
ATOM      4  C   UNL     1      35.818 -24.033 -15.416  0.00  0.00    +0.190 C 
ATOM      5  C   UNL     1      35.078 -22.910 -17.113  0.00  0.00    +0.188 C 
ATOM      6  C   UNL     1      32.598 -23.447 -16.841  0.00  0.00    +0.141 C 
ATOM      7  C   UNL     1      34.464 -24.230 -15.418  0.00  0.00    +0.169 C 
ATOM      8  C   UNL     1      35.061 -22.050 -18.314  0.00  0.00    +0.078 C 
ATOM      9  C   UNL     1      32.228 -22.181 -17.580  0.00  0.00    +0.227 C 
ATOM     10  C   UNL     1      33.943 -21.799 -19.127  0.00  0.00    +0.144 C 
ATOM     11  C   UNL     1      36.284 -21.461 -18.701  0.00  0.00    +0.008 C 
ATOM     12  C   UNL     1      34.067 -21.033 -20.300  0.00  0.00    +0.051 C 
ATOM     13  C   UNL     1      35.287 -20.469 -20.658  0.00  0.00    +0.048 C 
ATOM     14  C   UNL     1      36.397 -20.679 -19.853  0.00  0.00    +0.015 C 
ATOM     15  O   UNL     1      38.689 -25.157 -13.591  0.00  0.00    -0.432 OA
ATOM     16  O   UNL     1      38.726 -23.569 -15.239  0.00  0.00    -0.226 OA
ATOM     17  N   UNL     1      36.715 -24.559 -14.518  0.00  0.00    -0.194 N 
ATOM     18  C   UNL     1      36.383 -25.420 -13.405  0.00  0.00    +0.195 C 
ATOM     19  C   UNL     1      37.711 -26.101 -13.141  0.00  0.00    +0.236 C 
ATOM     20  C   UNL     1      38.096 -24.345 -14.533  0.00  0.00    +0.411 C 
ENDROOT
BRANCH  18  23
ATOM     21  F   UNL     1      36.220 -23.323 -12.379  0.00  0.00    -0.196 F 
ATOM     22  F   UNL     1      34.561 -24.707 -12.121  0.00  0.00    -0.196 F 
ATOM     23  C   UNL     1      35.905 -24.621 -12.194  0.00  0.00    +0.340 C 
ENDBRANCH  18  23
BRANCH  13  24
ATOM     24  N   UNL     1      35.393 -19.692 -21.828  0.00  0.00    -0.327 N 
ATOM     25  H   UNL     1      36.009 -19.989 -22.535  0.00  0.00    +0.147 HD
BRANCH  24  26
ATOM     26  C   UNL     1      34.646 -18.489 -22.034  0.00  0.00    +0.146 C 
ATOM     27  C   UNL     1      35.124 -17.421 -21.062  0.00  0.00    +0.031 C 
BRANCH  26  30
ATOM     28  O   UNL     1      34.448 -18.679 -24.445  0.00  0.00    -0.274 OA
ATOM     29  N   UNL     1      35.454 -16.808 -23.572  0.00  0.00    -0.327 N 
ATOM     30  C   UNL     1      34.826 -18.031 -23.471  0.00  0.00    +0.237 C 
ATOM     31  H   UNL     1      35.624 -16.413 -24.457  0.00  0.00    +0.145 HD
ATOM     32  H   UNL     1      35.734 -16.330 -22.758  0.00  0.00    +0.145 HD
ENDBRANCH  26  30
ENDBRANCH  24  26
ENDBRANCH  13  24
TORSDOF 4
ENDMDL
MODEL 2
REMARK VINA RESULT:     -11.1      4.090      6.271
REMARK  Name = 124173720
REMARK  4 active torsions:
REMARK  status: ('A' for Active; 'I' for Inactive)
REMARK    1  A    between atoms: C_13  and  N_24
REMARK    2  A    between atoms: C_18  and  C_23
REMARK    3  A    between atoms: N_24  and  C_26
REMARK    4  A    between atoms: C_26  and  C_30
REMARK                            x       y       z     vdW  Elec       q    Type
REMARK                         _______ _______ _______ _____ _____    ______ ____
ROOT
ATOM      1  O   UNL     1      32.483 -22.370 -17.734  0.00  0.00    -0.473 OA
ATOM      2  N   UNL     1      34.883 -23.268 -16.112  0.00  0.00    -0.272 N 
ATOM      3  N   UNL     1      34.370 -23.829 -14.042  0.00  0.00    -0.374 NA
ATOM      4  C   UNL     1      35.727 -23.863 -14.199  0.00  0.00    +0.190 C 
ATOM      5  C   UNL     1      33.855 -23.460 -15.210  0.00  0.00    +0.188 C 
ATOM      6  C   UNL     1      34.808 -22.876 -17.504  0.00  0.00    +0.141 C 
ATOM      7  C   UNL     1      36.072 -23.515 -15.476  0.00  0.00    +0.169 C 
ATOM      8  C   UNL     1      32.405 -23.299 -15.446  0.00  0.00    +0.078 C 
ATOM      9  C   UNL     1      33.504 -23.266 -18.162  0.00  0.00    +0.227 C 
ATOM     10  C   UNL     1      31.816 -22.782 -16.612  0.00  0.00    +0.144 C 
ATOM     11  C   UNL     1      31.537 -23.659 -14.392  0.00  0.00    +0.008 C 
ATOM     12  C   UNL     1      30.425 -22.590 -16.689  0.00  0.00    +0.051 C 
ATOM     13  C   UNL     1      29.597 -22.950 -15.632  0.00  0.00    +0.048 C 
ATOM     14  C   UNL     1      30.153 -23.492 -14.482  0.00  0.00    +0.015 C 
ATOM     15  O   UNL     1      37.347 -24.664 -11.106  0.00  0.00    -0.432 OA
ATOM     16  O   UNL     1      35.087 -24.752 -11.460  0.00  0.00    -0.226 OA
ATOM     17  N   UNL     1      36.591 -24.201 -13.185  0.00  0.00    -0.194 N 
ATOM     18  C   UNL     1      38.032 -24.252 -13.292  0.00  0.00    +0.195 C 
ATOM     19  C   UNL     1      38.449 -24.121 -11.841  0.00  0.00    +0.236 C 
ATOM     20  C   UNL     1      36.217 -24.554 -11.886  0.00  0.00    +0.411 C 
ENDROOT
BRANCH  18  23
ATOM     21  F   UNL     1      39.025 -25.318 -15.123  0.00  0.00    -0.196 F 
ATOM     22  F   UNL     1      39.499 -26.069 -13.136  0.00  0.00    -0.196 F 
ATOM     23  C   UNL     1      38.508 -25.569 -13.903  0.00  0.00    +0.340 C 
ENDBRANCH  18  23
BRANCH  13  24
ATOM     24  N   UNL     1      28.203 -22.766 -15.728  0.00  0.00    -0.327 N 
ATOM     25  H   UNL     1      27.651 -22.936 -14.932  0.00  0.00    +0.147 HD
BRANCH  24  26
ATOM     26  C   UNL     1      27.555 -22.345 -16.932  0.00  0.00    +0.146 C 
ATOM     27  C   UNL     1      27.437 -23.525 -17.885  0.00  0.00    +0.031 C 
BRANCH  26  30
ATOM     28  O   UNL     1      25.569 -22.070 -15.566  0.00  0.00    -0.274 OA
ATOM     29  N   UNL     1      25.701 -20.923 -17.551  0.00  0.00    -0.327 N 
ATOM     30  C   UNL     1      26.184 -21.786 -16.592  0.00  0.00    +0.237 C 
ATOM     31  H   UNL     1      24.819 -20.501 -17.435  0.00  0.00    +0.145 HD
ATOM     32  H   UNL     1      26.238 -20.729 -18.354  0.00  0.00    +0.145 HD
ENDBRANCH  26  30
ENDBRANCH  24  26
ENDBRANCH  13  24
TORSDOF 4
ENDMDL
MODEL 3
REMARK VINA RESULT:      -9.9      3.841      8.801
REMARK  Name = 124173720
REMARK  4 active torsions:
REMARK  status: ('A' for Active; 'I' for Inactive)
REMARK    1  A    between atoms: C_13  and  N_24
REMARK    2  A    between atoms: C_18  and  C_23
REMARK    3  A    between atoms: N_24  and  C_26
REMARK    4  A    between atoms: C_26  and  C_30
REMARK                            x       y       z     vdW  Elec       q    Type
REMARK                         _______ _______ _______ _____ _____    ______ ____
ROOT
ATOM      1  O   UNL     1      33.644 -23.035 -16.755  0.00  0.00    -0.473 OA
ATOM      2  N   UNL     1      33.833 -21.340 -19.263  0.00  0.00    -0.272 N 
ATOM      3  N   UNL     1      35.859 -20.549 -19.625  0.00  0.00    -0.374 NA
ATOM      4  C   UNL     1      34.995 -20.022 -20.543  0.00  0.00    +0.190 C 
ATOM      5  C   UNL     1      35.147 -21.350 -18.840  0.00  0.00    +0.188 C 
ATOM      6  C   UNL     1      32.700 -22.065 -18.726  0.00  0.00    +0.141 C 
ATOM      7  C   UNL     1      33.728 -20.496 -20.338  0.00  0.00    +0.169 C 
ATOM      8  C   UNL     1      35.725 -22.105 -17.709  0.00  0.00    +0.078 C 
ATOM      9  C   UNL     1      33.092 -23.348 -18.030  0.00  0.00    +0.227 C 
ATOM     10  C   UNL     1      35.001 -22.854 -16.767  0.00  0.00    +0.144 C 
ATOM     11  C   UNL     1      37.125 -22.036 -17.537  0.00  0.00    +0.008 C 
ATOM     12  C   UNL     1      35.652 -23.459 -15.677  0.00  0.00    +0.051 C 
ATOM     13  C   UNL     1      37.032 -23.369 -15.532  0.00  0.00    +0.048 C 
ATOM     14  C   UNL     1      37.772 -22.660 -16.468  0.00  0.00    +0.015 C 
ATOM     15  O   UNL     1      36.670 -17.677 -22.670  0.00  0.00    -0.432 OA
ATOM     16  O   UNL     1      37.709 -19.042 -21.155  0.00  0.00    -0.226 OA
ATOM     17  N   UNL     1      35.386 -19.138 -21.520  0.00  0.00    -0.194 N 
ATOM     18  C   UNL     1      34.518 -18.548 -22.515  0.00  0.00    +0.195 C 
ATOM     19  C   UNL     1      35.306 -17.317 -22.914  0.00  0.00    +0.236 C 
ATOM     20  C   UNL     1      36.687 -18.667 -21.713  0.00  0.00    +0.411 C 
ENDROOT
BRANCH  18  23
ATOM     21  F   UNL     1      34.037 -18.747 -24.796  0.00  0.00    -0.196 F 
ATOM     22  F   UNL     1      35.430 -20.176 -23.928  0.00  0.00    -0.196 F 
ATOM     23  C   UNL     1      34.293 -19.487 -23.698  0.00  0.00    +0.340 C 
ENDBRANCH  18  23
BRANCH  13  24
ATOM     24  N   UNL     1      37.674 -23.993 -14.443  0.00  0.00    -0.327 N 
ATOM     25  H   UNL     1      37.609 -23.572 -13.556  0.00  0.00    +0.147 HD
BRANCH  24  26
ATOM     26  C   UNL     1      38.416 -25.210 -14.571  0.00  0.00    +0.146 C 
ATOM     27  C   UNL     1      39.317 -25.384 -13.357  0.00  0.00    +0.031 C 
BRANCH  26  30
ATOM     28  O   UNL     1      37.146 -26.894 -15.768  0.00  0.00    -0.274 OA
ATOM     29  N   UNL     1      36.944 -26.788 -13.483  0.00  0.00    -0.327 N 
ATOM     30  C   UNL     1      37.448 -26.373 -14.697  0.00  0.00    +0.237 C 
ATOM     31  H   UNL     1      36.305 -27.536 -13.444  0.00  0.00    +0.145 HD
ATOM     32  H   UNL     1      37.222 -26.335 -12.653  0.00  0.00    +0.145 HD
ENDBRANCH  26  30
ENDBRANCH  24  26
ENDBRANCH  13  24
TORSDOF 4
ENDMDL
MODEL 4
REMARK VINA RESULT:      -9.6      6.455     11.821
REMARK  Name = 124173720
REMARK  4 active torsions:
REMARK  status: ('A' for Active; 'I' for Inactive)
REMARK    1  A    between atoms: C_13  and  N_24
REMARK    2  A    between atoms: C_18  and  C_23
REMARK    3  A    between atoms: N_24  and  C_26
REMARK    4  A    between atoms: C_26  and  C_30
REMARK                            x       y       z     vdW  Elec       q    Type
REMARK                         _______ _______ _______ _____ _____    ______ ____
ROOT
ATOM      1  O   UNL     1      34.320 -17.710 -24.843  0.00  0.00    -0.473 OA
ATOM      2  N   UNL     1      33.469 -14.844 -24.329  0.00  0.00    -0.272 N 
ATOM      3  N   UNL     1      33.034 -14.436 -22.206  0.00  0.00    -0.374 NA
ATOM      4  C   UNL     1      32.715 -13.338 -22.954  0.00  0.00    +0.190 C 
ATOM      5  C   UNL     1      33.490 -15.358 -23.047  0.00  0.00    +0.188 C 
ATOM      6  C   UNL     1      33.881 -15.473 -25.566  0.00  0.00    +0.141 C 
ATOM      7  C   UNL     1      32.973 -13.567 -24.278  0.00  0.00    +0.169 C 
ATOM      8  C   UNL     1      33.934 -16.701 -22.620  0.00  0.00    +0.078 C 
ATOM      9  C   UNL     1      34.936 -16.538 -25.368  0.00  0.00    +0.227 C 
ATOM     10  C   UNL     1      34.292 -17.757 -23.475  0.00  0.00    +0.144 C 
ATOM     11  C   UNL     1      33.963 -16.959 -21.233  0.00  0.00    +0.008 C 
ATOM     12  C   UNL     1      34.614 -19.023 -22.956  0.00  0.00    +0.051 C 
ATOM     13  C   UNL     1      34.629 -19.248 -21.583  0.00  0.00    +0.048 C 
ATOM     14  C   UNL     1      34.308 -18.211 -20.719  0.00  0.00    +0.015 C 
ATOM     15  O   UNL     1      31.288 -10.770 -20.904  0.00  0.00    -0.432 OA
ATOM     16  O   UNL     1      32.247 -12.693 -20.114  0.00  0.00    -0.226 OA
ATOM     17  N   UNL     1      32.204 -12.184 -22.412  0.00  0.00    -0.194 N 
ATOM     18  C   UNL     1      31.847 -10.994 -23.152  0.00  0.00    +0.195 C 
ATOM     19  C   UNL     1      30.877 -10.323 -22.200  0.00  0.00    +0.236 C 
ATOM     20  C   UNL     1      31.948 -11.970 -21.055  0.00  0.00    +0.411 C 
ENDROOT
BRANCH  18  23
ATOM     21  F   UNL     1      33.548 -10.425 -24.655  0.00  0.00    -0.196 F 
ATOM     22  F   UNL     1      32.671  -8.826 -23.468  0.00  0.00    -0.196 F 
ATOM     23  C   UNL     1      33.065 -10.116 -23.435  0.00  0.00    +0.340 C 
ENDBRANCH  18  23
BRANCH  13  24
ATOM     24  N   UNL     1      34.967 -20.518 -21.076  0.00  0.00    -0.327 N 
ATOM     25  H   UNL     1      35.402 -21.164 -21.677  0.00  0.00    +0.147 HD
BRANCH  24  26
ATOM     26  C   UNL     1      34.705 -20.911 -19.725  0.00  0.00    +0.146 C 
ATOM     27  C   UNL     1      33.492 -21.828 -19.688  0.00  0.00    +0.031 C 
BRANCH  26  30
ATOM     28  O   UNL     1      35.895 -22.379 -18.203  0.00  0.00    -0.274 OA
ATOM     29  N   UNL     1      37.086 -21.306 -19.847  0.00  0.00    -0.327 N 
ATOM     30  C   UNL     1      35.930 -21.613 -19.164  0.00  0.00    +0.237 C 
ATOM     31  H   UNL     1      37.943 -21.704 -19.570  0.00  0.00    +0.145 HD
ATOM     32  H   UNL     1      37.057 -20.687 -20.613  0.00  0.00    +0.145 HD
ENDBRANCH  26  30
ENDBRANCH  24  26
ENDBRANCH  13  24
TORSDOF 4
ENDMDL
MODEL 5
REMARK VINA RESULT:      -9.1     10.958     14.706
REMARK  Name = 124173720
REMARK  4 active torsions:
REMARK  status: ('A' for Active; 'I' for Inactive)
REMARK    1  A    between atoms: C_13  and  N_24
REMARK    2  A    between atoms: C_18  and  C_23
REMARK    3  A    between atoms: N_24  and  C_26
REMARK    4  A    between atoms: C_26  and  C_30
REMARK                            x       y       z     vdW  Elec       q    Type
REMARK                         _______ _______ _______ _____ _____    ______ ____
ROOT
ATOM      1  O   UNL     1      31.374  -9.175 -20.290  0.00  0.00    -0.473 OA
ATOM      2  N   UNL     1      32.259 -11.664 -21.780  0.00  0.00    -0.272 N 
ATOM      3  N   UNL     1      32.905 -11.252 -23.849  0.00  0.00    -0.374 NA
ATOM      4  C   UNL     1      32.895 -12.602 -23.636  0.00  0.00    +0.190 C 
ATOM      5  C   UNL     1      32.512 -10.680 -22.716  0.00  0.00    +0.188 C 
ATOM      6  C   UNL     1      31.821 -11.520 -20.408  0.00  0.00    +0.141 C 
ATOM      7  C   UNL     1      32.493 -12.885 -22.359  0.00  0.00    +0.169 C 
ATOM      8  C   UNL     1      32.384  -9.218 -22.545  0.00  0.00    +0.078 C 
ATOM      9  C   UNL     1      32.226 -10.201 -19.790  0.00  0.00    +0.227 C 
ATOM     10  C   UNL     1      31.844  -8.567 -21.423  0.00  0.00    +0.144 C 
ATOM     11  C   UNL     1      32.805  -8.405 -23.619  0.00  0.00    +0.008 C 
ATOM     12  C   UNL     1      31.690  -7.169 -21.409  0.00  0.00    +0.051 C 
ATOM     13  C   UNL     1      32.110  -6.396 -22.485  0.00  0.00    +0.048 C 
ATOM     14  C   UNL     1      32.675  -7.014 -23.592  0.00  0.00    +0.015 C 
ATOM     15  O   UNL     1      33.757 -14.371 -26.630  0.00  0.00    -0.432 OA
ATOM     16  O   UNL     1      33.897 -12.101 -26.364  0.00  0.00    -0.226 OA
ATOM     17  N   UNL     1      33.243 -13.516 -24.600  0.00  0.00    -0.194 N 
ATOM     18  C   UNL     1      33.249 -14.953 -24.434  0.00  0.00    +0.195 C 
ATOM     19  C   UNL     1      33.156 -15.426 -25.871  0.00  0.00    +0.236 C 
ATOM     20  C   UNL     1      33.652 -13.207 -25.900  0.00  0.00    +0.411 C 
ENDROOT
BRANCH  18  23
ATOM     21  F   UNL     1      34.242 -15.790 -22.487  0.00  0.00    -0.196 F 
ATOM     22  F   UNL     1      34.964 -16.545 -24.397  0.00  0.00    -0.196 F 
ATOM     23  C   UNL     1      34.529 -15.439 -23.757  0.00  0.00    +0.340 C 
ENDBRANCH  18  23
BRANCH  13  24
ATOM     24  N   UNL     1      31.963  -4.994 -22.452  0.00  0.00    -0.327 N 
ATOM     25  H   UNL     1      31.942  -4.545 -21.577  0.00  0.00    +0.147 HD
BRANCH  24  26
ATOM     26  C   UNL     1      31.844  -4.196 -23.634  0.00  0.00    +0.146 C 
ATOM     27  C   UNL     1      30.791  -4.802 -24.551  0.00  0.00    +0.031 C 
BRANCH  26  30
ATOM     28  O   UNL     1      32.109  -1.786 -23.577  0.00  0.00    -0.274 OA
ATOM     29  N   UNL     1      30.325  -2.718 -22.472  0.00  0.00    -0.327 N 
ATOM     30  C   UNL     1      31.466  -2.778 -23.242  0.00  0.00    +0.237 C 
ATOM     31  H   UNL     1      29.987  -1.848 -22.159  0.00  0.00    +0.145 HD
ATOM     32  H   UNL     1      29.847  -3.546 -22.234  0.00  0.00    +0.145 HD
ENDBRANCH  26  30
ENDBRANCH  24  26
ENDBRANCH  13  24
TORSDOF 4
ENDMDL
MODEL 6
REMARK VINA RESULT:      -8.9      8.611     12.101
REMARK  Name = 124173720
REMARK  4 active torsions:
REMARK  status: ('A' for Active; 'I' for Inactive)
REMARK    1  A    between atoms: C_13  and  N_24
REMARK    2  A    between atoms: C_18  and  C_23
REMARK    3  A    between atoms: N_24  and  C_26
REMARK    4  A    between atoms: C_26  and  C_30
REMARK                            x       y       z     vdW  Elec       q    Type
REMARK                         _______ _______ _______ _____ _____    ______ ____
ROOT
ATOM      1  O   UNL     1      31.406 -11.712 -20.635  0.00  0.00    -0.473 OA
ATOM      2  N   UNL     1      32.686 -14.294 -21.581  0.00  0.00    -0.272 N 
ATOM      3  N   UNL     1      33.437 -14.182 -23.652  0.00  0.00    -0.374 NA
ATOM      4  C   UNL     1      33.567 -15.461 -23.190  0.00  0.00    +0.190 C 
ATOM      5  C   UNL     1      32.893 -13.470 -22.670  0.00  0.00    +0.188 C 
ATOM      6  C   UNL     1      32.131 -13.964 -20.285  0.00  0.00    +0.141 C 
ATOM      7  C   UNL     1      33.104 -15.559 -21.906  0.00  0.00    +0.169 C 
ATOM      8  C   UNL     1      32.583 -12.030 -22.784  0.00  0.00    +0.078 C 
ATOM      9  C   UNL     1      32.330 -12.514 -19.906  0.00  0.00    +0.227 C 
ATOM     10  C   UNL     1      31.887 -11.263 -21.835  0.00  0.00    +0.144 C 
ATOM     11  C   UNL     1      32.988 -11.376 -23.968  0.00  0.00    +0.008 C 
ATOM     12  C   UNL     1      31.571  -9.917 -22.092  0.00  0.00    +0.051 C 
ATOM     13  C   UNL     1      31.979  -9.302 -23.270  0.00  0.00    +0.048 C 
ATOM     14  C   UNL     1      32.695 -10.032 -24.209  0.00  0.00    +0.015 C 
ATOM     15  O   UNL     1      34.856 -17.614 -25.747  0.00  0.00    -0.432 OA
ATOM     16  O   UNL     1      34.710 -15.335 -25.906  0.00  0.00    -0.226 OA
ATOM     17  N   UNL     1      34.092 -16.481 -23.945  0.00  0.00    -0.194 N 
ATOM     18  C   UNL     1      34.252 -17.852 -23.511  0.00  0.00    +0.195 C 
ATOM     19  C   UNL     1      34.326 -18.583 -24.837  0.00  0.00    +0.236 C 
ATOM     20  C   UNL     1      34.560 -16.361 -25.256  0.00  0.00    +0.411 C 
ENDROOT
BRANCH  18  23
ATOM     21  F   UNL     1      35.243 -18.825 -21.628  0.00  0.00    -0.196 F 
ATOM     22  F   UNL     1      36.438 -18.686 -23.442  0.00  0.00    -0.196 F 
ATOM     23  C   UNL     1      35.525 -18.040 -22.688  0.00  0.00    +0.340 C 
ENDBRANCH  18  23
BRANCH  13  24
ATOM     24  N   UNL     1      31.668  -7.948 -23.509  0.00  0.00    -0.327 N 
ATOM     25  H   UNL     1      30.797  -7.731 -23.911  0.00  0.00    +0.147 HD
BRANCH  24  26
ATOM     26  C   UNL     1      32.562  -6.877 -23.194  0.00  0.00    +0.146 C 
ATOM     27  C   UNL     1      32.618  -5.902 -24.360  0.00  0.00    +0.031 C 
BRANCH  26  30
ATOM     28  O   UNL     1      32.149  -6.683 -20.811  0.00  0.00    -0.274 OA
ATOM     29  N   UNL     1      31.564  -4.928 -22.171  0.00  0.00    -0.327 N 
ATOM     30  C   UNL     1      32.082  -6.182 -21.931  0.00  0.00    +0.237 C 
ATOM     31  H   UNL     1      31.222  -4.385 -21.425  0.00  0.00    +0.145 HD
ATOM     32  H   UNL     1      31.537  -4.574 -23.090  0.00  0.00    +0.145 HD
ENDBRANCH  26  30
ENDBRANCH  24  26
ENDBRANCH  13  24
TORSDOF 4
ENDMDL
MODEL 7
REMARK VINA RESULT:      -8.8      4.275      8.236
REMARK  Name = 124173720
REMARK  4 active torsions:
REMARK  status: ('A' for Active; 'I' for Inactive)
REMARK    1  A    between atoms: C_13  and  N_24
REMARK    2  A    between atoms: C_18  and  C_23
REMARK    3  A    between atoms: N_24  and  C_26
REMARK    4  A    between atoms: C_26  and  C_30
REMARK                            x       y       z     vdW  Elec       q    Type
REMARK                         _______ _______ _______ _____ _____    ______ ____
ROOT
ATOM      1  O   UNL     1      36.313 -22.905 -17.276  0.00  0.00    -0.473 OA
ATOM      2  N   UNL     1      33.285 -23.006 -17.138  0.00  0.00    -0.272 N 
ATOM      3  N   UNL     1      32.530 -23.818 -15.231  0.00  0.00    -0.374 NA
ATOM      4  C   UNL     1      31.483 -23.617 -16.085  0.00  0.00    +0.190 C 
ATOM      5  C   UNL     1      33.631 -23.450 -15.877  0.00  0.00    +0.188 C 
ATOM      6  C   UNL     1      34.141 -22.498 -18.189  0.00  0.00    +0.141 C 
ATOM      7  C   UNL     1      31.925 -23.116 -17.280  0.00  0.00    +0.169 C 
ATOM      8  C   UNL     1      34.984 -23.525 -15.287  0.00  0.00    +0.078 C 
ATOM      9  C   UNL     1      35.414 -21.872 -17.667  0.00  0.00    +0.227 C 
ATOM     10  C   UNL     1      36.190 -23.282 -15.966  0.00  0.00    +0.144 C 
ATOM     11  C   UNL     1      35.076 -23.914 -13.933  0.00  0.00    +0.008 C 
ATOM     12  C   UNL     1      37.426 -23.472 -15.324  0.00  0.00    +0.051 C 
ATOM     13  C   UNL     1      37.484 -23.861 -13.990  0.00  0.00    +0.048 C 
ATOM     14  C   UNL     1      36.305 -24.077 -13.290  0.00  0.00    +0.015 C 
ATOM     15  O   UNL     1      28.408 -24.716 -14.612  0.00  0.00    -0.432 OA
ATOM     16  O   UNL     1      30.408 -24.569 -13.509  0.00  0.00    -0.226 OA
ATOM     17  N   UNL     1      30.179 -23.896 -15.753  0.00  0.00    -0.194 N 
ATOM     18  C   UNL     1      29.033 -23.707 -16.614  0.00  0.00    +0.195 C 
ATOM     19  C   UNL     1      28.024 -24.650 -15.990  0.00  0.00    +0.236 C 
ATOM     20  C   UNL     1      29.748 -24.408 -14.526  0.00  0.00    +0.411 C 
ENDROOT
BRANCH  18  23
ATOM     21  F   UNL     1      27.605 -22.107 -17.551  0.00  0.00    -0.196 F 
ATOM     22  F   UNL     1      27.960 -22.014 -15.405  0.00  0.00    -0.196 F 
ATOM     23  C   UNL     1      28.545 -22.259 -16.596  0.00  0.00    +0.340 C 
ENDBRANCH  18  23
BRANCH  13  24
ATOM     24  N   UNL     1      38.730 -24.034 -13.354  0.00  0.00    -0.327 N 
ATOM     25  H   UNL     1      39.207 -23.236 -13.032  0.00  0.00    +0.147 HD
BRANCH  24  26
ATOM     26  C   UNL     1      39.330 -25.317 -13.156  0.00  0.00    +0.146 C 
ATOM     27  C   UNL     1      38.275 -26.402 -13.314  0.00  0.00    +0.031 C 
BRANCH  26  30
ATOM     28  O   UNL     1      40.930 -24.585 -14.827  0.00  0.00    -0.274 OA
ATOM     29  N   UNL     1      40.879 -26.810 -14.259  0.00  0.00    -0.327 N 
ATOM     30  C   UNL     1      40.451 -25.503 -14.165  0.00  0.00    +0.237 C 
ATOM     31  H   UNL     1      41.602 -27.048 -14.882  0.00  0.00    +0.145 HD
ATOM     32  H   UNL     1      40.461 -27.506 -13.702  0.00  0.00    +0.145 HD
ENDBRANCH  26  30
ENDBRANCH  24  26
ENDBRANCH  13  24
TORSDOF 4
ENDMDL
MODEL 8
REMARK VINA RESULT:      -8.8      7.424     11.614
REMARK  Name = 124173720
REMARK  4 active torsions:
REMARK  status: ('A' for Active; 'I' for Inactive)
REMARK    1  A    between atoms: C_13  and  N_24
REMARK    2  A    between atoms: C_18  and  C_23
REMARK    3  A    between atoms: N_24  and  C_26
REMARK    4  A    between atoms: C_26  and  C_30
REMARK                            x       y       z     vdW  Elec       q    Type
REMARK                         _______ _______ _______ _____ _____    ______ ____
ROOT
ATOM      1  O   UNL     1      33.427 -11.687 -25.811  0.00  0.00    -0.473 OA
ATOM      2  N   UNL     1      34.208 -14.439 -24.805  0.00  0.00    -0.272 N 
ATOM      3  N   UNL     1      34.108 -14.621 -22.609  0.00  0.00    -0.374 NA
ATOM      4  C   UNL     1      34.638 -15.765 -23.136  0.00  0.00    +0.190 C 
ATOM      5  C   UNL     1      33.850 -13.809 -23.629  0.00  0.00    +0.188 C 
ATOM      6  C   UNL     1      34.101 -13.953 -26.164  0.00  0.00    +0.141 C 
ATOM      7  C   UNL     1      34.714 -15.677 -24.499  0.00  0.00    +0.169 C 
ATOM      8  C   UNL     1      33.273 -12.459 -23.468  0.00  0.00    +0.078 C 
ATOM      9  C   UNL     1      32.998 -12.935 -26.346  0.00  0.00    +0.227 C 
ATOM     10  C   UNL     1      33.108 -11.510 -24.491  0.00  0.00    +0.144 C 
ATOM     11  C   UNL     1      32.888 -12.073 -22.166  0.00  0.00    +0.008 C 
ATOM     12  C   UNL     1      32.628 -10.220 -24.203  0.00  0.00    +0.051 C 
ATOM     13  C   UNL     1      32.262  -9.869 -22.909  0.00  0.00    +0.048 C 
ATOM     14  C   UNL     1      32.387 -10.799 -21.888  0.00  0.00    +0.015 C 
ATOM     15  O   UNL     1      35.582 -18.044 -20.539  0.00  0.00    -0.432 OA
ATOM     16  O   UNL     1      34.398 -16.112 -20.216  0.00  0.00    -0.226 OA
ATOM     17  N   UNL     1      35.032 -16.833 -22.366  0.00  0.00    -0.194 N 
ATOM     18  C   UNL     1      35.600 -18.065 -22.866  0.00  0.00    +0.195 C 
ATOM     19  C   UNL     1      36.319 -18.588 -21.639  0.00  0.00    +0.236 C 
ATOM     20  C   UNL     1      34.945 -16.903 -20.973  0.00  0.00    +0.411 C 
ENDROOT
BRANCH  18  23
ATOM     21  F   UNL     1      35.040 -19.821 -24.308  0.00  0.00    -0.196 F 
ATOM     22  F   UNL     1      34.161 -19.828 -22.317  0.00  0.00    -0.196 F 
ATOM     23  C   UNL     1      34.519 -19.032 -23.347  0.00  0.00    +0.340 C 
ENDBRANCH  18  23
BRANCH  13  24
ATOM     24  N   UNL     1      31.769  -8.577 -22.636  0.00  0.00    -0.327 N 
ATOM     25  H   UNL     1      30.798  -8.426 -22.680  0.00  0.00    +0.147 HD
BRANCH  24  26
ATOM     26  C   UNL     1      32.617  -7.475 -22.299  0.00  0.00    +0.146 C 
ATOM     27  C   UNL     1      32.508  -6.403 -23.373  0.00  0.00    +0.031 C 
BRANCH  26  30
ATOM     28  O   UNL     1      32.445  -7.491 -19.879  0.00  0.00    -0.274 OA
ATOM     29  N   UNL     1      31.539  -5.723 -21.030  0.00  0.00    -0.327 N 
ATOM     30  C   UNL     1      32.206  -6.926 -20.944  0.00  0.00    +0.237 C 
ATOM     31  H   UNL     1      31.225  -5.274 -20.213  0.00  0.00    +0.145 HD
ATOM     32  H   UNL     1      31.377  -5.312 -21.911  0.00  0.00    +0.145 HD
ENDBRANCH  26  30
ENDBRANCH  24  26
ENDBRANCH  13  24
TORSDOF 4
ENDMDL
MODEL 9
REMARK VINA RESULT:      -8.7      8.220     13.666
REMARK  Name = 124173720
REMARK  4 active torsions:
REMARK  status: ('A' for Active; 'I' for Inactive)
REMARK    1  A    between atoms: C_13  and  N_24
REMARK    2  A    between atoms: C_18  and  C_23
REMARK    3  A    between atoms: N_24  and  C_26
REMARK    4  A    between atoms: C_26  and  C_30
REMARK                            x       y       z     vdW  Elec       q    Type
REMARK                         _______ _______ _______ _____ _____    ______ ____
ROOT
ATOM      1  O   UNL     1      33.408 -14.697 -24.640  0.00  0.00    -0.473 OA
ATOM      2  N   UNL     1      33.139 -11.712 -24.178  0.00  0.00    -0.272 N 
ATOM      3  N   UNL     1      32.748 -11.192 -22.071  0.00  0.00    -0.374 NA
ATOM      4  C   UNL     1      32.672 -10.065 -22.838  0.00  0.00    +0.190 C 
ATOM      5  C   UNL     1      33.028 -12.200 -22.891  0.00  0.00    +0.188 C 
ATOM      6  C   UNL     1      33.443 -12.430 -25.398  0.00  0.00    +0.141 C 
ATOM      7  C   UNL     1      32.908 -10.361 -24.154  0.00  0.00    +0.169 C 
ATOM      8  C   UNL     1      33.184 -13.597 -22.439  0.00  0.00    +0.078 C 
ATOM      9  C   UNL     1      34.259 -13.681 -25.163  0.00  0.00    +0.227 C 
ATOM     10  C   UNL     1      33.342 -14.717 -23.273  0.00  0.00    +0.144 C 
ATOM     11  C   UNL     1      33.131 -13.834 -21.048  0.00  0.00    +0.008 C 
ATOM     12  C   UNL     1      33.392 -16.014 -22.732  0.00  0.00    +0.051 C 
ATOM     13  C   UNL     1      33.332 -16.215 -21.357  0.00  0.00    +0.048 C 
ATOM     14  C   UNL     1      33.207 -15.122 -20.512  0.00  0.00    +0.015 C 
ATOM     15  O   UNL     1      31.745  -7.231 -20.852  0.00  0.00    -0.432 OA
ATOM     16  O   UNL     1      32.281  -9.294 -20.018  0.00  0.00    -0.226 OA
ATOM     17  N   UNL     1      32.391  -8.823 -22.322  0.00  0.00    -0.194 N 
ATOM     18  C   UNL     1      32.296  -7.598 -23.084  0.00  0.00    +0.195 C 
ATOM     19  C   UNL     1      31.460  -6.731 -22.163  0.00  0.00    +0.236 C 
ATOM     20  C   UNL     1      32.154  -8.541 -20.974  0.00  0.00    +0.411 C 
ENDROOT
BRANCH  18  23
ATOM     21  F   UNL     1      34.576  -7.601 -22.559  0.00  0.00    -0.196 F 
ATOM     22  F   UNL     1      34.016  -7.227 -24.628  0.00  0.00    -0.196 F 
ATOM     23  C   UNL     1      33.671  -6.986 -23.346  0.00  0.00    +0.340 C 
ENDBRANCH  18  23
BRANCH  13  24
ATOM     24  N   UNL     1      33.397 -17.520 -20.827  0.00  0.00    -0.327 N 
ATOM     25  H   UNL     1      32.846 -17.735 -20.041  0.00  0.00    +0.147 HD
BRANCH  24  26
ATOM     26  C   UNL     1      34.228 -18.544 -21.382  0.00  0.00    +0.146 C 
ATOM     27  C   UNL     1      35.690 -18.178 -21.177  0.00  0.00    +0.031 C 
BRANCH  26  30
ATOM     28  O   UNL     1      34.749 -20.597 -20.199  0.00  0.00    -0.274 OA
ATOM     29  N   UNL     1      32.558 -20.165 -20.730  0.00  0.00    -0.327 N 
ATOM     30  C   UNL     1      33.903 -19.867 -20.710  0.00  0.00    +0.237 C 
ATOM     31  H   UNL     1      32.232 -21.000 -20.323  0.00  0.00    +0.145 HD
ATOM     32  H   UNL     1      31.921 -19.542 -21.152  0.00  0.00    +0.145 HD
ENDBRANCH  26  30
ENDBRANCH  24  26
ENDBRANCH  13  24
TORSDOF 4
ENDMDL
