MODEL 1
REMARK VINA RESULT:     -10.3      0.000      0.000
REMARK  Name = 49843471
REMARK  4 active torsions:
REMARK  status: ('A' for Active; 'I' for Inactive)
REMARK    1  A    between atoms: N_3  and  C_27
REMARK    2  A    between atoms: C_12  and  C_17
REMARK    3  A    between atoms: C_27  and  C_29
REMARK    4  A    between atoms: C_29  and  O_30
REMARK                            x       y       z     vdW  Elec       q    Type
REMARK                         _______ _______ _______ _____ _____    ______ ____
ROOT
ATOM      1  F   UNL     1      31.855 -12.677 -19.034  0.00  0.00    -0.204 F 
ATOM      2  O   UNL     1      34.935 -19.823 -24.052  0.00  0.00    -0.270 OA
ATOM      3  N   UNL     1      33.022 -14.030 -24.199  0.00  0.00    -0.321 N 
ATOM      4  N   UNL     1      34.736 -17.642 -23.228  0.00  0.00    -0.272 N 
ATOM      5  C   UNL     1      33.677 -15.212 -24.019  0.00  0.00    +0.037 A 
ATOM      6  C   UNL     1      33.727 -15.494 -22.670  0.00  0.00    +0.011 A 
ATOM      7  C   UNL     1      34.232 -16.068 -25.095  0.00  0.00    +0.065 C 
ATOM      8  C   UNL     1      34.381 -16.716 -22.121  0.00  0.00    +0.122 C 
ATOM      9  C   UNL     1      35.256 -17.028 -24.468  0.00  0.00    +0.100 C 
ATOM     10  C   UNL     1      33.071 -14.425 -21.995  0.00  0.00    +0.017 A 
ATOM     11  C   UNL     1      32.639 -13.524 -22.974  0.00  0.00    +0.060 A 
ATOM     12  C   UNL     1      34.648 -19.038 -23.149  0.00  0.00    +0.249 C 
ATOM     13  C   UNL     1      32.802 -14.133 -20.642  0.00  0.00    +0.031 C 
ATOM     14  C   UNL     1      31.950 -12.347 -22.663  0.00  0.00    +0.019 C 
ATOM     15  C   UNL     1      32.113 -12.958 -20.318  0.00  0.00    +0.140 C 
ATOM     16  C   UNL     1      31.694 -12.080 -21.315  0.00  0.00    +0.031 C 
ENDROOT
BRANCH  12  17
ATOM     17  C   UNL     1      34.181 -19.633 -21.888  0.00  0.00    +0.054 C 
ATOM     18  C   UNL     1      35.054 -20.244 -20.974  0.00  0.00    +0.004 C 
ATOM     19  C   UNL     1      32.811 -19.567 -21.630  0.00  0.00    +0.005 C 
ATOM     20  C   UNL     1      34.530 -20.795 -19.779  0.00  0.00    +0.000 C 
ATOM     21  C   UNL     1      36.435 -20.320 -21.217  0.00  0.00    +0.000 C 
ATOM     22  C   UNL     1      32.297 -20.109 -20.456  0.00  0.00    +0.000 C 
ATOM     23  C   UNL     1      33.150 -20.719 -19.536  0.00  0.00    +0.000 C 
ATOM     24  C   UNL     1      35.404 -21.406 -18.864  0.00  0.00    +0.000 C 
ATOM     25  C   UNL     1      37.288 -20.930 -20.297  0.00  0.00    +0.000 C 
ATOM     26  C   UNL     1      36.774 -21.472 -19.123  0.00  0.00    +0.000 C 
ENDBRANCH  12  17
BRANCH   3  27
ATOM     27  C   UNL     1      32.757 -13.404 -25.477  0.00  0.00    +0.216 C 
BRANCH  27  29
ATOM     28  O   UNL     1      34.302 -11.589 -25.102  0.00  0.00    -0.248 OA
ATOM     29  C   UNL     1      33.836 -12.428 -25.863  0.00  0.00    +0.337 C 
BRANCH  29  30
ATOM     30  O   UNL     1      34.218 -12.553 -27.159  0.00  0.00    -0.479 OA
ATOM     31  H   UNL     1      33.928 -13.287 -27.663  0.00  0.00    +0.295 HD
ENDBRANCH  29  30
ENDBRANCH  27  29
ENDBRANCH   3  27
TORSDOF 4
ENDMDL
MODEL 2
REMARK VINA RESULT:      -9.8      6.111     10.826
REMARK  Name = 49843471
REMARK  4 active torsions:
REMARK  status: ('A' for Active; 'I' for Inactive)
REMARK    1  A    between atoms: N_3  and  C_27
REMARK    2  A    between atoms: C_12  and  C_17
REMARK    3  A    between atoms: C_27  and  C_29
REMARK    4  A    between atoms: C_29  and  O_30
REMARK                            x       y       z     vdW  Elec       q    Type
REMARK                         _______ _______ _______ _____ _____    ______ ____
ROOT
ATOM      1  F   UNL     1      29.509 -24.684 -15.450  0.00  0.00    -0.204 F 
ATOM      2  O   UNL     1      37.230 -20.767 -18.733  0.00  0.00    -0.270 OA
ATOM      3  N   UNL     1      34.599 -23.424 -13.910  0.00  0.00    -0.321 N 
ATOM      4  N   UNL     1      35.833 -22.318 -17.676  0.00  0.00    -0.272 N 
ATOM      5  C   UNL     1      35.162 -23.097 -15.108  0.00  0.00    +0.037 A 
ATOM      6  C   UNL     1      34.213 -23.231 -16.099  0.00  0.00    +0.011 A 
ATOM      7  C   UNL     1      36.562 -22.652 -15.314  0.00  0.00    +0.065 C 
ATOM      8  C   UNL     1      34.497 -22.957 -17.536  0.00  0.00    +0.122 C 
ATOM      9  C   UNL     1      36.909 -22.830 -16.801  0.00  0.00    +0.100 C 
ATOM     10  C   UNL     1      33.011 -23.666 -15.471  0.00  0.00    +0.017 A 
ATOM     11  C   UNL     1      33.280 -23.778 -14.102  0.00  0.00    +0.060 A 
ATOM     12  C   UNL     1      36.134 -21.310 -18.600  0.00  0.00    +0.249 C 
ATOM     13  C   UNL     1      31.716 -23.978 -15.933  0.00  0.00    +0.031 C 
ATOM     14  C   UNL     1      32.313 -24.185 -13.175  0.00  0.00    +0.019 C 
ATOM     15  C   UNL     1      30.741 -24.386 -15.015  0.00  0.00    +0.140 C 
ATOM     16  C   UNL     1      31.038 -24.488 -13.658  0.00  0.00    +0.031 C 
ENDROOT
BRANCH  12  17
ATOM     17  C   UNL     1      35.064 -20.852 -19.500  0.00  0.00    +0.054 C 
ATOM     18  C   UNL     1      35.301 -19.964 -20.562  0.00  0.00    +0.004 C 
ATOM     19  C   UNL     1      33.782 -21.342 -19.254  0.00  0.00    +0.005 C 
ATOM     20  C   UNL     1      34.220 -19.568 -21.387  0.00  0.00    +0.000 C 
ATOM     21  C   UNL     1      36.586 -19.460 -20.825  0.00  0.00    +0.000 C 
ATOM     22  C   UNL     1      32.720 -20.953 -20.065  0.00  0.00    +0.000 C 
ATOM     23  C   UNL     1      32.936 -20.072 -21.125  0.00  0.00    +0.000 C 
ATOM     24  C   UNL     1      34.458 -18.681 -22.450  0.00  0.00    +0.000 C 
ATOM     25  C   UNL     1      36.802 -18.580 -21.884  0.00  0.00    +0.000 C 
ATOM     26  C   UNL     1      35.740 -18.190 -22.695  0.00  0.00    +0.000 C 
ENDBRANCH  12  17
BRANCH   3  27
ATOM     27  C   UNL     1      35.274 -23.394 -12.630  0.00  0.00    +0.216 C 
BRANCH  27  29
ATOM     28  O   UNL     1      35.264 -25.091 -10.914  0.00  0.00    -0.248 OA
ATOM     29  C   UNL     1      35.494 -24.777 -12.075  0.00  0.00    +0.337 C 
BRANCH  29  30
ATOM     30  O   UNL     1      36.007 -25.635 -12.992  0.00  0.00    -0.479 OA
ATOM     31  H   UNL     1      36.064 -26.550 -12.796  0.00  0.00    +0.295 HD
ENDBRANCH  29  30
ENDBRANCH  27  29
ENDBRANCH   3  27
TORSDOF 4
ENDMDL
MODEL 3
REMARK VINA RESULT:      -8.4      5.852     10.160
REMARK  Name = 49843471
REMARK  4 active torsions:
REMARK  status: ('A' for Active; 'I' for Inactive)
REMARK    1  A    between atoms: N_3  and  C_27
REMARK    2  A    between atoms: C_12  and  C_17
REMARK    3  A    between atoms: C_27  and  C_29
REMARK    4  A    between atoms: C_29  and  O_30
REMARK                            x       y       z     vdW  Elec       q    Type
REMARK                         _______ _______ _______ _____ _____    ______ ____
ROOT
ATOM      1  F   UNL     1      27.452 -22.743 -17.345  0.00  0.00    -0.204 F 
ATOM      2  O   UNL     1      36.549 -21.457 -18.502  0.00  0.00    -0.270 OA
ATOM      3  N   UNL     1      32.162 -23.114 -14.597  0.00  0.00    -0.321 N 
ATOM      4  N   UNL     1      34.536 -22.486 -17.898  0.00  0.00    -0.272 N 
ATOM      5  C   UNL     1      33.067 -22.991 -15.609  0.00  0.00    +0.037 A 
ATOM      6  C   UNL     1      32.387 -22.833 -16.798  0.00  0.00    +0.011 A 
ATOM      7  C   UNL     1      34.542 -23.005 -15.459  0.00  0.00    +0.065 C 
ATOM      8  C   UNL     1      33.077 -22.675 -18.111  0.00  0.00    +0.122 C 
ATOM      9  C   UNL     1      35.164 -23.298 -16.834  0.00  0.00    +0.100 C 
ATOM     10  C   UNL     1      30.997 -22.866 -16.494  0.00  0.00    +0.017 A 
ATOM     11  C   UNL     1      30.883 -23.042 -15.110  0.00  0.00    +0.060 A 
ATOM     12  C   UNL     1      35.341 -21.630 -18.661  0.00  0.00    +0.249 C 
ATOM     13  C   UNL     1      29.818 -22.764 -17.260  0.00  0.00    +0.031 C 
ATOM     14  C   UNL     1      29.647 -23.119 -14.459  0.00  0.00    +0.019 C 
ATOM     15  C   UNL     1      28.575 -22.840 -16.620  0.00  0.00    +0.140 C 
ATOM     16  C   UNL     1      28.494 -23.014 -15.241  0.00  0.00    +0.031 C 
ENDROOT
BRANCH  12  17
ATOM     17  C   UNL     1      34.709 -20.871 -19.751  0.00  0.00    +0.054 C 
ATOM     18  C   UNL     1      35.443 -20.050 -20.621  0.00  0.00    +0.004 C 
ATOM     19  C   UNL     1      33.327 -21.002 -19.890  0.00  0.00    +0.005 C 
ATOM     20  C   UNL     1      34.765 -19.350 -21.649  0.00  0.00    +0.000 C 
ATOM     21  C   UNL     1      36.834 -19.906 -20.496  0.00  0.00    +0.000 C 
ATOM     22  C   UNL     1      32.661 -20.314 -20.900  0.00  0.00    +0.000 C 
ATOM     23  C   UNL     1      33.374 -19.494 -21.774  0.00  0.00    +0.000 C 
ATOM     24  C   UNL     1      35.499 -18.528 -22.520  0.00  0.00    +0.000 C 
ATOM     25  C   UNL     1      37.547 -19.085 -21.370  0.00  0.00    +0.000 C 
ATOM     26  C   UNL     1      36.881 -18.397 -22.380  0.00  0.00    +0.000 C 
ENDBRANCH  12  17
BRANCH   3  27
ATOM     27  C   UNL     1      32.487 -23.283 -13.197  0.00  0.00    +0.216 C 
BRANCH  27  29
ATOM     28  O   UNL     1      34.226 -24.703 -12.312  0.00  0.00    -0.248 OA
ATOM     29  C   UNL     1      33.174 -24.596 -12.930  0.00  0.00    +0.337 C 
BRANCH  29  30
ATOM     30  O   UNL     1      32.519 -25.651 -13.476  0.00  0.00    -0.479 OA
ATOM     31  H   UNL     1      32.832 -26.522 -13.329  0.00  0.00    +0.295 HD
ENDBRANCH  29  30
ENDBRANCH  27  29
ENDBRANCH   3  27
TORSDOF 4
ENDMDL
MODEL 4
REMARK VINA RESULT:      -8.2      8.025     11.356
REMARK  Name = 49843471
REMARK  4 active torsions:
REMARK  status: ('A' for Active; 'I' for Inactive)
REMARK    1  A    between atoms: N_3  and  C_27
REMARK    2  A    between atoms: C_12  and  C_17
REMARK    3  A    between atoms: C_27  and  C_29
REMARK    4  A    between atoms: C_29  and  O_30
REMARK                            x       y       z     vdW  Elec       q    Type
REMARK                         _______ _______ _______ _____ _____    ______ ____
ROOT
ATOM      1  F   UNL     1      35.645 -21.928 -19.944  0.00  0.00    -0.204 F 
ATOM      2  O   UNL     1      34.422 -24.905 -11.262  0.00  0.00    -0.270 OA
ATOM      3  N   UNL     1      31.670 -22.864 -16.312  0.00  0.00    -0.321 N 
ATOM      4  N   UNL     1      34.132 -24.701 -13.575  0.00  0.00    -0.272 N 
ATOM      5  C   UNL     1      32.350 -23.553 -15.351  0.00  0.00    +0.037 A 
ATOM      6  C   UNL     1      33.667 -23.675 -15.737  0.00  0.00    +0.011 A 
ATOM      7  C   UNL     1      31.774 -24.071 -14.086  0.00  0.00    +0.065 C 
ATOM      8  C   UNL     1      34.691 -24.382 -14.916  0.00  0.00    +0.122 C 
ATOM      9  C   UNL     1      32.723 -25.145 -13.530  0.00  0.00    +0.100 C 
ATOM     10  C   UNL     1      33.795 -23.032 -17.002  0.00  0.00    +0.017 A 
ATOM     11  C   UNL     1      32.531 -22.532 -17.337  0.00  0.00    +0.060 A 
ATOM     12  C   UNL     1      34.863 -24.647 -12.381  0.00  0.00    +0.249 C 
ATOM     13  C   UNL     1      34.863 -22.824 -17.897  0.00  0.00    +0.031 C 
ATOM     14  C   UNL     1      32.289 -21.834 -18.525  0.00  0.00    +0.019 C 
ATOM     15  C   UNL     1      34.633 -22.127 -19.089  0.00  0.00    +0.140 C 
ATOM     16  C   UNL     1      33.364 -21.641 -19.396  0.00  0.00    +0.031 C 
ENDROOT
BRANCH  12  17
ATOM     17  C   UNL     1      36.279 -24.256 -12.452  0.00  0.00    +0.054 C 
ATOM     18  C   UNL     1      37.236 -25.013 -13.147  0.00  0.00    +0.004 C 
ATOM     19  C   UNL     1      36.642 -23.082 -11.791  0.00  0.00    +0.005 C 
ATOM     20  C   UNL     1      38.582 -24.572 -13.171  0.00  0.00    +0.000 C 
ATOM     21  C   UNL     1      36.889 -26.197 -13.818  0.00  0.00    +0.000 C 
ATOM     22  C   UNL     1      37.965 -22.650 -11.815  0.00  0.00    +0.000 C 
ATOM     23  C   UNL     1      38.929 -23.389 -12.500  0.00  0.00    +0.000 C 
ATOM     24  C   UNL     1      39.539 -25.330 -13.866  0.00  0.00    +0.000 C 
ATOM     25  C   UNL     1      37.854 -26.936 -14.503  0.00  0.00    +0.000 C 
ATOM     26  C   UNL     1      39.177 -26.503 -14.527  0.00  0.00    +0.000 C 
ENDBRANCH  12  17
BRANCH   3  27
ATOM     27  C   UNL     1      30.265 -22.522 -16.263  0.00  0.00    +0.216 C 
BRANCH  27  29
ATOM     28  O   UNL     1      29.454 -24.794 -16.224  0.00  0.00    -0.248 OA
ATOM     29  C   UNL     1      29.389 -23.667 -16.698  0.00  0.00    +0.337 C 
BRANCH  29  30
ATOM     30  O   UNL     1      28.535 -23.326 -17.696  0.00  0.00    -0.479 OA
ATOM     31  H   UNL     1      28.507 -23.835 -18.482  0.00  0.00    +0.295 HD
ENDBRANCH  29  30
ENDBRANCH  27  29
ENDBRANCH   3  27
TORSDOF 4
ENDMDL
MODEL 5
REMARK VINA RESULT:      -7.7      6.731     12.755
REMARK  Name = 49843471
REMARK  4 active torsions:
REMARK  status: ('A' for Active; 'I' for Inactive)
REMARK    1  A    between atoms: N_3  and  C_27
REMARK    2  A    between atoms: C_12  and  C_17
REMARK    3  A    between atoms: C_27  and  C_29
REMARK    4  A    between atoms: C_29  and  O_30
REMARK                            x       y       z     vdW  Elec       q    Type
REMARK                         _______ _______ _______ _____ _____    ______ ____
ROOT
ATOM      1  F   UNL     1      34.927 -12.003 -25.950  0.00  0.00    -0.204 F 
ATOM      2  O   UNL     1      31.343  -3.989 -23.008  0.00  0.00    -0.270 OA
ATOM      3  N   UNL     1      31.824  -9.976 -21.933  0.00  0.00    -0.321 N 
ATOM      4  N   UNL     1      32.461  -6.043 -22.959  0.00  0.00    -0.272 N 
ATOM      5  C   UNL     1      32.004  -8.637 -22.113  0.00  0.00    +0.037 A 
ATOM      6  C   UNL     1      32.848  -8.440 -23.186  0.00  0.00    +0.011 A 
ATOM      7  C   UNL     1      31.382  -7.562 -21.302  0.00  0.00    +0.065 C 
ATOM      8  C   UNL     1      33.261  -7.086 -23.654  0.00  0.00    +0.122 C 
ATOM      9  C   UNL     1      32.179  -6.267 -21.526  0.00  0.00    +0.100 C 
ATOM     10  C   UNL     1      33.203  -9.727 -23.681  0.00  0.00    +0.017 A 
ATOM     11  C   UNL     1      32.548 -10.670 -22.880  0.00  0.00    +0.060 A 
ATOM     12  C   UNL     1      32.005  -4.865 -23.563  0.00  0.00    +0.249 C 
ATOM     13  C   UNL     1      34.019 -10.186 -24.735  0.00  0.00    +0.031 C 
ATOM     14  C   UNL     1      32.672 -12.049 -23.086  0.00  0.00    +0.019 C 
ATOM     15  C   UNL     1      34.151 -11.563 -24.950  0.00  0.00    +0.140 C 
ATOM     16  C   UNL     1      33.487 -12.478 -24.137  0.00  0.00    +0.031 C 
ENDROOT
BRANCH  12  17
ATOM     17  C   UNL     1      32.343  -4.633 -24.975  0.00  0.00    +0.054 C 
ATOM     18  C   UNL     1      31.676  -3.681 -25.764  0.00  0.00    +0.004 C 
ATOM     19  C   UNL     1      33.370  -5.409 -25.513  0.00  0.00    +0.005 C 
ATOM     20  C   UNL     1      32.057  -3.514 -27.117  0.00  0.00    +0.000 C 
ATOM     21  C   UNL     1      30.640  -2.891 -25.240  0.00  0.00    +0.000 C 
ATOM     22  C   UNL     1      33.745  -5.244 -26.843  0.00  0.00    +0.000 C 
ATOM     23  C   UNL     1      33.094  -4.303 -27.641  0.00  0.00    +0.000 C 
ATOM     24  C   UNL     1      31.390  -2.561 -27.906  0.00  0.00    +0.000 C 
ATOM     25  C   UNL     1      29.988  -1.950 -26.038  0.00  0.00    +0.000 C 
ATOM     26  C   UNL     1      30.363  -1.786 -27.368  0.00  0.00    +0.000 C 
ENDBRANCH  12  17
BRANCH   3  27
ATOM     27  C   UNL     1      30.994 -10.582 -20.914  0.00  0.00    +0.216 C 
BRANCH  27  29
ATOM     28  O   UNL     1      32.224 -10.071 -18.901  0.00  0.00    -0.248 OA
ATOM     29  C   UNL     1      31.776 -10.912 -19.670  0.00  0.00    +0.337 C 
BRANCH  29  30
ATOM     30  O   UNL     1      31.961 -12.246 -19.505  0.00  0.00    -0.479 OA
ATOM     31  H   UNL     1      31.255 -12.782 -19.201  0.00  0.00    +0.295 HD
ENDBRANCH  29  30
ENDBRANCH  27  29
ENDBRANCH   3  27
TORSDOF 4
ENDMDL
MODEL 6
REMARK VINA RESULT:      -7.7      5.975     11.826
REMARK  Name = 49843471
REMARK  4 active torsions:
REMARK  status: ('A' for Active; 'I' for Inactive)
REMARK    1  A    between atoms: N_3  and  C_27
REMARK    2  A    between atoms: C_12  and  C_17
REMARK    3  A    between atoms: C_27  and  C_29
REMARK    4  A    between atoms: C_29  and  O_30
REMARK                            x       y       z     vdW  Elec       q    Type
REMARK                         _______ _______ _______ _____ _____    ______ ____
ROOT
ATOM      1  F   UNL     1      34.946 -11.870 -27.212  0.00  0.00    -0.204 F 
ATOM      2  O   UNL     1      31.318  -5.855 -21.181  0.00  0.00    -0.270 OA
ATOM      3  N   UNL     1      32.306 -11.746 -22.428  0.00  0.00    -0.321 N 
ATOM      4  N   UNL     1      32.556  -7.661 -22.005  0.00  0.00    -0.272 N 
ATOM      5  C   UNL     1      32.378 -10.419 -22.124  0.00  0.00    +0.037 A 
ATOM      6  C   UNL     1      33.053  -9.765 -23.132  0.00  0.00    +0.011 A 
ATOM      7  C   UNL     1      31.808  -9.775 -20.915  0.00  0.00    +0.065 C 
ATOM      8  C   UNL     1      33.314  -8.298 -23.114  0.00  0.00    +0.122 C 
ATOM      9  C   UNL     1      32.486  -8.408 -20.732  0.00  0.00    +0.100 C 
ATOM     10  C   UNL     1      33.414 -10.747 -24.099  0.00  0.00    +0.017 A 
ATOM     11  C   UNL     1      32.934 -11.977 -23.634  0.00  0.00    +0.060 A 
ATOM     12  C   UNL     1      31.950  -6.400 -22.084  0.00  0.00    +0.249 C 
ATOM     13  C   UNL     1      34.105 -10.711 -25.327  0.00  0.00    +0.031 C 
ATOM     14  C   UNL     1      33.113 -13.170 -24.342  0.00  0.00    +0.019 C 
ATOM     15  C   UNL     1      34.290 -11.899 -26.044  0.00  0.00    +0.140 C 
ATOM     16  C   UNL     1      33.800 -13.109 -25.557  0.00  0.00    +0.031 C 
ENDROOT
BRANCH  12  17
ATOM     17  C   UNL     1      32.076  -5.647 -23.341  0.00  0.00    +0.054 C 
ATOM     18  C   UNL     1      31.539  -4.361 -23.506  0.00  0.00    +0.004 C 
ATOM     19  C   UNL     1      32.764  -6.271 -24.382  0.00  0.00    +0.005 C 
ATOM     20  C   UNL     1      31.701  -3.697 -24.746  0.00  0.00    +0.000 C 
ATOM     21  C   UNL     1      30.844  -3.717 -22.469  0.00  0.00    +0.000 C 
ATOM     22  C   UNL     1      32.923  -5.619 -25.601  0.00  0.00    +0.000 C 
ATOM     23  C   UNL     1      32.395  -4.340 -25.783  0.00  0.00    +0.000 C 
ATOM     24  C   UNL     1      31.163  -2.410 -24.911  0.00  0.00    +0.000 C 
ATOM     25  C   UNL     1      30.317  -2.438 -22.651  0.00  0.00    +0.000 C 
ATOM     26  C   UNL     1      30.476  -1.786 -23.870  0.00  0.00    +0.000 C 
ENDBRANCH  12  17
BRANCH   3  27
ATOM     27  C   UNL     1      31.662 -12.759 -21.620  0.00  0.00    +0.216 C 
BRANCH  27  29
ATOM     28  O   UNL     1      33.662 -13.768 -20.723  0.00  0.00    -0.248 OA
ATOM     29  C   UNL     1      32.589 -13.901 -21.299  0.00  0.00    +0.337 C 
BRANCH  29  30
ATOM     30  O   UNL     1      32.125 -15.095 -21.745  0.00  0.00    -0.479 OA
ATOM     31  H   UNL     1      32.647 -15.867 -21.646  0.00  0.00    +0.295 HD
ENDBRANCH  29  30
ENDBRANCH  27  29
ENDBRANCH   3  27
TORSDOF 4
ENDMDL
MODEL 7
REMARK VINA RESULT:      -7.4      3.319      5.376
REMARK  Name = 49843471
REMARK  4 active torsions:
REMARK  status: ('A' for Active; 'I' for Inactive)
REMARK    1  A    between atoms: N_3  and  C_27
REMARK    2  A    between atoms: C_12  and  C_17
REMARK    3  A    between atoms: C_27  and  C_29
REMARK    4  A    between atoms: C_29  and  O_30
REMARK                            x       y       z     vdW  Elec       q    Type
REMARK                         _______ _______ _______ _____ _____    ______ ____
ROOT
ATOM      1  F   UNL     1      35.869 -10.624 -27.134  0.00  0.00    -0.204 F 
ATOM      2  O   UNL     1      32.098 -15.371 -20.135  0.00  0.00    -0.270 OA
ATOM      3  N   UNL     1      33.012  -9.838 -22.541  0.00  0.00    -0.321 N 
ATOM      4  N   UNL     1      32.301 -13.838 -21.891  0.00  0.00    -0.272 N 
ATOM      5  C   UNL     1      32.641 -11.115 -22.242  0.00  0.00    +0.037 A 
ATOM      6  C   UNL     1      33.148 -11.964 -23.202  0.00  0.00    +0.011 A 
ATOM      7  C   UNL     1      31.838 -11.530 -21.066  0.00  0.00    +0.065 C 
ATOM      8  C   UNL     1      32.923 -13.438 -23.181  0.00  0.00    +0.122 C 
ATOM      9  C   UNL     1      31.270 -12.932 -21.341  0.00  0.00    +0.100 C 
ATOM     10  C   UNL     1      33.862 -11.161 -24.137  0.00  0.00    +0.017 A 
ATOM     11  C   UNL     1      33.762  -9.835 -23.699  0.00  0.00    +0.060 A 
ATOM     12  C   UNL     1      32.599 -15.020 -21.203  0.00  0.00    +0.249 C 
ATOM     13  C   UNL     1      34.585 -11.431 -25.316  0.00  0.00    +0.031 C 
ATOM     14  C   UNL     1      34.353  -8.769 -24.386  0.00  0.00    +0.019 C 
ATOM     15  C   UNL     1      35.181 -10.372 -26.012  0.00  0.00    +0.140 C 
ATOM     16  C   UNL     1      35.065  -9.063 -25.552  0.00  0.00    +0.031 C 
ENDROOT
BRANCH  12  17
ATOM     17  C   UNL     1      33.588 -15.936 -21.792  0.00  0.00    +0.054 C 
ATOM     18  C   UNL     1      33.578 -17.318 -21.544  0.00  0.00    +0.004 C 
ATOM     19  C   UNL     1      34.553 -15.369 -22.625  0.00  0.00    +0.005 C 
ATOM     20  C   UNL     1      34.562 -18.137 -22.149  0.00  0.00    +0.000 C 
ATOM     21  C   UNL     1      32.614 -17.906 -20.709  0.00  0.00    +0.000 C 
ATOM     22  C   UNL     1      35.521 -16.174 -23.218  0.00  0.00    +0.000 C 
ATOM     23  C   UNL     1      35.526 -17.549 -22.983  0.00  0.00    +0.000 C 
ATOM     24  C   UNL     1      34.552 -19.519 -21.900  0.00  0.00    +0.000 C 
ATOM     25  C   UNL     1      32.619 -19.281 -20.474  0.00  0.00    +0.000 C 
ATOM     26  C   UNL     1      33.586 -20.087 -21.068  0.00  0.00    +0.000 C 
ENDBRANCH  12  17
BRANCH   3  27
ATOM     27  C   UNL     1      32.683  -8.664 -21.762  0.00  0.00    +0.216 C 
BRANCH  27  29
ATOM     28  O   UNL     1      30.899  -8.237 -23.330  0.00  0.00    -0.248 OA
ATOM     29  C   UNL     1      31.604  -7.838 -22.411  0.00  0.00    +0.337 C 
BRANCH  29  30
ATOM     30  O   UNL     1      31.513  -6.589 -21.889  0.00  0.00    -0.479 OA
ATOM     31  H   UNL     1      31.481  -6.471 -20.961  0.00  0.00    +0.295 HD
ENDBRANCH  29  30
ENDBRANCH  27  29
ENDBRANCH   3  27
TORSDOF 4
ENDMDL
MODEL 8
REMARK VINA RESULT:      -7.3      2.122      3.405
REMARK  Name = 49843471
REMARK  4 active torsions:
REMARK  status: ('A' for Active; 'I' for Inactive)
REMARK    1  A    between atoms: N_3  and  C_27
REMARK    2  A    between atoms: C_12  and  C_17
REMARK    3  A    between atoms: C_27  and  C_29
REMARK    4  A    between atoms: C_29  and  O_30
REMARK                            x       y       z     vdW  Elec       q    Type
REMARK                         _______ _______ _______ _____ _____    ______ ____
ROOT
ATOM      1  F   UNL     1      31.706 -14.513 -19.346  0.00  0.00    -0.204 F 
ATOM      2  O   UNL     1      36.932 -21.965 -21.047  0.00  0.00    -0.270 OA
ATOM      3  N   UNL     1      35.100 -16.529 -23.127  0.00  0.00    -0.321 N 
ATOM      4  N   UNL     1      36.316 -19.718 -20.830  0.00  0.00    -0.272 N 
ATOM      5  C   UNL     1      35.644 -17.583 -22.456  0.00  0.00    +0.037 A 
ATOM      6  C   UNL     1      35.095 -17.639 -21.192  0.00  0.00    +0.011 A 
ATOM      7  C   UNL     1      36.648 -18.530 -22.998  0.00  0.00    +0.065 C 
ATOM      8  C   UNL     1      35.475 -18.674 -20.188  0.00  0.00    +0.122 C 
ATOM      9  C   UNL     1      37.315 -19.254 -21.817  0.00  0.00    +0.100 C 
ATOM     10  C   UNL     1      34.173 -16.559 -21.088  0.00  0.00    +0.017 A 
ATOM     11  C   UNL     1      34.194 -15.881 -22.313  0.00  0.00    +0.060 A 
ATOM     12  C   UNL     1      36.247 -21.084 -20.529  0.00  0.00    +0.249 C 
ATOM     13  C   UNL     1      33.318 -16.088 -20.070  0.00  0.00    +0.031 C 
ATOM     14  C   UNL     1      33.401 -14.757 -22.565  0.00  0.00    +0.019 C 
ATOM     15  C   UNL     1      32.520 -14.964 -20.311  0.00  0.00    +0.140 C 
ATOM     16  C   UNL     1      32.562 -14.310 -21.540  0.00  0.00    +0.031 C 
ENDROOT
BRANCH  12  17
ATOM     17  C   UNL     1      35.286 -21.521 -19.505  0.00  0.00    +0.054 C 
ATOM     18  C   UNL     1      35.684 -21.921 -18.219  0.00  0.00    +0.004 C 
ATOM     19  C   UNL     1      33.939 -21.522 -19.866  0.00  0.00    +0.005 C 
ATOM     20  C   UNL     1      34.700 -22.328 -17.285  0.00  0.00    +0.000 C 
ATOM     21  C   UNL     1      37.036 -21.926 -17.837  0.00  0.00    +0.000 C 
ATOM     22  C   UNL     1      32.972 -21.922 -18.948  0.00  0.00    +0.000 C 
ATOM     23  C   UNL     1      33.349 -22.323 -17.667  0.00  0.00    +0.000 C 
ATOM     24  C   UNL     1      35.098 -22.728 -15.999  0.00  0.00    +0.000 C 
ATOM     25  C   UNL     1      37.412 -22.326 -16.555  0.00  0.00    +0.000 C 
ATOM     26  C   UNL     1      36.446 -22.727 -15.638  0.00  0.00    +0.000 C 
ENDBRANCH  12  17
BRANCH   3  27
ATOM     27  C   UNL     1      35.412 -16.149 -24.488  0.00  0.00    +0.216 C 
BRANCH  27  29
ATOM     28  O   UNL     1      34.128 -17.885 -25.565  0.00  0.00    -0.248 OA
ATOM     29  C   UNL     1      34.413 -16.698 -25.472  0.00  0.00    +0.337 C 
BRANCH  29  30
ATOM     30  O   UNL     1      33.880 -15.739 -26.270  0.00  0.00    -0.479 OA
ATOM     31  H   UNL     1      33.941 -14.837 -26.022  0.00  0.00    +0.295 HD
ENDBRANCH  29  30
ENDBRANCH  27  29
ENDBRANCH   3  27
TORSDOF 4
ENDMDL
