MODEL 1
REMARK VINA RESULT:     -11.7      0.000      0.000
REMARK  Name = 11234049
REMARK  5 active torsions:
REMARK  status: ('A' for Active; 'I' for Inactive)
REMARK    1  A    between atoms: C_2  and  N_10
REMARK    2  A    between atoms: C_5  and  C_18
REMARK    3  A    between atoms: C_11  and  C_14
REMARK    4  A    between atoms: C_14  and  O_15
REMARK    5  A    between atoms: C_22  and  C_27
REMARK                            x       y       z     vdW  Elec       q    Type
REMARK                         _______ _______ _______ _____ _____    ______ ____
ROOT
ATOM      1  F   UNL     1      33.923 -23.820 -17.046  0.00  0.00    -0.204 F 
ATOM      2  C   UNL     1      35.893 -24.532 -14.070  0.00  0.00    +0.059 C 
ATOM      3  C   UNL     1      35.543 -24.345 -15.412  0.00  0.00    +0.045 C 
ATOM      4  C   UNL     1      34.924 -24.363 -13.076  0.00  0.00    +0.015 C 
ATOM      5  C   UNL     1      33.276 -23.827 -14.757  0.00  0.00    +0.029 C 
ATOM      6  C   UNL     1      34.238 -23.994 -15.755  0.00  0.00    +0.141 C 
ATOM      7  C   UNL     1      33.620 -24.010 -13.418  0.00  0.00    +0.004 C 
ENDROOT
BRANCH   2  10
ATOM      8  O   UNL     1      39.004 -25.913 -12.777  0.00  0.00    -0.434 OA
ATOM      9  O   UNL     1      36.950 -26.657 -12.168  0.00  0.00    -0.226 OA
ATOM     10  N   UNL     1      37.225 -24.893 -13.720  0.00  0.00    -0.221 N 
ATOM     11  C   UNL     1      39.531 -25.066 -13.807  0.00  0.00    +0.220 C 
ATOM     12  C   UNL     1      38.376 -24.160 -14.176  0.00  0.00    +0.148 C 
ATOM     13  C   UNL     1      37.628 -25.893 -12.839  0.00  0.00    +0.409 C 
BRANCH  11  14
ATOM     14  C   UNL     1      40.005 -25.934 -14.964  0.00  0.00    +0.183 C 
BRANCH  14  15
ATOM     15  O   UNL     1      41.056 -26.767 -14.505  0.00  0.00    -0.378 OA
ATOM     16  H   UNL     1      41.842 -26.227 -14.330  0.00  0.00    +0.211 HD
ENDBRANCH  14  15
ENDBRANCH  11  14
ENDBRANCH   2  10
BRANCH   5  18
ATOM     17  N   UNL     1      30.359 -22.695 -16.784  0.00  0.00    -0.234 NA
ATOM     18  C   UNL     1      31.919 -23.461 -15.108  0.00  0.00    +0.021 C 
ATOM     19  C   UNL     1      30.900 -23.516 -14.168  0.00  0.00    +0.004 C 
ATOM     20  C   UNL     1      31.603 -23.049 -16.391  0.00  0.00    +0.100 C 
ATOM     21  C   UNL     1      29.607 -23.159 -14.534  0.00  0.00    +0.029 C 
ATOM     22  C   UNL     1      29.391 -22.759 -15.843  0.00  0.00    +0.146 C 
BRANCH  22  27
ATOM     23  N   UNL     1      27.821 -21.858 -17.478  0.00  0.00    -0.105 NA
ATOM     24  N   UNL     1      26.496 -21.694 -17.365  0.00  0.00    -0.113 N 
ATOM     25  N   UNL     1      26.978 -22.521 -15.484  0.00  0.00    -0.085 NA
ATOM     26  N   UNL     1      25.953 -22.074 -16.199  0.00  0.00    -0.018 NA
ATOM     27  C   UNL     1      28.077 -22.379 -16.276  0.00  0.00    +0.092 C 
ATOM     28  C   UNL     1      25.702 -21.141 -18.431  0.00  0.00    +0.163 C 
ENDBRANCH  22  27
ENDBRANCH   5  18
TORSDOF 5
ENDMDL
MODEL 2
REMARK VINA RESULT:     -11.5      5.692      6.881
REMARK  Name = 11234049
REMARK  5 active torsions:
REMARK  status: ('A' for Active; 'I' for Inactive)
REMARK    1  A    between atoms: C_2  and  N_10
REMARK    2  A    between atoms: C_5  and  C_18
REMARK    3  A    between atoms: C_11  and  C_14
REMARK    4  A    between atoms: C_14  and  O_15
REMARK    5  A    between atoms: C_22  and  C_27
REMARK                            x       y       z     vdW  Elec       q    Type
REMARK                         _______ _______ _______ _____ _____    ______ ____
ROOT
ATOM      1  F   UNL     1      33.328 -22.737 -18.271  0.00  0.00    -0.204 F 
ATOM      2  C   UNL     1      36.010 -23.300 -15.877  0.00  0.00    +0.059 C 
ATOM      3  C   UNL     1      34.768 -23.382 -16.516  0.00  0.00    +0.045 C 
ATOM      4  C   UNL     1      37.006 -22.476 -16.410  0.00  0.00    +0.015 C 
ATOM      5  C   UNL     1      35.523 -21.824 -18.201  0.00  0.00    +0.029 C 
ATOM      6  C   UNL     1      34.525 -22.646 -17.675  0.00  0.00    +0.141 C 
ATOM      7  C   UNL     1      36.763 -21.741 -17.569  0.00  0.00    +0.004 C 
ENDROOT
BRANCH   2  10
ATOM      8  O   UNL     1      36.713 -25.745 -13.271  0.00  0.00    -0.434 OA
ATOM      9  O   UNL     1      36.629 -26.252 -15.480  0.00  0.00    -0.226 OA
ATOM     10  N   UNL     1      36.258 -24.052 -14.693  0.00  0.00    -0.221 N 
ATOM     11  C   UNL     1      36.764 -24.543 -12.490  0.00  0.00    +0.220 C 
ATOM     12  C   UNL     1      36.131 -23.492 -13.374  0.00  0.00    +0.148 C 
ATOM     13  C   UNL     1      36.546 -25.411 -14.597  0.00  0.00    +0.409 C 
BRANCH  11  14
ATOM     14  C   UNL     1      38.217 -24.242 -12.145  0.00  0.00    +0.183 C 
BRANCH  14  15
ATOM     15  O   UNL     1      38.304 -22.908 -11.675  0.00  0.00    -0.378 OA
ATOM     16  H   UNL     1      39.055 -22.465 -12.099  0.00  0.00    +0.211 HD
ENDBRANCH  14  15
ENDBRANCH  11  14
ENDBRANCH   2  10
BRANCH   5  18
ATOM     17  N   UNL     1      36.161 -19.797 -21.265  0.00  0.00    -0.234 NA
ATOM     18  C   UNL     1      35.276 -21.058 -19.405  0.00  0.00    +0.021 C 
ATOM     19  C   UNL     1      33.982 -20.843 -19.860  0.00  0.00    +0.004 C 
ATOM     20  C   UNL     1      36.322 -20.521 -20.133  0.00  0.00    +0.100 C 
ATOM     21  C   UNL     1      33.775 -20.103 -21.019  0.00  0.00    +0.029 C 
ATOM     22  C   UNL     1      34.888 -19.607 -21.678  0.00  0.00    +0.146 C 
BRANCH  22  27
ATOM     23  N   UNL     1      34.577 -17.510 -22.886  0.00  0.00    -0.105 NA
ATOM     24  N   UNL     1      34.484 -17.312 -24.208  0.00  0.00    -0.113 N 
ATOM     25  N   UNL     1      34.736 -19.405 -24.116  0.00  0.00    -0.085 NA
ATOM     26  N   UNL     1      34.573 -18.407 -24.976  0.00  0.00    -0.018 NA
ATOM     27  C   UNL     1      34.734 -18.836 -22.879  0.00  0.00    +0.092 C 
ATOM     28  C   UNL     1      34.297 -16.000 -24.771  0.00  0.00    +0.163 C 
ENDBRANCH  22  27
ENDBRANCH   5  18
TORSDOF 5
ENDMDL
MODEL 3
REMARK VINA RESULT:     -11.1      5.708      6.880
REMARK  Name = 11234049
REMARK  5 active torsions:
REMARK  status: ('A' for Active; 'I' for Inactive)
REMARK    1  A    between atoms: C_2  and  N_10
REMARK    2  A    between atoms: C_5  and  C_18
REMARK    3  A    between atoms: C_11  and  C_14
REMARK    4  A    between atoms: C_14  and  O_15
REMARK    5  A    between atoms: C_22  and  C_27
REMARK                            x       y       z     vdW  Elec       q    Type
REMARK                         _______ _______ _______ _____ _____    ______ ____
ROOT
ATOM      1  F   UNL     1      37.519 -20.729 -17.808  0.00  0.00    -0.204 F 
ATOM      2  C   UNL     1      35.912 -23.331 -15.835  0.00  0.00    +0.059 C 
ATOM      3  C   UNL     1      36.844 -22.378 -16.260  0.00  0.00    +0.045 C 
ATOM      4  C   UNL     1      34.747 -23.534 -16.580  0.00  0.00    +0.015 C 
ATOM      5  C   UNL     1      35.447 -21.845 -18.157  0.00  0.00    +0.029 C 
ATOM      6  C   UNL     1      36.613 -21.637 -17.418  0.00  0.00    +0.141 C 
ATOM      7  C   UNL     1      34.514 -22.792 -17.737  0.00  0.00    +0.004 C 
ENDROOT
BRANCH   2  10
ATOM      8  O   UNL     1      36.590 -25.790 -13.237  0.00  0.00    -0.434 OA
ATOM      9  O   UNL     1      36.524 -26.285 -15.449  0.00  0.00    -0.226 OA
ATOM     10  N   UNL     1      36.149 -24.089 -14.653  0.00  0.00    -0.221 N 
ATOM     11  C   UNL     1      36.637 -24.593 -12.448  0.00  0.00    +0.220 C 
ATOM     12  C   UNL     1      36.012 -23.536 -13.332  0.00  0.00    +0.148 C 
ATOM     13  C   UNL     1      36.435 -25.449 -14.562  0.00  0.00    +0.409 C 
BRANCH  11  14
ATOM     14  C   UNL     1      38.087 -24.296 -12.091  0.00  0.00    +0.183 C 
BRANCH  14  15
ATOM     15  O   UNL     1      38.185 -22.943 -11.681  0.00  0.00    -0.378 OA
ATOM     16  H   UNL     1      38.535 -22.904 -10.777  0.00  0.00    +0.211 HD
ENDBRANCH  14  15
ENDBRANCH  11  14
ENDBRANCH   2  10
BRANCH   5  18
ATOM     17  N   UNL     1      36.090 -19.807 -21.212  0.00  0.00    -0.234 NA
ATOM     18  C   UNL     1      35.202 -21.077 -19.360  0.00  0.00    +0.021 C 
ATOM     19  C   UNL     1      33.910 -20.869 -19.823  0.00  0.00    +0.004 C 
ATOM     20  C   UNL     1      36.250 -20.532 -20.082  0.00  0.00    +0.100 C 
ATOM     21  C   UNL     1      33.705 -20.128 -20.982  0.00  0.00    +0.029 C 
ATOM     22  C   UNL     1      34.819 -19.623 -21.633  0.00  0.00    +0.146 C 
BRANCH  22  27
ATOM     23  N   UNL     1      34.529 -17.523 -22.839  0.00  0.00    -0.105 NA
ATOM     24  N   UNL     1      34.429 -17.323 -24.161  0.00  0.00    -0.113 N 
ATOM     25  N   UNL     1      34.653 -19.420 -24.070  0.00  0.00    -0.085 NA
ATOM     26  N   UNL     1      34.498 -18.420 -24.929  0.00  0.00    -0.018 NA
ATOM     27  C   UNL     1      34.668 -18.850 -22.833  0.00  0.00    +0.092 C 
ATOM     28  C   UNL     1      34.258 -16.009 -24.723  0.00  0.00    +0.163 C 
ENDBRANCH  22  27
ENDBRANCH   5  18
TORSDOF 5
ENDMDL
MODEL 4
REMARK VINA RESULT:     -10.9      5.786      6.899
REMARK  Name = 11234049
REMARK  5 active torsions:
REMARK  status: ('A' for Active; 'I' for Inactive)
REMARK    1  A    between atoms: C_2  and  N_10
REMARK    2  A    between atoms: C_5  and  C_18
REMARK    3  A    between atoms: C_11  and  C_14
REMARK    4  A    between atoms: C_14  and  O_15
REMARK    5  A    between atoms: C_22  and  C_27
REMARK                            x       y       z     vdW  Elec       q    Type
REMARK                         _______ _______ _______ _____ _____    ______ ____
ROOT
ATOM      1  F   UNL     1      33.315 -22.643 -18.414  0.00  0.00    -0.204 F 
ATOM      2  C   UNL     1      36.010 -23.198 -16.032  0.00  0.00    +0.059 C 
ATOM      3  C   UNL     1      34.766 -23.286 -16.667  0.00  0.00    +0.045 C 
ATOM      4  C   UNL     1      36.998 -22.364 -16.564  0.00  0.00    +0.015 C 
ATOM      5  C   UNL     1      35.503 -21.714 -18.347  0.00  0.00    +0.029 C 
ATOM      6  C   UNL     1      34.513 -22.546 -17.821  0.00  0.00    +0.141 C 
ATOM      7  C   UNL     1      36.745 -21.625 -17.719  0.00  0.00    +0.004 C 
ENDROOT
BRANCH   2  10
ATOM      8  O   UNL     1      36.024 -24.993 -12.864  0.00  0.00    -0.434 OA
ATOM      9  O   UNL     1      34.212 -23.904 -13.683  0.00  0.00    -0.226 OA
ATOM     10  N   UNL     1      36.268 -23.954 -14.853  0.00  0.00    -0.221 N 
ATOM     11  C   UNL     1      37.298 -25.407 -13.377  0.00  0.00    +0.220 C 
ATOM     12  C   UNL     1      37.575 -24.449 -14.514  0.00  0.00    +0.148 C 
ATOM     13  C   UNL     1      35.378 -24.241 -13.820  0.00  0.00    +0.409 C 
BRANCH  11  14
ATOM     14  C   UNL     1      37.199 -26.859 -13.826  0.00  0.00    +0.183 C 
BRANCH  14  15
ATOM     15  O   UNL     1      38.295 -27.146 -14.678  0.00  0.00    -0.378 OA
ATOM     16  H   UNL     1      38.674 -26.316 -15.006  0.00  0.00    +0.211 HD
ENDBRANCH  14  15
ENDBRANCH  11  14
ENDBRANCH   2  10
BRANCH   5  18
ATOM     17  N   UNL     1      36.114 -19.664 -21.400  0.00  0.00    -0.234 NA
ATOM     18  C   UNL     1      35.246 -20.944 -19.546  0.00  0.00    +0.021 C 
ATOM     19  C   UNL     1      33.949 -20.739 -19.997  0.00  0.00    +0.004 C 
ATOM     20  C   UNL     1      36.285 -20.392 -20.273  0.00  0.00    +0.100 C 
ATOM     21  C   UNL     1      33.732 -19.995 -21.152  0.00  0.00    +0.029 C 
ATOM     22  C   UNL     1      34.839 -19.483 -21.810  0.00  0.00    +0.146 C 
BRANCH  22  27
ATOM     23  N   UNL     1      34.483 -17.386 -23.004  0.00  0.00    -0.105 NA
ATOM     24  N   UNL     1      34.396 -17.180 -24.325  0.00  0.00    -0.113 N 
ATOM     25  N   UNL     1      34.701 -19.266 -24.248  0.00  0.00    -0.085 NA
ATOM     26  N   UNL     1      34.520 -18.267 -25.101  0.00  0.00    -0.018 NA
ATOM     27  C   UNL     1      34.675 -18.707 -23.006  0.00  0.00    +0.092 C 
ATOM     28  C   UNL     1      34.180 -15.869 -24.880  0.00  0.00    +0.163 C 
ENDBRANCH  22  27
ENDBRANCH   5  18
TORSDOF 5
ENDMDL
MODEL 5
REMARK VINA RESULT:     -10.9      7.932     10.628
REMARK  Name = 11234049
REMARK  5 active torsions:
REMARK  status: ('A' for Active; 'I' for Inactive)
REMARK    1  A    between atoms: C_2  and  N_10
REMARK    2  A    between atoms: C_5  and  C_18
REMARK    3  A    between atoms: C_11  and  C_14
REMARK    4  A    between atoms: C_14  and  O_15
REMARK    5  A    between atoms: C_22  and  C_27
REMARK                            x       y       z     vdW  Elec       q    Type
REMARK                         _______ _______ _______ _____ _____    ______ ____
ROOT
ATOM      1  F   UNL     1      33.149 -20.847 -19.857  0.00  0.00    -0.204 F 
ATOM      2  C   UNL     1      35.205 -18.887 -22.132  0.00  0.00    +0.059 C 
ATOM      3  C   UNL     1      34.085 -19.476 -21.535  0.00  0.00    +0.045 C 
ATOM      4  C   UNL     1      36.475 -19.122 -21.596  0.00  0.00    +0.015 C 
ATOM      5  C   UNL     1      35.505 -20.522 -19.883  0.00  0.00    +0.029 C 
ATOM      6  C   UNL     1      34.234 -20.291 -20.414  0.00  0.00    +0.141 C 
ATOM      7  C   UNL     1      36.624 -19.936 -20.474  0.00  0.00    +0.004 C 
ENDROOT
BRANCH   2  10
ATOM      8  O   UNL     1      34.619 -17.329 -25.370  0.00  0.00    -0.434 OA
ATOM      9  O   UNL     1      34.300 -19.537 -24.962  0.00  0.00    -0.226 OA
ATOM     10  N   UNL     1      35.052 -18.055 -23.278  0.00  0.00    -0.221 N 
ATOM     11  C   UNL     1      34.834 -16.154 -24.577  0.00  0.00    +0.220 C 
ATOM     12  C   UNL     1      35.448 -16.672 -23.295  0.00  0.00    +0.148 C 
ATOM     13  C   UNL     1      34.620 -18.433 -24.547  0.00  0.00    +0.409 C 
BRANCH  11  14
ATOM     14  C   UNL     1      33.499 -15.453 -24.363  0.00  0.00    +0.183 C 
BRANCH  14  15
ATOM     15  O   UNL     1      33.131 -14.801 -25.566  0.00  0.00    -0.378 OA
ATOM     16  H   UNL     1      33.181 -15.430 -26.302  0.00  0.00    +0.211 HD
ENDBRANCH  14  15
ENDBRANCH  11  14
ENDBRANCH   2  10
BRANCH   5  18
ATOM     17  N   UNL     1      34.766 -23.085 -17.279  0.00  0.00    -0.234 NA
ATOM     18  C   UNL     1      35.665 -21.367 -18.719  0.00  0.00    +0.021 C 
ATOM     19  C   UNL     1      36.812 -21.299 -17.940  0.00  0.00    +0.004 C 
ATOM     20  C   UNL     1      34.679 -22.267 -18.352  0.00  0.00    +0.100 C 
ATOM     21  C   UNL     1      36.938 -22.124 -16.827  0.00  0.00    +0.029 C 
ATOM     22  C   UNL     1      35.895 -22.991 -16.542  0.00  0.00    +0.146 C 
BRANCH  22  27
ATOM     23  N   UNL     1      36.821 -24.890 -15.323  0.00  0.00    -0.105 NA
ATOM     24  N   UNL     1      36.485 -25.350 -14.110  0.00  0.00    -0.113 N 
ATOM     25  N   UNL     1      35.170 -23.712 -14.315  0.00  0.00    -0.085 NA
ATOM     26  N   UNL     1      35.511 -24.682 -13.476  0.00  0.00    -0.018 NA
ATOM     27  C   UNL     1      35.971 -23.865 -15.407  0.00  0.00    +0.092 C 
ATOM     28  C   UNL     1      37.130 -26.495 -13.522  0.00  0.00    +0.163 C 
ENDBRANCH  22  27
ENDBRANCH   5  18
TORSDOF 5
ENDMDL
MODEL 6
REMARK VINA RESULT:     -10.8      6.182      7.492
REMARK  Name = 11234049
REMARK  5 active torsions:
REMARK  status: ('A' for Active; 'I' for Inactive)
REMARK    1  A    between atoms: C_2  and  N_10
REMARK    2  A    between atoms: C_5  and  C_18
REMARK    3  A    between atoms: C_11  and  C_14
REMARK    4  A    between atoms: C_14  and  O_15
REMARK    5  A    between atoms: C_22  and  C_27
REMARK                            x       y       z     vdW  Elec       q    Type
REMARK                         _______ _______ _______ _____ _____    ______ ____
ROOT
ATOM      1  F   UNL     1      33.345 -22.235 -19.034  0.00  0.00    -0.204 F 
ATOM      2  C   UNL     1      35.931 -22.924 -16.568  0.00  0.00    +0.059 C 
ATOM      3  C   UNL     1      34.713 -22.966 -17.255  0.00  0.00    +0.045 C 
ATOM      4  C   UNL     1      36.954 -22.090 -17.029  0.00  0.00    +0.015 C 
ATOM      5  C   UNL     1      35.545 -21.350 -18.846  0.00  0.00    +0.029 C 
ATOM      6  C   UNL     1      34.520 -22.181 -18.391  0.00  0.00    +0.141 C 
ATOM      7  C   UNL     1      36.762 -21.306 -18.166  0.00  0.00    +0.004 C 
ENDROOT
BRANCH   2  10
ATOM      8  O   UNL     1      37.091 -24.867 -13.715  0.00  0.00    -0.434 OA
ATOM      9  O   UNL     1      38.479 -23.807 -15.161  0.00  0.00    -0.226 OA
ATOM     10  N   UNL     1      36.127 -23.726 -15.407  0.00  0.00    -0.221 N 
ATOM     11  C   UNL     1      35.685 -24.849 -13.433  0.00  0.00    +0.220 C 
ATOM     12  C   UNL     1      35.048 -24.391 -14.727  0.00  0.00    +0.148 C 
ATOM     13  C   UNL     1      37.338 -24.079 -14.817  0.00  0.00    +0.409 C 
BRANCH  11  14
ATOM     14  C   UNL     1      35.428 -23.901 -12.270  0.00  0.00    +0.183 C 
BRANCH  14  15
ATOM     15  O   UNL     1      34.067 -23.507 -12.297  0.00  0.00    -0.378 OA
ATOM     16  H   UNL     1      33.845 -23.057 -11.468  0.00  0.00    +0.211 HD
ENDBRANCH  14  15
ENDBRANCH  11  14
ENDBRANCH   2  10
BRANCH   5  18
ATOM     17  N   UNL     1      33.846 -19.651 -21.697  0.00  0.00    -0.234 NA
ATOM     18  C   UNL     1      35.350 -20.533 -20.026  0.00  0.00    +0.021 C 
ATOM     19  C   UNL     1      36.414 -19.863 -20.613  0.00  0.00    +0.004 C 
ATOM     20  C   UNL     1      34.097 -20.398 -20.598  0.00  0.00    +0.100 C 
ATOM     21  C   UNL     1      36.196 -19.085 -21.745  0.00  0.00    +0.029 C 
ATOM     22  C   UNL     1      34.905 -19.013 -22.243  0.00  0.00    +0.146 C 
BRANCH  22  27
ATOM     23  N   UNL     1      34.351 -16.920 -23.367  0.00  0.00    -0.105 NA
ATOM     24  N   UNL     1      34.171 -16.695 -24.676  0.00  0.00    -0.113 N 
ATOM     25  N   UNL     1      34.608 -18.759 -24.663  0.00  0.00    -0.085 NA
ATOM     26  N   UNL     1      34.314 -17.757 -25.481  0.00  0.00    -0.018 NA
ATOM     27  C   UNL     1      34.622 -18.226 -23.410  0.00  0.00    +0.092 C 
ATOM     28  C   UNL     1      33.843 -15.390 -25.187  0.00  0.00    +0.163 C 
ENDBRANCH  22  27
ENDBRANCH   5  18
TORSDOF 5
ENDMDL
MODEL 7
REMARK VINA RESULT:     -10.8      8.300      9.519
REMARK  Name = 11234049
REMARK  5 active torsions:
REMARK  status: ('A' for Active; 'I' for Inactive)
REMARK    1  A    between atoms: C_2  and  N_10
REMARK    2  A    between atoms: C_5  and  C_18
REMARK    3  A    between atoms: C_11  and  C_14
REMARK    4  A    between atoms: C_14  and  O_15
REMARK    5  A    between atoms: C_22  and  C_27
REMARK                            x       y       z     vdW  Elec       q    Type
REMARK                         _______ _______ _______ _____ _____    ______ ____
ROOT
ATOM      1  F   UNL     1      36.850 -19.131 -21.141  0.00  0.00    -0.204 F 
ATOM      2  C   UNL     1      34.773 -21.321 -19.109  0.00  0.00    +0.059 C 
ATOM      3  C   UNL     1      35.899 -20.681 -19.636  0.00  0.00    +0.045 C 
ATOM      4  C   UNL     1      33.505 -21.003 -19.604  0.00  0.00    +0.015 C 
ATOM      5  C   UNL     1      34.490 -19.420 -21.139  0.00  0.00    +0.029 C 
ATOM      6  C   UNL     1      35.758 -19.733 -20.649  0.00  0.00    +0.141 C 
ATOM      7  C   UNL     1      33.363 -20.054 -20.616  0.00  0.00    +0.004 C 
ENDROOT
BRANCH   2  10
ATOM      8  O   UNL     1      35.761 -23.535 -16.391  0.00  0.00    -0.434 OA
ATOM      9  O   UNL     1      37.105 -21.924 -17.252  0.00  0.00    -0.226 OA
ATOM     10  N   UNL     1      34.918 -22.290 -18.075  0.00  0.00    -0.221 N 
ATOM     11  C   UNL     1      34.370 -23.873 -16.479  0.00  0.00    +0.220 C 
ATOM     12  C   UNL     1      33.926 -23.296 -17.805  0.00  0.00    +0.148 C 
ATOM     13  C   UNL     1      36.026 -22.497 -17.257  0.00  0.00    +0.409 C 
BRANCH  11  14
ATOM     14  C   UNL     1      33.640 -23.269 -15.287  0.00  0.00    +0.183 C 
BRANCH  14  15
ATOM     15  O   UNL     1      34.556 -23.135 -14.214  0.00  0.00    -0.378 OA
ATOM     16  H   UNL     1      34.620 -23.978 -13.738  0.00  0.00    +0.211 HD
ENDBRANCH  14  15
ENDBRANCH  11  14
ENDBRANCH   2  10
BRANCH   5  18
ATOM     17  N   UNL     1      33.850 -16.158 -22.828  0.00  0.00    -0.234 NA
ATOM     18  C   UNL     1      34.338 -18.436 -22.191  0.00  0.00    +0.021 C 
ATOM     19  C   UNL     1      34.522 -18.781 -23.522  0.00  0.00    +0.004 C 
ATOM     20  C   UNL     1      34.006 -17.125 -21.895  0.00  0.00    +0.100 C 
ATOM     21  C   UNL     1      34.370 -17.815 -24.511  0.00  0.00    +0.029 C 
ATOM     22  C   UNL     1      34.036 -16.530 -24.114  0.00  0.00    +0.146 C 
BRANCH  22  27
ATOM     23  N   UNL     1      33.823 -14.194 -24.785  0.00  0.00    -0.105 NA
ATOM     24  N   UNL     1      33.655 -13.688 -26.014  0.00  0.00    -0.113 N 
ATOM     25  N   UNL     1      33.731 -15.757 -26.420  0.00  0.00    -0.085 NA
ATOM     26  N   UNL     1      33.594 -14.578 -27.014  0.00  0.00    -0.018 NA
ATOM     27  C   UNL     1      33.865 -15.492 -25.091  0.00  0.00    +0.092 C 
ATOM     28  C   UNL     1      33.543 -12.272 -26.247  0.00  0.00    +0.163 C 
ENDBRANCH  22  27
ENDBRANCH   5  18
TORSDOF 5
ENDMDL
MODEL 8
REMARK VINA RESULT:     -10.3      6.219      7.296
REMARK  Name = 11234049
REMARK  5 active torsions:
REMARK  status: ('A' for Active; 'I' for Inactive)
REMARK    1  A    between atoms: C_2  and  N_10
REMARK    2  A    between atoms: C_5  and  C_18
REMARK    3  A    between atoms: C_11  and  C_14
REMARK    4  A    between atoms: C_14  and  O_15
REMARK    5  A    between atoms: C_22  and  C_27
REMARK                            x       y       z     vdW  Elec       q    Type
REMARK                         _______ _______ _______ _____ _____    ______ ____
ROOT
ATOM      1  F   UNL     1      37.571 -20.385 -18.349  0.00  0.00    -0.204 F 
ATOM      2  C   UNL     1      35.826 -23.008 -16.528  0.00  0.00    +0.059 C 
ATOM      3  C   UNL     1      36.800 -22.071 -16.888  0.00  0.00    +0.045 C 
ATOM      4  C   UNL     1      34.675 -23.142 -17.311  0.00  0.00    +0.015 C 
ATOM      5  C   UNL     1      35.475 -21.415 -18.799  0.00  0.00    +0.029 C 
ATOM      6  C   UNL     1      36.625 -21.276 -18.020  0.00  0.00    +0.141 C 
ATOM      7  C   UNL     1      34.500 -22.346 -18.443  0.00  0.00    +0.004 C 
ENDROOT
BRANCH   2  10
ATOM      8  O   UNL     1      35.620 -24.993 -13.482  0.00  0.00    -0.434 OA
ATOM      9  O   UNL     1      33.839 -23.958 -14.430  0.00  0.00    -0.226 OA
ATOM     10  N   UNL     1      36.005 -23.820 -15.372  0.00  0.00    -0.221 N 
ATOM     11  C   UNL     1      36.963 -25.304 -13.877  0.00  0.00    +0.220 C 
ATOM     12  C   UNL     1      37.298 -24.262 -14.922  0.00  0.00    +0.148 C 
ATOM     13  C   UNL     1      35.032 -24.220 -14.459  0.00  0.00    +0.409 C 
BRANCH  11  14
ATOM     14  C   UNL     1      37.002 -26.728 -14.416  0.00  0.00    +0.183 C 
BRANCH  14  15
ATOM     15  O   UNL     1      37.255 -26.679 -15.809  0.00  0.00    -0.378 OA
ATOM     16  H   UNL     1      37.050 -25.792 -16.144  0.00  0.00    +0.211 HD
ENDBRANCH  14  15
ENDBRANCH  11  14
ENDBRANCH   2  10
BRANCH   5  18
ATOM     17  N   UNL     1      33.800 -19.711 -21.661  0.00  0.00    -0.234 NA
ATOM     18  C   UNL     1      35.288 -20.592 -19.975  0.00  0.00    +0.021 C 
ATOM     19  C   UNL     1      36.355 -19.909 -20.544  0.00  0.00    +0.004 C 
ATOM     20  C   UNL     1      34.042 -20.464 -20.563  0.00  0.00    +0.100 C 
ATOM     21  C   UNL     1      36.146 -19.126 -21.674  0.00  0.00    +0.029 C 
ATOM     22  C   UNL     1      34.861 -19.061 -22.189  0.00  0.00    +0.146 C 
BRANCH  22  27
ATOM     23  N   UNL     1      34.367 -16.954 -23.314  0.00  0.00    -0.105 NA
ATOM     24  N   UNL     1      34.172 -16.728 -24.620  0.00  0.00    -0.113 N 
ATOM     25  N   UNL     1      34.530 -18.807 -24.605  0.00  0.00    -0.085 NA
ATOM     26  N   UNL     1      34.260 -17.798 -25.423  0.00  0.00    -0.018 NA
ATOM     27  C   UNL     1      34.587 -18.270 -23.354  0.00  0.00    +0.092 C 
ATOM     28  C   UNL     1      33.885 -15.414 -25.132  0.00  0.00    +0.163 C 
ENDBRANCH  22  27
ENDBRANCH   5  18
TORSDOF 5
ENDMDL
MODEL 9
REMARK VINA RESULT:     -10.2     12.819     14.198
REMARK  Name = 11234049
REMARK  5 active torsions:
REMARK  status: ('A' for Active; 'I' for Inactive)
REMARK    1  A    between atoms: C_2  and  N_10
REMARK    2  A    between atoms: C_5  and  C_18
REMARK    3  A    between atoms: C_11  and  C_14
REMARK    4  A    between atoms: C_14  and  O_15
REMARK    5  A    between atoms: C_22  and  C_27
REMARK                            x       y       z     vdW  Elec       q    Type
REMARK                         _______ _______ _______ _____ _____    ______ ____
ROOT
ATOM      1  F   UNL     1      32.318 -13.296 -20.494  0.00  0.00    -0.204 F 
ATOM      2  C   UNL     1      33.936 -15.796 -22.586  0.00  0.00    +0.059 C 
ATOM      3  C   UNL     1      33.322 -15.188 -21.486  0.00  0.00    +0.045 C 
ATOM      4  C   UNL     1      34.126 -15.062 -23.761  0.00  0.00    +0.015 C 
ATOM      5  C   UNL     1      33.097 -13.133 -22.736  0.00  0.00    +0.029 C 
ATOM      6  C   UNL     1      32.904 -13.861 -21.560  0.00  0.00    +0.141 C 
ATOM      7  C   UNL     1      33.707 -13.735 -23.836  0.00  0.00    +0.004 C 
ENDROOT
BRANCH   2  10
ATOM      8  O   UNL     1      35.144 -19.199 -23.054  0.00  0.00    -0.434 OA
ATOM      9  O   UNL     1      34.988 -17.680 -24.730  0.00  0.00    -0.226 OA
ATOM     10  N   UNL     1      34.364 -17.153 -22.510  0.00  0.00    -0.221 N 
ATOM     11  C   UNL     1      35.077 -19.166 -21.622  0.00  0.00    +0.220 C 
ATOM     12  C   UNL     1      34.245 -17.941 -21.313  0.00  0.00    +0.148 C 
ATOM     13  C   UNL     1      34.845 -17.948 -23.546  0.00  0.00    +0.409 C 
BRANCH  11  14
ATOM     14  C   UNL     1      36.492 -19.087 -21.065  0.00  0.00    +0.183 C 
BRANCH  14  15
ATOM     15  O   UNL     1      36.559 -19.869 -19.885  0.00  0.00    -0.378 OA
ATOM     16  H   UNL     1      36.706 -19.290 -19.122  0.00  0.00    +0.211 HD
ENDBRANCH  14  15
ENDBRANCH  11  14
ENDBRANCH   2  10
BRANCH   5  18
ATOM     17  N   UNL     1      33.000  -9.538 -23.717  0.00  0.00    -0.234 NA
ATOM     18  C   UNL     1      32.664 -11.754 -22.818  0.00  0.00    +0.021 C 
ATOM     19  C   UNL     1      31.549 -11.313 -22.119  0.00  0.00    +0.004 C 
ATOM     20  C   UNL     1      33.351 -10.838 -23.596  0.00  0.00    +0.100 C 
ATOM     21  C   UNL     1      31.157  -9.983 -22.217  0.00  0.00    +0.029 C 
ATOM     22  C   UNL     1      31.910  -9.143 -23.022  0.00  0.00    +0.146 C 
BRANCH  22  27
ATOM     23  N   UNL     1      31.488  -7.132 -24.335  0.00  0.00    -0.105 NA
ATOM     24  N   UNL     1      31.125  -5.914 -23.909  0.00  0.00    -0.113 N 
ATOM     25  N   UNL     1      31.250  -6.975 -22.089  0.00  0.00    -0.085 NA
ATOM     26  N   UNL     1      30.973  -5.775 -22.584  0.00  0.00    -0.018 NA
ATOM     27  C   UNL     1      31.553  -7.760 -23.160  0.00  0.00    +0.092 C 
ATOM     28  C   UNL     1      30.914  -4.819 -24.819  0.00  0.00    +0.163 C 
ENDBRANCH  22  27
ENDBRANCH   5  18
TORSDOF 5
ENDMDL
