MODEL 1
REMARK VINA RESULT:      -7.9      0.000      0.000
REMARK  Name = 65894
REMARK  5 active torsions:
REMARK  status: ('A' for Active; 'I' for Inactive)
REMARK    1  A    between atoms: C_5  and  C_18
REMARK    2  A    between atoms: C_7  and  C_10
REMARK    3  A    between atoms: C_8  and  C_15
REMARK    4  A    between atoms: C_15  and  O_16
REMARK    5  A    between atoms: C_18  and  O_20
REMARK                            x       y       z     vdW  Elec       q    Type
REMARK                         _______ _______ _______ _____ _____    ______ ____
ROOT
ATOM      1  S   UNL     1      33.973 -13.510 -22.833  0.00  0.00    -0.094 S 
ATOM      2  O   UNL     1      34.939 -16.713 -25.838  0.00  0.00    -0.274 OA
ATOM      3  N   UNL     1      33.437 -15.321 -24.659  0.00  0.00    -0.244 N 
ATOM      4  C   UNL     1      33.567 -15.258 -23.195  0.00  0.00    +0.143 C 
ATOM      5  C   UNL     1      34.745 -16.239 -23.330  0.00  0.00    +0.133 C 
ATOM      6  C   UNL     1      34.436 -16.233 -24.846  0.00  0.00    +0.235 C 
ATOM      7  C   UNL     1      33.568 -13.031 -24.478  0.00  0.00    +0.051 C 
ATOM      8  C   UNL     1      33.359 -14.096 -25.271  0.00  0.00    +0.135 C 
ENDROOT
BRANCH   7  10
ATOM      9  O   UNL     1      34.806 -11.233 -25.467  0.00  0.00    -0.351 OA
ATOM     10  C   UNL     1      33.569 -11.583 -24.822  0.00  0.00    +0.145 C 
ATOM     11  C   UNL     1      33.445 -10.672 -23.609  0.00  0.00    +0.037 C 
ATOM     12  C   UNL     1      34.159  -9.430 -24.082  0.00  0.00    +0.035 C 
ATOM     13  C   UNL     1      35.298 -10.016 -24.886  0.00  0.00    +0.143 C 
ENDBRANCH   7  10
BRANCH   8  15
ATOM     14  O   UNL     1      33.971 -13.778 -27.545  0.00  0.00    -0.244 OA
ATOM     15  C   UNL     1      33.120 -14.040 -26.711  0.00  0.00    +0.352 C 
BRANCH  15  16
ATOM     16  O   UNL     1      31.824 -14.319 -26.971  0.00  0.00    -0.476 OA
ATOM     17  H   UNL     1      31.213 -14.404 -26.266  0.00  0.00    +0.295 HD
ENDBRANCH  15  16
ENDBRANCH   8  15
BRANCH   5  18
ATOM     18  C   UNL     1      34.681 -17.607 -22.685  0.00  0.00    +0.122 C 
ATOM     19  C   UNL     1      36.059 -18.254 -22.632  0.00  0.00    +0.032 C 
BRANCH  18  20
ATOM     20  O   UNL     1      34.172 -17.480 -21.358  0.00  0.00    -0.384 OA
ATOM     21  H   UNL     1      33.529 -18.187 -21.190  0.00  0.00    +0.210 HD
ENDBRANCH  18  20
ENDBRANCH   5  18
TORSDOF 5
ENDMDL
MODEL 2
REMARK VINA RESULT:      -7.6     14.356     16.036
REMARK  Name = 65894
REMARK  5 active torsions:
REMARK  status: ('A' for Active; 'I' for Inactive)
REMARK    1  A    between atoms: C_5  and  C_18
REMARK    2  A    between atoms: C_7  and  C_10
REMARK    3  A    between atoms: C_8  and  C_15
REMARK    4  A    between atoms: C_15  and  O_16
REMARK    5  A    between atoms: C_18  and  O_20
REMARK                            x       y       z     vdW  Elec       q    Type
REMARK                         _______ _______ _______ _____ _____    ______ ____
ROOT
ATOM      1  S   UNL     1      36.267 -23.987 -15.193  0.00  0.00    -0.094 S 
ATOM      2  O   UNL     1      38.537 -26.234 -12.028  0.00  0.00    -0.274 OA
ATOM      3  N   UNL     1      37.716 -24.252 -13.018  0.00  0.00    -0.244 N 
ATOM      4  C   UNL     1      37.943 -24.062 -14.459  0.00  0.00    +0.143 C 
ATOM      5  C   UNL     1      38.647 -25.430 -14.456  0.00  0.00    +0.133 C 
ATOM      6  C   UNL     1      38.375 -25.445 -12.932  0.00  0.00    +0.235 C 
ATOM      7  C   UNL     1      35.531 -23.832 -13.602  0.00  0.00    +0.051 C 
ATOM      8  C   UNL     1      36.423 -24.031 -12.617  0.00  0.00    +0.135 C 
ENDROOT
BRANCH   7  10
ATOM      9  O   UNL     1      33.398 -24.755 -13.018  0.00  0.00    -0.351 OA
ATOM     10  C   UNL     1      34.066 -23.581 -13.513  0.00  0.00    +0.145 C 
ATOM     11  C   UNL     1      33.424 -23.256 -14.855  0.00  0.00    +0.037 C 
ATOM     12  C   UNL     1      32.013 -23.748 -14.649  0.00  0.00    +0.035 C 
ATOM     13  C   UNL     1      32.240 -24.999 -13.830  0.00  0.00    +0.143 C 
ENDBRANCH   7  10
BRANCH   8  15
ATOM     14  O   UNL     1      36.515 -23.293 -10.360  0.00  0.00    -0.244 OA
ATOM     15  C   UNL     1      36.107 -24.086 -11.192  0.00  0.00    +0.352 C 
BRANCH  15  16
ATOM     16  O   UNL     1      35.300 -25.141 -10.944  0.00  0.00    -0.476 OA
ATOM     17  H   UNL     1      35.184 -25.805 -11.595  0.00  0.00    +0.295 HD
ENDBRANCH  15  16
ENDBRANCH   8  15
BRANCH   5  18
ATOM     18  C   UNL     1      40.109 -25.540 -14.830  0.00  0.00    +0.122 C 
ATOM     19  C   UNL     1      40.798 -26.643 -14.036  0.00  0.00    +0.032 C 
BRANCH  18  20
ATOM     20  O   UNL     1      40.219 -25.828 -16.223  0.00  0.00    -0.384 OA
ATOM     21  H   UNL     1      40.267 -26.788 -16.352  0.00  0.00    +0.210 HD
ENDBRANCH  18  20
ENDBRANCH   5  18
TORSDOF 5
ENDMDL
MODEL 3
REMARK VINA RESULT:      -7.6      2.269      6.462
REMARK  Name = 65894
REMARK  5 active torsions:
REMARK  status: ('A' for Active; 'I' for Inactive)
REMARK    1  A    between atoms: C_5  and  C_18
REMARK    2  A    between atoms: C_7  and  C_10
REMARK    3  A    between atoms: C_8  and  C_15
REMARK    4  A    between atoms: C_15  and  O_16
REMARK    5  A    between atoms: C_18  and  O_20
REMARK                            x       y       z     vdW  Elec       q    Type
REMARK                         _______ _______ _______ _____ _____    ______ ____
ROOT
ATOM      1  S   UNL     1      33.508 -15.645 -21.670  0.00  0.00    -0.094 S 
ATOM      2  O   UNL     1      34.179 -16.771 -25.972  0.00  0.00    -0.274 OA
ATOM      3  N   UNL     1      34.933 -16.209 -23.804  0.00  0.00    -0.244 N 
ATOM      4  C   UNL     1      34.355 -15.016 -23.167  0.00  0.00    +0.143 C 
ATOM      5  C   UNL     1      33.502 -14.839 -24.434  0.00  0.00    +0.133 C 
ATOM      6  C   UNL     1      34.247 -16.082 -24.978  0.00  0.00    +0.235 C 
ATOM      7  C   UNL     1      34.285 -17.216 -21.840  0.00  0.00    +0.051 C 
ATOM      8  C   UNL     1      34.939 -17.326 -23.008  0.00  0.00    +0.135 C 
ENDROOT
BRANCH   7  10
ATOM      9  O   UNL     1      35.329 -18.917 -20.513  0.00  0.00    -0.351 OA
ATOM     10  C   UNL     1      34.091 -18.229 -20.766  0.00  0.00    +0.145 C 
ATOM     11  C   UNL     1      33.070 -19.301 -21.121  0.00  0.00    +0.037 C 
ATOM     12  C   UNL     1      33.562 -20.476 -20.314  0.00  0.00    +0.035 C 
ATOM     13  C   UNL     1      35.062 -20.325 -20.434  0.00  0.00    +0.143 C 
ENDBRANCH   7  10
BRANCH   8  15
ATOM     14  O   UNL     1      35.038 -19.390 -24.183  0.00  0.00    -0.244 OA
ATOM     15  C   UNL     1      35.586 -18.540 -23.500  0.00  0.00    +0.352 C 
BRANCH  15  16
ATOM     16  O   UNL     1      36.870 -18.574 -23.084  0.00  0.00    -0.476 OA
ATOM     17  H   UNL     1      37.073 -18.841 -22.209  0.00  0.00    +0.295 HD
ENDBRANCH  15  16
ENDBRANCH   8  15
BRANCH   5  18
ATOM     18  C   UNL     1      33.648 -13.600 -25.290  0.00  0.00    +0.122 C 
ATOM     19  C   UNL     1      32.756 -13.675 -26.522  0.00  0.00    +0.032 C 
BRANCH  18  20
ATOM     20  O   UNL     1      33.290 -12.452 -24.522  0.00  0.00    -0.384 OA
ATOM     21  H   UNL     1      32.348 -12.497 -24.292  0.00  0.00    +0.210 HD
ENDBRANCH  18  20
ENDBRANCH   5  18
TORSDOF 5
ENDMDL
MODEL 4
REMARK VINA RESULT:      -7.2      8.384     11.530
REMARK  Name = 65894
REMARK  5 active torsions:
REMARK  status: ('A' for Active; 'I' for Inactive)
REMARK    1  A    between atoms: C_5  and  C_18
REMARK    2  A    between atoms: C_7  and  C_10
REMARK    3  A    between atoms: C_8  and  C_15
REMARK    4  A    between atoms: C_15  and  O_16
REMARK    5  A    between atoms: C_18  and  O_20
REMARK                            x       y       z     vdW  Elec       q    Type
REMARK                         _______ _______ _______ _____ _____    ______ ____
ROOT
ATOM      1  S   UNL     1      37.076 -21.655 -17.271  0.00  0.00    -0.094 S 
ATOM      2  O   UNL     1      34.837 -25.256 -15.775  0.00  0.00    -0.274 OA
ATOM      3  N   UNL     1      35.052 -22.942 -16.201  0.00  0.00    -0.244 N 
ATOM      4  C   UNL     1      36.279 -22.273 -15.743  0.00  0.00    +0.143 C 
ATOM      5  C   UNL     1      36.742 -23.641 -15.213  0.00  0.00    +0.133 C 
ATOM      6  C   UNL     1      35.375 -24.173 -15.707  0.00  0.00    +0.235 C 
ATOM      7  C   UNL     1      35.623 -21.980 -18.211  0.00  0.00    +0.051 C 
ATOM      8  C   UNL     1      34.716 -22.674 -17.503  0.00  0.00    +0.135 C 
ENDROOT
BRANCH   7  10
ATOM      9  O   UNL     1      36.722 -20.719 -19.927  0.00  0.00    -0.351 OA
ATOM     10  C   UNL     1      35.578 -21.541 -19.633  0.00  0.00    +0.145 C 
ATOM     11  C   UNL     1      34.351 -20.706 -19.971  0.00  0.00    +0.037 C 
ATOM     12  C   UNL     1      34.863 -19.850 -21.102  0.00  0.00    +0.035 C 
ATOM     13  C   UNL     1      36.279 -19.564 -20.656  0.00  0.00    +0.143 C 
ENDBRANCH   7  10
BRANCH   8  15
ATOM     14  O   UNL     1      32.356 -22.743 -17.777  0.00  0.00    -0.244 OA
ATOM     15  C   UNL     1      33.459 -23.199 -18.030  0.00  0.00    +0.352 C 
BRANCH  15  16
ATOM     16  O   UNL     1      33.707 -24.257 -18.832  0.00  0.00    -0.476 OA
ATOM     17  H   UNL     1      34.153 -25.009 -18.493  0.00  0.00    +0.295 HD
ENDBRANCH  15  16
ENDBRANCH   8  15
BRANCH   5  18
ATOM     18  C   UNL     1      36.995 -23.845 -13.736  0.00  0.00    +0.122 C 
ATOM     19  C   UNL     1      37.718 -25.161 -13.479  0.00  0.00    +0.032 C 
BRANCH  18  20
ATOM     20  O   UNL     1      37.789 -22.769 -13.239  0.00  0.00    -0.384 OA
ATOM     21  H   UNL     1      38.592 -23.124 -12.827  0.00  0.00    +0.210 HD
ENDBRANCH  18  20
ENDBRANCH   5  18
TORSDOF 5
ENDMDL
MODEL 5
REMARK VINA RESULT:      -7.2      5.429      9.973
REMARK  Name = 65894
REMARK  5 active torsions:
REMARK  status: ('A' for Active; 'I' for Inactive)
REMARK    1  A    between atoms: C_5  and  C_18
REMARK    2  A    between atoms: C_7  and  C_10
REMARK    3  A    between atoms: C_8  and  C_15
REMARK    4  A    between atoms: C_15  and  O_16
REMARK    5  A    between atoms: C_18  and  O_20
REMARK                            x       y       z     vdW  Elec       q    Type
REMARK                         _______ _______ _______ _____ _____    ______ ____
ROOT
ATOM      1  S   UNL     1      36.950 -20.184 -19.687  0.00  0.00    -0.094 S 
ATOM      2  O   UNL     1      32.562 -19.540 -20.432  0.00  0.00    -0.274 OA
ATOM      3  N   UNL     1      34.590 -20.720 -20.709  0.00  0.00    -0.244 N 
ATOM      4  C   UNL     1      35.786 -19.949 -21.081  0.00  0.00    +0.143 C 
ATOM      5  C   UNL     1      34.898 -18.693 -21.050  0.00  0.00    +0.133 C 
ATOM      6  C   UNL     1      33.733 -19.657 -20.716  0.00  0.00    +0.235 C 
ATOM      7  C   UNL     1      35.959 -21.479 -19.023  0.00  0.00    +0.051 C 
ATOM      8  C   UNL     1      34.777 -21.579 -19.657  0.00  0.00    +0.135 C 
ENDROOT
BRANCH   7  10
ATOM      9  O   UNL     1      35.369 -22.814 -17.122  0.00  0.00    -0.351 OA
ATOM     10  C   UNL     1      36.470 -22.242 -17.851  0.00  0.00    +0.145 C 
ATOM     11  C   UNL     1      37.241 -21.383 -16.859  0.00  0.00    +0.037 C 
ATOM     12  C   UNL     1      37.009 -22.122 -15.565  0.00  0.00    +0.035 C 
ATOM     13  C   UNL     1      35.574 -22.574 -15.722  0.00  0.00    +0.143 C 
ENDBRANCH   7  10
BRANCH   8  15
ATOM     14  O   UNL     1      32.671 -22.119 -18.699  0.00  0.00    -0.244 OA
ATOM     15  C   UNL     1      33.688 -22.472 -19.271  0.00  0.00    +0.352 C 
BRANCH  15  16
ATOM     16  O   UNL     1      33.982 -23.737 -19.643  0.00  0.00    -0.476 OA
ATOM     17  H   UNL     1      33.461 -24.168 -20.292  0.00  0.00    +0.295 HD
ENDBRANCH  15  16
ENDBRANCH   8  15
BRANCH   5  18
ATOM     18  C   UNL     1      34.688 -17.870 -22.302  0.00  0.00    +0.122 C 
ATOM     19  C   UNL     1      34.269 -16.446 -21.961  0.00  0.00    +0.032 C 
BRANCH  18  20
ATOM     20  O   UNL     1      35.902 -17.834 -23.052  0.00  0.00    -0.384 OA
ATOM     21  H   UNL     1      36.543 -18.447 -22.658  0.00  0.00    +0.210 HD
ENDBRANCH  18  20
ENDBRANCH   5  18
TORSDOF 5
ENDMDL
MODEL 6
REMARK VINA RESULT:      -7.1      2.098      6.205
REMARK  Name = 65894
REMARK  5 active torsions:
REMARK  status: ('A' for Active; 'I' for Inactive)
REMARK    1  A    between atoms: C_5  and  C_18
REMARK    2  A    between atoms: C_7  and  C_10
REMARK    3  A    between atoms: C_8  and  C_15
REMARK    4  A    between atoms: C_15  and  O_16
REMARK    5  A    between atoms: C_18  and  O_20
REMARK                            x       y       z     vdW  Elec       q    Type
REMARK                         _______ _______ _______ _____ _____    ______ ____
ROOT
ATOM      1  S   UNL     1      34.452 -16.281 -21.176  0.00  0.00    -0.094 S 
ATOM      2  O   UNL     1      32.669 -14.934 -25.078  0.00  0.00    -0.274 OA
ATOM      3  N   UNL     1      34.492 -15.464 -23.672  0.00  0.00    -0.244 N 
ATOM      4  C   UNL     1      34.520 -14.861 -22.331  0.00  0.00    +0.143 C 
ATOM      5  C   UNL     1      33.186 -14.182 -22.686  0.00  0.00    +0.133 C 
ATOM      6  C   UNL     1      33.340 -14.850 -24.074  0.00  0.00    +0.235 C 
ATOM      7  C   UNL     1      34.768 -17.415 -22.486  0.00  0.00    +0.051 C 
ATOM      8  C   UNL     1      34.716 -16.817 -23.688  0.00  0.00    +0.135 C 
ENDROOT
BRANCH   7  10
ATOM      9  O   UNL     1      33.740 -19.437 -21.713  0.00  0.00    -0.351 OA
ATOM     10  C   UNL     1      34.978 -18.851 -22.153  0.00  0.00    +0.145 C 
ATOM     11  C   UNL     1      35.981 -19.072 -21.030  0.00  0.00    +0.037 C 
ATOM     12  C   UNL     1      35.497 -20.372 -20.436  0.00  0.00    +0.035 C 
ATOM     13  C   UNL     1      33.996 -20.215 -20.534  0.00  0.00    +0.143 C 
ENDBRANCH   7  10
BRANCH   8  15
ATOM     14  O   UNL     1      34.509 -18.666 -25.166  0.00  0.00    -0.244 OA
ATOM     15  C   UNL     1      34.817 -17.501 -24.974  0.00  0.00    +0.352 C 
BRANCH  15  16
ATOM     16  O   UNL     1      35.301 -16.652 -25.907  0.00  0.00    -0.476 OA
ATOM     17  H   UNL     1      35.477 -16.959 -26.774  0.00  0.00    +0.295 HD
ENDBRANCH  15  16
ENDBRANCH   8  15
BRANCH   5  18
ATOM     18  C   UNL     1      33.082 -12.673 -22.728  0.00  0.00    +0.122 C 
ATOM     19  C   UNL     1      33.642 -12.119 -24.032  0.00  0.00    +0.032 C 
BRANCH  18  20
ATOM     20  O   UNL     1      31.713 -12.291 -22.607  0.00  0.00    -0.384 OA
ATOM     21  H   UNL     1      31.202 -12.685 -23.332  0.00  0.00    +0.210 HD
ENDBRANCH  18  20
ENDBRANCH   5  18
TORSDOF 5
ENDMDL
MODEL 7
REMARK VINA RESULT:      -7.0      2.232      6.454
REMARK  Name = 65894
REMARK  5 active torsions:
REMARK  status: ('A' for Active; 'I' for Inactive)
REMARK    1  A    between atoms: C_5  and  C_18
REMARK    2  A    between atoms: C_7  and  C_10
REMARK    3  A    between atoms: C_8  and  C_15
REMARK    4  A    between atoms: C_15  and  O_16
REMARK    5  A    between atoms: C_18  and  O_20
REMARK                            x       y       z     vdW  Elec       q    Type
REMARK                         _______ _______ _______ _____ _____    ______ ____
ROOT
ATOM      1  S   UNL     1      34.943 -16.076 -23.511  0.00  0.00    -0.094 S 
ATOM      2  O   UNL     1      32.580 -12.594 -21.926  0.00  0.00    -0.274 OA
ATOM      3  N   UNL     1      32.772 -14.782 -22.798  0.00  0.00    -0.244 N 
ATOM      4  C   UNL     1      33.577 -14.966 -24.014  0.00  0.00    +0.143 C 
ATOM      5  C   UNL     1      33.852 -13.452 -23.975  0.00  0.00    +0.133 C 
ATOM      6  C   UNL     1      32.929 -13.427 -22.733  0.00  0.00    +0.235 C 
ATOM      7  C   UNL     1      34.137 -16.449 -21.991  0.00  0.00    +0.051 C 
ATOM      8  C   UNL     1      33.066 -15.662 -21.788  0.00  0.00    +0.135 C 
ENDROOT
BRANCH   7  10
ATOM      9  O   UNL     1      36.082 -17.760 -21.505  0.00  0.00    -0.351 OA
ATOM     10  C   UNL     1      34.728 -17.487 -21.103  0.00  0.00    +0.145 C 
ATOM     11  C   UNL     1      33.990 -18.817 -21.151  0.00  0.00    +0.037 C 
ATOM     12  C   UNL     1      35.090 -19.793 -20.816  0.00  0.00    +0.035 C 
ATOM     13  C   UNL     1      36.272 -19.183 -21.535  0.00  0.00    +0.143 C 
ENDBRANCH   7  10
BRANCH   8  15
ATOM     14  O   UNL     1      32.411 -14.860 -19.649  0.00  0.00    -0.244 OA
ATOM     15  C   UNL     1      32.255 -15.640 -20.574  0.00  0.00    +0.352 C 
BRANCH  15  16
ATOM     16  O   UNL     1      31.316 -16.610 -20.634  0.00  0.00    -0.476 OA
ATOM     17  H   UNL     1      31.556 -17.479 -20.890  0.00  0.00    +0.295 HD
ENDBRANCH  15  16
ENDBRANCH   8  15
BRANCH   5  18
ATOM     18  C   UNL     1      33.397 -12.561 -25.110  0.00  0.00    +0.122 C 
ATOM     19  C   UNL     1      34.281 -11.326 -25.228  0.00  0.00    +0.032 C 
BRANCH  18  20
ATOM     20  O   UNL     1      33.448 -13.292 -26.334  0.00  0.00    -0.384 OA
ATOM     21  H   UNL     1      33.358 -14.240 -26.149  0.00  0.00    +0.210 HD
ENDBRANCH  18  20
ENDBRANCH   5  18
TORSDOF 5
ENDMDL
MODEL 8
REMARK VINA RESULT:      -6.9     11.475     13.378
REMARK  Name = 65894
REMARK  5 active torsions:
REMARK  status: ('A' for Active; 'I' for Inactive)
REMARK    1  A    between atoms: C_5  and  C_18
REMARK    2  A    between atoms: C_7  and  C_10
REMARK    3  A    between atoms: C_8  and  C_15
REMARK    4  A    between atoms: C_15  and  O_16
REMARK    5  A    between atoms: C_18  and  O_20
REMARK                            x       y       z     vdW  Elec       q    Type
REMARK                         _______ _______ _______ _____ _____    ______ ____
ROOT
ATOM      1  S   UNL     1      32.290 -23.957 -14.241  0.00  0.00    -0.094 S 
ATOM      2  O   UNL     1      35.958 -22.269 -16.221  0.00  0.00    -0.274 OA
ATOM      3  N   UNL     1      34.258 -23.892 -15.981  0.00  0.00    -0.244 N 
ATOM      4  C   UNL     1      34.014 -24.434 -14.635  0.00  0.00    +0.143 C 
ATOM      5  C   UNL     1      35.132 -23.502 -14.135  0.00  0.00    +0.133 C 
ATOM      6  C   UNL     1      35.295 -23.082 -15.616  0.00  0.00    +0.235 C 
ATOM      7  C   UNL     1      31.995 -23.485 -15.912  0.00  0.00    +0.051 C 
ATOM      8  C   UNL     1      33.126 -23.483 -16.637  0.00  0.00    +0.135 C 
ENDROOT
BRANCH   7  10
ATOM      9  O   UNL     1      30.124 -22.068 -15.427  0.00  0.00    -0.351 OA
ATOM     10  C   UNL     1      30.615 -23.092 -16.310  0.00  0.00    +0.145 C 
ATOM     11  C   UNL     1      29.615 -24.236 -16.239  0.00  0.00    +0.037 C 
ATOM     12  C   UNL     1      28.324 -23.502 -15.971  0.00  0.00    +0.035 C 
ATOM     13  C   UNL     1      28.784 -22.403 -15.039  0.00  0.00    +0.143 C 
ENDBRANCH   7  10
BRANCH   8  15
ATOM     14  O   UNL     1      32.840 -21.949 -18.430  0.00  0.00    -0.244 OA
ATOM     15  C   UNL     1      33.238 -23.027 -18.021  0.00  0.00    +0.352 C 
BRANCH  15  16
ATOM     16  O   UNL     1      33.843 -23.978 -18.767  0.00  0.00    -0.476 OA
ATOM     17  H   UNL     1      34.777 -24.050 -18.766  0.00  0.00    +0.295 HD
ENDBRANCH  15  16
ENDBRANCH   8  15
BRANCH   5  18
ATOM     18  C   UNL     1      36.383 -24.075 -13.507  0.00  0.00    +0.122 C 
ATOM     19  C   UNL     1      36.883 -23.190 -12.372  0.00  0.00    +0.032 C 
BRANCH  18  20
ATOM     20  O   UNL     1      36.102 -25.377 -12.997  0.00  0.00    -0.384 OA
ATOM     21  H   UNL     1      35.147 -25.469 -12.853  0.00  0.00    +0.210 HD
ENDBRANCH  18  20
ENDBRANCH   5  18
TORSDOF 5
ENDMDL
MODEL 9
REMARK VINA RESULT:      -6.9      3.683      7.143
REMARK  Name = 65894
REMARK  5 active torsions:
REMARK  status: ('A' for Active; 'I' for Inactive)
REMARK    1  A    between atoms: C_5  and  C_18
REMARK    2  A    between atoms: C_7  and  C_10
REMARK    3  A    between atoms: C_8  and  C_15
REMARK    4  A    between atoms: C_15  and  O_16
REMARK    5  A    between atoms: C_18  and  O_20
REMARK                            x       y       z     vdW  Elec       q    Type
REMARK                         _______ _______ _______ _____ _____    ______ ____
ROOT
ATOM      1  S   UNL     1      33.516 -11.179 -24.192  0.00  0.00    -0.094 S 
ATOM      2  O   UNL     1      32.694  -8.543 -20.642  0.00  0.00    -0.274 OA
ATOM      3  N   UNL     1      32.019  -9.836 -22.501  0.00  0.00    -0.244 N 
ATOM      4  C   UNL     1      32.695  -9.593 -23.785  0.00  0.00    +0.143 C 
ATOM      5  C   UNL     1      33.539  -8.531 -23.059  0.00  0.00    +0.133 C 
ATOM      6  C   UNL     1      32.694  -8.872 -21.808  0.00  0.00    +0.235 C 
ATOM      7  C   UNL     1      32.620 -12.015 -22.928  0.00  0.00    +0.051 C 
ATOM      8  C   UNL     1      31.941 -11.158 -22.146  0.00  0.00    +0.135 C 
ENDROOT
BRANCH   7  10
ATOM      9  O   UNL     1      33.662 -13.822 -21.749  0.00  0.00    -0.351 OA
ATOM     10  C   UNL     1      32.754 -13.494 -22.815  0.00  0.00    +0.145 C 
ATOM     11  C   UNL     1      33.312 -14.149 -24.070  0.00  0.00    +0.037 C 
ATOM     12  C   UNL     1      33.992 -15.371 -23.505  0.00  0.00    +0.035 C 
ATOM     13  C   UNL     1      34.569 -14.833 -22.215  0.00  0.00    +0.143 C 
ENDBRANCH   7  10
BRANCH   8  15
ATOM     14  O   UNL     1      31.706 -11.779 -19.864  0.00  0.00    -0.244 OA
ATOM     15  C   UNL     1      31.198 -11.524 -20.943  0.00  0.00    +0.352 C 
BRANCH  15  16
ATOM     16  O   UNL     1      29.873 -11.536 -21.211  0.00  0.00    -0.476 OA
ATOM     17  H   UNL     1      29.574 -11.486 -22.098  0.00  0.00    +0.295 HD
ENDBRANCH  15  16
ENDBRANCH   8  15
BRANCH   5  18
ATOM     18  C   UNL     1      33.474  -7.080 -23.481  0.00  0.00    +0.122 C 
ATOM     19  C   UNL     1      34.547  -6.759 -24.512  0.00  0.00    +0.032 C 
BRANCH  18  20
ATOM     20  O   UNL     1      32.190  -6.809 -24.041  0.00  0.00    -0.384 OA
ATOM     21  H   UNL     1      32.243  -6.020 -24.604  0.00  0.00    +0.210 HD
ENDBRANCH  18  20
ENDBRANCH   5  18
TORSDOF 5
ENDMDL
