MODEL 1
REMARK VINA RESULT:      -8.9      0.000      0.000
REMARK  Name = 2200
REMARK  5 active torsions:
REMARK  status: ('A' for Active; 'I' for Inactive)
REMARK    1  A    between atoms: N_1  and  C_2
REMARK    2  A    between atoms: N_1  and  C_8
REMARK    3  A    between atoms: N_1  and  C_15
REMARK    4  A    between atoms: C_8  and  C_11
REMARK    5  A    between atoms: C_15  and  C_16
REMARK                            x       y       z     vdW  Elec       q    Type
REMARK                         _______ _______ _______ _____ _____    ______ ____
ROOT
ATOM      1  N   UNL     1      33.979 -23.144 -16.537  0.00  0.00    -0.297 N 
ENDROOT
BRANCH   1   2
ATOM      2  C   UNL     1      32.734 -23.156 -15.886  0.00  0.00    +0.048 C 
ATOM      3  C   UNL     1      32.671 -23.167 -14.491  0.00  0.00    +0.015 C 
ATOM      4  C   UNL     1      31.552 -23.155 -16.632  0.00  0.00    +0.015 C 
ATOM      5  C   UNL     1      31.434 -23.177 -13.845  0.00  0.00    +0.001 C 
ATOM      6  C   UNL     1      30.316 -23.166 -15.986  0.00  0.00    +0.001 C 
ATOM      7  C   UNL     1      30.258 -23.177 -14.592  0.00  0.00    +0.000 C 
ENDBRANCH   1   2
BRANCH   1   8
ATOM      8  C   UNL     1      35.183 -22.755 -15.857  0.00  0.00    +0.153 C 
BRANCH   8  11
ATOM      9  N   UNL     1      37.299 -23.976 -15.385  0.00  0.00    -0.298 N 
ATOM     10  N   UNL     1      35.354 -25.157 -15.393  0.00  0.00    -0.230 NA
ATOM     11  C   UNL     1      35.947 -24.000 -15.546  0.00  0.00    +0.129 C 
ATOM     12  C   UNL     1      37.779 -25.284 -15.056  0.00  0.00    +0.084 C 
ATOM     13  C   UNL     1      36.478 -26.099 -15.098  0.00  0.00    +0.116 C 
ATOM     14  H   UNL     1      37.865 -23.175 -15.480  0.00  0.00    +0.153 HD
ENDBRANCH   8  11
ENDBRANCH   1   8
BRANCH   1  15
ATOM     15  C   UNL     1      34.058 -23.522 -17.953  0.00  0.00    +0.118 C 
BRANCH  15  16
ATOM     16  C   UNL     1      34.274 -22.328 -18.843  0.00  0.00    -0.002 C 
ATOM     17  C   UNL     1      33.177 -21.627 -19.325  0.00  0.00    -0.003 C 
ATOM     18  C   UNL     1      35.567 -21.943 -19.168  0.00  0.00    -0.003 C 
ATOM     19  C   UNL     1      33.377 -20.520 -20.149  0.00  0.00    -0.000 C 
ATOM     20  C   UNL     1      35.768 -20.836 -19.993  0.00  0.00    -0.000 C 
ATOM     21  C   UNL     1      34.672 -20.125 -20.484  0.00  0.00    -0.000 C 
ENDBRANCH  15  16
ENDBRANCH   1  15
TORSDOF 5
ENDMDL
MODEL 2
REMARK VINA RESULT:      -8.6      8.172     12.076
REMARK  Name = 2200
REMARK  5 active torsions:
REMARK  status: ('A' for Active; 'I' for Inactive)
REMARK    1  A    between atoms: N_1  and  C_2
REMARK    2  A    between atoms: N_1  and  C_8
REMARK    3  A    between atoms: N_1  and  C_15
REMARK    4  A    between atoms: C_8  and  C_11
REMARK    5  A    between atoms: C_15  and  C_16
REMARK                            x       y       z     vdW  Elec       q    Type
REMARK                         _______ _______ _______ _____ _____    ______ ____
ROOT
ATOM      1  N   UNL     1      33.463 -14.218 -22.918  0.00  0.00    -0.297 N 
ENDROOT
BRANCH   1   2
ATOM      2  C   UNL     1      33.483 -13.633 -24.196  0.00  0.00    +0.048 C 
ATOM      3  C   UNL     1      33.058 -14.363 -25.308  0.00  0.00    +0.015 C 
ATOM      4  C   UNL     1      33.925 -12.318 -24.360  0.00  0.00    +0.015 C 
ATOM      5  C   UNL     1      33.076 -13.783 -26.577  0.00  0.00    +0.001 C 
ATOM      6  C   UNL     1      33.943 -11.738 -25.628  0.00  0.00    +0.001 C 
ATOM      7  C   UNL     1      33.519 -12.471 -26.736  0.00  0.00    +0.000 C 
ENDBRANCH   1   2
BRANCH   1   8
ATOM      8  C   UNL     1      32.240 -14.399 -22.189  0.00  0.00    +0.153 C 
BRANCH   8  11
ATOM      9  N   UNL     1      31.283 -12.103 -22.120  0.00  0.00    -0.298 N 
ATOM     10  N   UNL     1      32.265 -12.917 -20.236  0.00  0.00    -0.230 NA
ATOM     11  C   UNL     1      31.938 -13.116 -21.487  0.00  0.00    +0.129 C 
ATOM     12  C   UNL     1      31.084 -11.008 -21.220  0.00  0.00    +0.084 C 
ATOM     13  C   UNL     1      31.780 -11.530 -19.954  0.00  0.00    +0.116 C 
ATOM     14  H   UNL     1      30.989 -12.121 -23.060  0.00  0.00    +0.153 HD
ENDBRANCH   8  11
ENDBRANCH   1   8
BRANCH   1  15
ATOM     15  C   UNL     1      34.725 -14.643 -22.299  0.00  0.00    +0.118 C 
BRANCH  15  16
ATOM     16  C   UNL     1      34.884 -16.139 -22.320  0.00  0.00    -0.002 C 
ATOM     17  C   UNL     1      34.829 -16.849 -21.129  0.00  0.00    -0.003 C 
ATOM     18  C   UNL     1      35.084 -16.789 -23.530  0.00  0.00    -0.003 C 
ATOM     19  C   UNL     1      34.977 -18.235 -21.147  0.00  0.00    -0.000 C 
ATOM     20  C   UNL     1      35.231 -18.176 -23.549  0.00  0.00    -0.000 C 
ATOM     21  C   UNL     1      35.178 -18.899 -22.357  0.00  0.00    -0.000 C 
ENDBRANCH  15  16
ENDBRANCH   1  15
TORSDOF 5
ENDMDL
MODEL 3
REMARK VINA RESULT:      -8.6      8.428     12.084
REMARK  Name = 2200
REMARK  5 active torsions:
REMARK  status: ('A' for Active; 'I' for Inactive)
REMARK    1  A    between atoms: N_1  and  C_2
REMARK    2  A    between atoms: N_1  and  C_8
REMARK    3  A    between atoms: N_1  and  C_15
REMARK    4  A    between atoms: C_8  and  C_11
REMARK    5  A    between atoms: C_15  and  C_16
REMARK                            x       y       z     vdW  Elec       q    Type
REMARK                         _______ _______ _______ _____ _____    ______ ____
ROOT
ATOM      1  N   UNL     1      33.370 -13.836 -22.926  0.00  0.00    -0.297 N 
ENDROOT
BRANCH   1   2
ATOM      2  C   UNL     1      33.389 -13.551 -24.302  0.00  0.00    +0.048 C 
ATOM      3  C   UNL     1      32.954 -14.508 -25.222  0.00  0.00    +0.015 C 
ATOM      4  C   UNL     1      33.842 -12.310 -24.756  0.00  0.00    +0.015 C 
ATOM      5  C   UNL     1      32.972 -14.226 -26.588  0.00  0.00    +0.001 C 
ATOM      6  C   UNL     1      33.859 -12.028 -26.123  0.00  0.00    +0.001 C 
ATOM      7  C   UNL     1      33.424 -12.987 -27.038  0.00  0.00    +0.000 C 
ENDBRANCH   1   2
BRANCH   1   8
ATOM      8  C   UNL     1      34.563 -14.196 -22.212  0.00  0.00    +0.153 C 
BRANCH   8  11
ATOM      9  N   UNL     1      35.354 -16.321 -23.239  0.00  0.00    -0.298 N 
ATOM     10  N   UNL     1      34.150 -16.439 -21.312  0.00  0.00    -0.230 NA
ATOM     11  C   UNL     1      34.674 -15.685 -22.244  0.00  0.00    +0.129 C 
ATOM     12  C   UNL     1      35.346 -17.735 -23.016  0.00  0.00    +0.084 C 
ATOM     13  C   UNL     1      34.500 -17.830 -21.737  0.00  0.00    +0.116 C 
ATOM     14  H   UNL     1      35.788 -15.873 -24.001  0.00  0.00    +0.153 HD
ENDBRANCH   8  11
ENDBRANCH   1   8
BRANCH   1  15
ATOM     15  C   UNL     1      32.099 -13.779 -22.195  0.00  0.00    +0.118 C 
BRANCH  15  16
ATOM     16  C   UNL     1      31.912 -12.460 -21.493  0.00  0.00    -0.002 C 
ATOM     17  C   UNL     1      31.894 -12.421 -20.106  0.00  0.00    -0.003 C 
ATOM     18  C   UNL     1      31.762 -11.303 -22.242  0.00  0.00    -0.003 C 
ATOM     19  C   UNL     1      31.722 -11.200 -19.455  0.00  0.00    -0.000 C 
ATOM     20  C   UNL     1      31.590 -10.080 -21.592  0.00  0.00    -0.000 C 
ATOM     21  C   UNL     1      31.569 -10.030 -20.198  0.00  0.00    -0.000 C 
ENDBRANCH  15  16
ENDBRANCH   1  15
TORSDOF 5
ENDMDL
MODEL 4
REMARK VINA RESULT:      -8.5      1.842      5.076
REMARK  Name = 2200
REMARK  5 active torsions:
REMARK  status: ('A' for Active; 'I' for Inactive)
REMARK    1  A    between atoms: N_1  and  C_2
REMARK    2  A    between atoms: N_1  and  C_8
REMARK    3  A    between atoms: N_1  and  C_15
REMARK    4  A    between atoms: C_8  and  C_11
REMARK    5  A    between atoms: C_15  and  C_16
REMARK                            x       y       z     vdW  Elec       q    Type
REMARK                         _______ _______ _______ _____ _____    ______ ____
ROOT
ATOM      1  N   UNL     1      34.358 -23.433 -15.575  0.00  0.00    -0.297 N 
ENDROOT
BRANCH   1   2
ATOM      2  C   UNL     1      34.723 -22.883 -16.815  0.00  0.00    +0.048 C 
ATOM      3  C   UNL     1      35.984 -22.306 -16.983  0.00  0.00    +0.015 C 
ATOM      4  C   UNL     1      33.828 -22.913 -17.888  0.00  0.00    +0.015 C 
ATOM      5  C   UNL     1      36.348 -21.761 -18.214  0.00  0.00    +0.001 C 
ATOM      6  C   UNL     1      34.192 -22.368 -19.120  0.00  0.00    +0.001 C 
ATOM      7  C   UNL     1      35.452 -21.792 -19.282  0.00  0.00    +0.000 C 
ENDBRANCH   1   2
BRANCH   1   8
ATOM      8  C   UNL     1      35.005 -24.601 -15.046  0.00  0.00    +0.153 C 
BRANCH   8  11
ATOM      9  N   UNL     1      35.073 -24.860 -12.572  0.00  0.00    -0.298 N 
ATOM     10  N   UNL     1      36.486 -23.360 -13.537  0.00  0.00    -0.230 NA
ATOM     11  C   UNL     1      35.538 -24.248 -13.696  0.00  0.00    +0.129 C 
ATOM     12  C   UNL     1      35.774 -24.374 -11.422  0.00  0.00    +0.084 C 
ATOM     13  C   UNL     1      36.704 -23.330 -12.057  0.00  0.00    +0.116 C 
ATOM     14  H   UNL     1      34.360 -25.539 -12.553  0.00  0.00    +0.153 HD
ENDBRANCH   8  11
ENDBRANCH   1   8
BRANCH   1  15
ATOM     15  C   UNL     1      33.276 -22.812 -14.801  0.00  0.00    +0.118 C 
BRANCH  15  16
ATOM     16  C   UNL     1      31.963 -23.519 -15.003  0.00  0.00    -0.002 C 
ATOM     17  C   UNL     1      31.687 -24.670 -14.278  0.00  0.00    -0.003 C 
ATOM     18  C   UNL     1      31.046 -23.011 -15.912  0.00  0.00    -0.003 C 
ATOM     19  C   UNL     1      30.471 -25.325 -14.464  0.00  0.00    -0.000 C 
ATOM     20  C   UNL     1      29.828 -23.666 -16.099  0.00  0.00    -0.000 C 
ATOM     21  C   UNL     1      29.541 -24.823 -15.376  0.00  0.00    -0.000 C 
ENDBRANCH  15  16
ENDBRANCH   1  15
TORSDOF 5
ENDMDL
MODEL 5
REMARK VINA RESULT:      -8.4      1.099      4.691
REMARK  Name = 2200
REMARK  5 active torsions:
REMARK  status: ('A' for Active; 'I' for Inactive)
REMARK    1  A    between atoms: N_1  and  C_2
REMARK    2  A    between atoms: N_1  and  C_8
REMARK    3  A    between atoms: N_1  and  C_15
REMARK    4  A    between atoms: C_8  and  C_11
REMARK    5  A    between atoms: C_15  and  C_16
REMARK                            x       y       z     vdW  Elec       q    Type
REMARK                         _______ _______ _______ _____ _____    ______ ____
ROOT
ATOM      1  N   UNL     1      35.148 -22.859 -16.453  0.00  0.00    -0.297 N 
ENDROOT
BRANCH   1   2
ATOM      2  C   UNL     1      35.318 -22.236 -17.701  0.00  0.00    +0.048 C 
ATOM      3  C   UNL     1      36.563 -21.714 -18.060  0.00  0.00    +0.015 C 
ATOM      4  C   UNL     1      34.244 -22.139 -18.590  0.00  0.00    +0.015 C 
ATOM      5  C   UNL     1      36.733 -21.097 -19.300  0.00  0.00    +0.001 C 
ATOM      6  C   UNL     1      34.415 -21.522 -19.830  0.00  0.00    +0.001 C 
ATOM      7  C   UNL     1      35.660 -21.001 -20.184  0.00  0.00    +0.000 C 
ENDBRANCH   1   2
BRANCH   1   8
ATOM      8  C   UNL     1      35.869 -22.428 -15.289  0.00  0.00    +0.153 C 
BRANCH   8  11
ATOM      9  N   UNL     1      37.710 -24.092 -15.462  0.00  0.00    -0.298 N 
ATOM     10  N   UNL     1      36.344 -24.184 -13.645  0.00  0.00    -0.230 NA
ATOM     11  C   UNL     1      36.642 -23.599 -14.777  0.00  0.00    +0.129 C 
ATOM     12  C   UNL     1      38.296 -25.182 -14.742  0.00  0.00    +0.084 C 
ATOM     13  C   UNL     1      37.356 -25.280 -13.531  0.00  0.00    +0.116 C 
ATOM     14  H   UNL     1      38.034 -23.749 -16.327  0.00  0.00    +0.153 HD
ENDBRANCH   8  11
ENDBRANCH   1   8
BRANCH   1  15
ATOM     15  C   UNL     1      34.220 -23.990 -16.331  0.00  0.00    +0.118 C 
BRANCH  15  16
ATOM     16  C   UNL     1      32.904 -23.575 -15.729  0.00  0.00    -0.002 C 
ATOM     17  C   UNL     1      31.840 -23.261 -16.563  0.00  0.00    -0.003 C 
ATOM     18  C   UNL     1      32.774 -23.513 -14.350  0.00  0.00    -0.003 C 
ATOM     19  C   UNL     1      30.621 -22.877 -16.006  0.00  0.00    -0.000 C 
ATOM     20  C   UNL     1      31.554 -23.129 -13.791  0.00  0.00    -0.000 C 
ATOM     21  C   UNL     1      30.478 -22.811 -14.620  0.00  0.00    -0.000 C 
ENDBRANCH  15  16
ENDBRANCH   1  15
TORSDOF 5
ENDMDL
MODEL 6
REMARK VINA RESULT:      -8.3     13.324     16.135
REMARK  Name = 2200
REMARK  5 active torsions:
REMARK  status: ('A' for Active; 'I' for Inactive)
REMARK    1  A    between atoms: N_1  and  C_2
REMARK    2  A    between atoms: N_1  and  C_8
REMARK    3  A    between atoms: N_1  and  C_15
REMARK    4  A    between atoms: C_8  and  C_11
REMARK    5  A    between atoms: C_15  and  C_16
REMARK                            x       y       z     vdW  Elec       q    Type
REMARK                         _______ _______ _______ _____ _____    ______ ____
ROOT
ATOM      1  N   UNL     1      32.377  -8.771 -22.749  0.00  0.00    -0.297 N 
ENDROOT
BRANCH   1   2
ATOM      2  C   UNL     1      31.957  -9.486 -21.615  0.00  0.00    +0.048 C 
ATOM      3  C   UNL     1      31.227 -10.668 -21.761  0.00  0.00    +0.015 C 
ATOM      4  C   UNL     1      32.267  -9.019 -20.335  0.00  0.00    +0.015 C 
ATOM      5  C   UNL     1      30.810 -11.379 -20.635  0.00  0.00    +0.001 C 
ATOM      6  C   UNL     1      31.850  -9.730 -19.209  0.00  0.00    +0.001 C 
ATOM      7  C   UNL     1      31.122 -10.910 -19.360  0.00  0.00    +0.000 C 
ENDBRANCH   1   2
BRANCH   1   8
ATOM      8  C   UNL     1      33.768  -8.553 -23.031  0.00  0.00    +0.153 C 
BRANCH   8  11
ATOM      9  N   UNL     1      35.200  -9.288 -24.929  0.00  0.00    -0.298 N 
ATOM     10  N   UNL     1      33.602 -10.719 -24.168  0.00  0.00    -0.230 NA
ATOM     11  C   UNL     1      34.181  -9.549 -24.064  0.00  0.00    +0.129 C 
ATOM     12  C   UNL     1      35.420 -10.415 -25.784  0.00  0.00    +0.084 C 
ATOM     13  C   UNL     1      34.319 -11.373 -25.307  0.00  0.00    +0.116 C 
ATOM     14  H   UNL     1      35.712  -8.448 -24.960  0.00  0.00    +0.153 HD
ENDBRANCH   8  11
ENDBRANCH   1   8
BRANCH   1  15
ATOM     15  C   UNL     1      31.374  -8.217 -23.666  0.00  0.00    +0.118 C 
BRANCH  15  16
ATOM     16  C   UNL     1      31.343  -6.713 -23.622  0.00  0.00    -0.002 C 
ATOM     17  C   UNL     1      30.888  -6.072 -22.477  0.00  0.00    -0.003 C 
ATOM     18  C   UNL     1      31.767  -5.988 -24.725  0.00  0.00    -0.003 C 
ATOM     19  C   UNL     1      30.859  -4.679 -22.435  0.00  0.00    -0.000 C 
ATOM     20  C   UNL     1      31.739  -4.593 -24.685  0.00  0.00    -0.000 C 
ATOM     21  C   UNL     1      31.284  -3.939 -23.539  0.00  0.00    -0.000 C 
ENDBRANCH  15  16
ENDBRANCH   1  15
TORSDOF 5
ENDMDL
MODEL 7
REMARK VINA RESULT:      -8.3      1.459      4.242
REMARK  Name = 2200
REMARK  5 active torsions:
REMARK  status: ('A' for Active; 'I' for Inactive)
REMARK    1  A    between atoms: N_1  and  C_2
REMARK    2  A    between atoms: N_1  and  C_8
REMARK    3  A    between atoms: N_1  and  C_15
REMARK    4  A    between atoms: C_8  and  C_11
REMARK    5  A    between atoms: C_15  and  C_16
REMARK                            x       y       z     vdW  Elec       q    Type
REMARK                         _______ _______ _______ _____ _____    ______ ____
ROOT
ATOM      1  N   UNL     1      33.740 -23.238 -16.346  0.00  0.00    -0.297 N 
ENDROOT
BRANCH   1   2
ATOM      2  C   UNL     1      34.977 -23.575 -15.768  0.00  0.00    +0.048 C 
ATOM      3  C   UNL     1      35.188 -24.859 -15.264  0.00  0.00    +0.015 C 
ATOM      4  C   UNL     1      36.000 -22.626 -15.697  0.00  0.00    +0.015 C 
ATOM      5  C   UNL     1      36.416 -25.195 -14.691  0.00  0.00    +0.001 C 
ATOM      6  C   UNL     1      37.227 -22.961 -15.124  0.00  0.00    +0.001 C 
ATOM      7  C   UNL     1      37.434 -24.245 -14.621  0.00  0.00    +0.000 C 
ENDBRANCH   1   2
BRANCH   1   8
ATOM      8  C   UNL     1      32.703 -22.595 -15.591  0.00  0.00    +0.153 C 
BRANCH   8  11
ATOM      9  N   UNL     1      31.600 -24.608 -14.630  0.00  0.00    -0.298 N 
ATOM     10  N   UNL     1      30.469 -23.403 -16.194  0.00  0.00    -0.230 NA
ATOM     11  C   UNL     1      31.560 -23.551 -15.488  0.00  0.00    +0.129 C 
ATOM     12  C   UNL     1      30.372 -25.340 -14.695  0.00  0.00    +0.084 C 
ATOM     13  C   UNL     1      29.614 -24.559 -15.779  0.00  0.00    +0.116 C 
ATOM     14  H   UNL     1      32.362 -24.835 -14.049  0.00  0.00    +0.153 HD
ENDBRANCH   8  11
ENDBRANCH   1   8
BRANCH   1  15
ATOM     15  C   UNL     1      33.490 -23.563 -17.756  0.00  0.00    +0.118 C 
BRANCH  15  16
ATOM     16  C   UNL     1      33.837 -22.417 -18.667  0.00  0.00    -0.002 C 
ATOM     17  C   UNL     1      32.826 -21.596 -19.148  0.00  0.00    -0.003 C 
ATOM     18  C   UNL     1      35.162 -22.196 -19.014  0.00  0.00    -0.003 C 
ATOM     19  C   UNL     1      33.147 -20.533 -19.992  0.00  0.00    -0.000 C 
ATOM     20  C   UNL     1      35.484 -21.133 -19.858  0.00  0.00    -0.000 C 
ATOM     21  C   UNL     1      34.476 -20.302 -20.348  0.00  0.00    -0.000 C 
ENDBRANCH  15  16
ENDBRANCH   1  15
TORSDOF 5
ENDMDL
MODEL 8
REMARK VINA RESULT:      -8.3      1.452      5.829
REMARK  Name = 2200
REMARK  5 active torsions:
REMARK  status: ('A' for Active; 'I' for Inactive)
REMARK    1  A    between atoms: N_1  and  C_2
REMARK    2  A    between atoms: N_1  and  C_8
REMARK    3  A    between atoms: N_1  and  C_15
REMARK    4  A    between atoms: C_8  and  C_11
REMARK    5  A    between atoms: C_15  and  C_16
REMARK                            x       y       z     vdW  Elec       q    Type
REMARK                         _______ _______ _______ _____ _____    ______ ____
ROOT
ATOM      1  N   UNL     1      33.772 -23.460 -16.174  0.00  0.00    -0.297 N 
ENDROOT
BRANCH   1   2
ATOM      2  C   UNL     1      35.045 -23.723 -15.640  0.00  0.00    +0.048 C 
ATOM      3  C   UNL     1      35.974 -22.690 -15.502  0.00  0.00    +0.015 C 
ATOM      4  C   UNL     1      35.386 -25.019 -15.244  0.00  0.00    +0.015 C 
ATOM      5  C   UNL     1      37.238 -22.951 -14.971  0.00  0.00    +0.001 C 
ATOM      6  C   UNL     1      36.650 -25.279 -14.713  0.00  0.00    +0.001 C 
ATOM      7  C   UNL     1      37.575 -24.245 -14.577  0.00  0.00    +0.000 C 
ENDBRANCH   1   2
BRANCH   1   8
ATOM      8  C   UNL     1      33.408 -23.874 -17.499  0.00  0.00    +0.153 C 
BRANCH   8  11
ATOM      9  N   UNL     1      32.731 -21.937 -18.906  0.00  0.00    -0.298 N 
ATOM     10  N   UNL     1      34.941 -22.465 -18.794  0.00  0.00    -0.230 NA
ATOM     11  C   UNL     1      33.717 -22.744 -18.425  0.00  0.00    +0.129 C 
ATOM     12  C   UNL     1      33.293 -20.913 -19.734  0.00  0.00    +0.084 C 
ATOM     13  C   UNL     1      34.783 -21.284 -19.699  0.00  0.00    +0.116 C 
ATOM     14  H   UNL     1      31.771 -22.041 -18.713  0.00  0.00    +0.153 HD
ENDBRANCH   8  11
ENDBRANCH   1   8
BRANCH   1  15
ATOM     15  C   UNL     1      32.787 -22.731 -15.366  0.00  0.00    +0.118 C 
BRANCH  15  16
ATOM     16  C   UNL     1      31.468 -23.453 -15.299  0.00  0.00    -0.002 C 
ATOM     17  C   UNL     1      31.362 -24.616 -14.548  0.00  0.00    -0.003 C 
ATOM     18  C   UNL     1      30.377 -22.947 -15.990  0.00  0.00    -0.003 C 
ATOM     19  C   UNL     1      30.141 -25.285 -14.486  0.00  0.00    -0.000 C 
ATOM     20  C   UNL     1      29.154 -23.616 -15.928  0.00  0.00    -0.000 C 
ATOM     21  C   UNL     1      29.037 -24.786 -15.177  0.00  0.00    -0.000 C 
ENDBRANCH  15  16
ENDBRANCH   1  15
TORSDOF 5
ENDMDL
MODEL 9
REMARK VINA RESULT:      -8.2      1.455      2.192
REMARK  Name = 2200
REMARK  5 active torsions:
REMARK  status: ('A' for Active; 'I' for Inactive)
REMARK    1  A    between atoms: N_1  and  C_2
REMARK    2  A    between atoms: N_1  and  C_8
REMARK    3  A    between atoms: N_1  and  C_15
REMARK    4  A    between atoms: C_8  and  C_11
REMARK    5  A    between atoms: C_15  and  C_16
REMARK                            x       y       z     vdW  Elec       q    Type
REMARK                         _______ _______ _______ _____ _____    ______ ____
ROOT
ATOM      1  N   UNL     1      34.487 -24.027 -15.113  0.00  0.00    -0.297 N 
ENDROOT
BRANCH   1   2
ATOM      2  C   UNL     1      33.154 -23.993 -14.670  0.00  0.00    +0.048 C 
ATOM      3  C   UNL     1      32.618 -25.079 -13.974  0.00  0.00    +0.015 C 
ATOM      4  C   UNL     1      32.359 -22.873 -14.923  0.00  0.00    +0.015 C 
ATOM      5  C   UNL     1      31.294 -25.045 -13.534  0.00  0.00    +0.001 C 
ATOM      6  C   UNL     1      31.035 -22.839 -14.483  0.00  0.00    +0.001 C 
ATOM      7  C   UNL     1      30.504 -23.926 -13.788  0.00  0.00    +0.000 C 
ENDBRANCH   1   2
BRANCH   1   8
ATOM      8  C   UNL     1      35.175 -25.266 -15.345  0.00  0.00    +0.153 C 
BRANCH   8  11
ATOM      9  N   UNL     1      36.176 -25.450 -13.074  0.00  0.00    -0.298 N 
ATOM     10  N   UNL     1      37.577 -25.249 -14.856  0.00  0.00    -0.230 NA
ATOM     11  C   UNL     1      36.345 -25.313 -14.419  0.00  0.00    +0.129 C 
ATOM     12  C   UNL     1      37.449 -25.509 -12.422  0.00  0.00    +0.084 C 
ATOM     13  C   UNL     1      38.404 -25.333 -13.612  0.00  0.00    +0.116 C 
ATOM     14  H   UNL     1      35.305 -25.502 -12.618  0.00  0.00    +0.153 HD
ENDBRANCH   8  11
ENDBRANCH   1   8
BRANCH   1  15
ATOM     15  C   UNL     1      35.208 -22.767 -15.331  0.00  0.00    +0.118 C 
BRANCH  15  16
ATOM     16  C   UNL     1      35.350 -22.448 -16.795  0.00  0.00    -0.002 C 
ATOM     17  C   UNL     1      34.293 -22.705 -17.657  0.00  0.00    -0.003 C 
ATOM     18  C   UNL     1      36.536 -21.901 -17.263  0.00  0.00    -0.003 C 
ATOM     19  C   UNL     1      34.424 -22.409 -19.013  0.00  0.00    -0.000 C 
ATOM     20  C   UNL     1      36.668 -21.604 -18.620  0.00  0.00    -0.000 C 
ATOM     21  C   UNL     1      35.612 -21.859 -19.495  0.00  0.00    -0.000 C 
ENDBRANCH  15  16
ENDBRANCH   1  15
TORSDOF 5
ENDMDL
