MODEL 1
REMARK VINA RESULT:     -10.1      0.000      0.000
REMARK  Name = 5278690
REMARK  6 active torsions:
REMARK  status: ('A' for Active; 'I' for Inactive)
REMARK    1  A    between atoms: C_1  and  O_2
REMARK    2  A    between atoms: C_1  and  C_14
REMARK    3  A    between atoms: O_2  and  C_4
REMARK    4  A    between atoms: C_4  and  N_5
REMARK    5  A    between atoms: N_5  and  C_8
REMARK    6  A    between atoms: C_14  and  N_17
REMARK                            x       y       z     vdW  Elec       q    Type
REMARK                         _______ _______ _______ _____ _____    ______ ____
ROOT
ATOM      1  C   UNL     1      34.932 -15.727 -23.375  0.00  0.00    +0.229 C 
ENDROOT
BRANCH   1   2
ATOM      2  O   UNL     1      34.639 -16.851 -22.555  0.00  0.00    -0.456 OA
BRANCH   2   4
ATOM      3  S   UNL     1      34.689 -18.843 -24.335  0.00  0.00    +0.006 S 
ATOM      4  C   UNL     1      35.000 -18.142 -22.847  0.00  0.00    +0.233 C 
BRANCH   4   5
ATOM      5  N   UNL     1      35.644 -18.863 -21.861  0.00  0.00    -0.278 N 
ATOM      6  H   UNL     1      36.608 -18.678 -21.786  0.00  0.00    +0.156 HD
BRANCH   5   8
ATOM      7  I   UNL     1      33.503 -23.108 -17.786  0.00  0.00    -0.043 I 
ATOM      8  C   UNL     1      35.160 -19.824 -20.939  0.00  0.00    +0.051 C 
ATOM      9  C   UNL     1      36.063 -20.615 -20.252  0.00  0.00    +0.015 C 
ATOM     10  C   UNL     1      33.794 -19.948 -20.748  0.00  0.00    +0.015 C 
ATOM     11  C   UNL     1      35.586 -21.561 -19.344  0.00  0.00    +0.007 C 
ATOM     12  C   UNL     1      33.317 -20.893 -19.839  0.00  0.00    +0.007 C 
ATOM     13  C   UNL     1      34.213 -21.700 -19.138  0.00  0.00    +0.030 C 
ENDBRANCH   5   8
ENDBRANCH   4   5
ENDBRANCH   2   4
ENDBRANCH   1   2
BRANCH   1  14
ATOM     14  C   UNL     1      33.654 -15.228 -24.023  0.00  0.00    +0.149 C 
BRANCH  14  17
ATOM     15  O   UNL     1      33.876 -12.375 -24.853  0.00  0.00    -0.269 OA
ATOM     16  O   UNL     1      32.127 -15.009 -21.468  0.00  0.00    -0.269 OA
ATOM     17  N   UNL     1      33.147 -14.044 -23.359  0.00  0.00    -0.219 N 
ATOM     18  C   UNL     1      32.647 -11.885 -22.887  0.00  0.00    +0.058 C 
ATOM     19  C   UNL     1      32.124 -12.675 -21.874  0.00  0.00    +0.058 C 
ATOM     20  C   UNL     1      33.313 -12.764 -23.848  0.00  0.00    +0.255 C 
ATOM     21  C   UNL     1      32.447 -14.070 -22.172  0.00  0.00    +0.255 C 
ATOM     22  C   UNL     1      32.508 -10.513 -22.889  0.00  0.00    +0.005 C 
ATOM     23  C   UNL     1      31.433 -12.134 -20.809  0.00  0.00    +0.005 C 
ATOM     24  C   UNL     1      31.810  -9.942 -21.820  0.00  0.00    +0.000 C 
ATOM     25  C   UNL     1      31.279 -10.745 -20.790  0.00  0.00    +0.000 C 
ENDBRANCH  14  17
ENDBRANCH   1  14
TORSDOF 6
ENDMDL
MODEL 2
REMARK VINA RESULT:     -10.0      0.114      1.800
REMARK  Name = 5278690
REMARK  6 active torsions:
REMARK  status: ('A' for Active; 'I' for Inactive)
REMARK    1  A    between atoms: C_1  and  O_2
REMARK    2  A    between atoms: C_1  and  C_14
REMARK    3  A    between atoms: O_2  and  C_4
REMARK    4  A    between atoms: C_4  and  N_5
REMARK    5  A    between atoms: N_5  and  C_8
REMARK    6  A    between atoms: C_14  and  N_17
REMARK                            x       y       z     vdW  Elec       q    Type
REMARK                         _______ _______ _______ _____ _____    ______ ____
ROOT
ATOM      1  C   UNL     1      34.945 -15.802 -23.483  0.00  0.00    +0.229 C 
ENDROOT
BRANCH   1   2
ATOM      2  O   UNL     1      34.619 -16.898 -22.639  0.00  0.00    -0.456 OA
BRANCH   2   4
ATOM      3  S   UNL     1      34.592 -18.937 -24.365  0.00  0.00    +0.006 S 
ATOM      4  C   UNL     1      34.943 -18.205 -22.900  0.00  0.00    +0.233 C 
BRANCH   4   5
ATOM      5  N   UNL     1      35.583 -18.916 -21.905  0.00  0.00    -0.278 N 
ATOM      6  H   UNL     1      36.547 -18.731 -21.830  0.00  0.00    +0.156 HD
BRANCH   5   8
ATOM      7  I   UNL     1      33.424 -23.110 -17.787  0.00  0.00    -0.043 I 
ATOM      8  C   UNL     1      35.095 -19.865 -20.973  0.00  0.00    +0.051 C 
ATOM      9  C   UNL     1      35.995 -20.648 -20.272  0.00  0.00    +0.015 C 
ATOM     10  C   UNL     1      33.728 -19.987 -20.787  0.00  0.00    +0.015 C 
ATOM     11  C   UNL     1      35.514 -21.582 -19.355  0.00  0.00    +0.007 C 
ATOM     12  C   UNL     1      33.247 -20.922 -19.869  0.00  0.00    +0.007 C 
ATOM     13  C   UNL     1      34.140 -21.719 -19.153  0.00  0.00    +0.030 C 
ENDBRANCH   5   8
ENDBRANCH   4   5
ENDBRANCH   2   4
ENDBRANCH   1   2
BRANCH   1  14
ATOM     14  C   UNL     1      33.678 -15.263 -24.122  0.00  0.00    +0.149 C 
BRANCH  14  17
ATOM     15  O   UNL     1      32.254 -15.086 -21.510  0.00  0.00    -0.269 OA
ATOM     16  O   UNL     1      33.826 -12.397 -24.938  0.00  0.00    -0.269 OA
ATOM     17  N   UNL     1      33.189 -14.089 -23.428  0.00  0.00    -0.219 N 
ATOM     18  C   UNL     1      32.235 -12.744 -21.874  0.00  0.00    +0.058 C 
ATOM     19  C   UNL     1      32.706 -11.940 -22.901  0.00  0.00    +0.058 C 
ATOM     20  C   UNL     1      32.541 -14.134 -22.210  0.00  0.00    +0.255 C 
ATOM     21  C   UNL     1      33.320 -12.804 -23.910  0.00  0.00    +0.255 C 
ATOM     22  C   UNL     1      31.598 -12.219 -20.769  0.00  0.00    +0.005 C 
ATOM     23  C   UNL     1      32.565 -10.567 -22.878  0.00  0.00    +0.005 C 
ATOM     24  C   UNL     1      31.445 -10.829 -20.723  0.00  0.00    +0.000 C 
ATOM     25  C   UNL     1      31.923 -10.012 -21.767  0.00  0.00    +0.000 C 
ENDBRANCH  14  17
ENDBRANCH   1  14
TORSDOF 6
ENDMDL
MODEL 3
REMARK VINA RESULT:      -9.9      4.888      8.644
REMARK  Name = 5278690
REMARK  6 active torsions:
REMARK  status: ('A' for Active; 'I' for Inactive)
REMARK    1  A    between atoms: C_1  and  O_2
REMARK    2  A    between atoms: C_1  and  C_14
REMARK    3  A    between atoms: O_2  and  C_4
REMARK    4  A    between atoms: C_4  and  N_5
REMARK    5  A    between atoms: N_5  and  C_8
REMARK    6  A    between atoms: C_14  and  N_17
REMARK                            x       y       z     vdW  Elec       q    Type
REMARK                         _______ _______ _______ _____ _____    ______ ____
ROOT
ATOM      1  C   UNL     1      33.745 -13.357 -26.805  0.00  0.00    +0.229 C 
ENDROOT
BRANCH   1   2
ATOM      2  O   UNL     1      33.477 -12.070 -26.263  0.00  0.00    -0.456 OA
BRANCH   2   4
ATOM      3  S   UNL     1      35.712 -10.633 -26.536  0.00  0.00    +0.006 S 
ATOM      4  C   UNL     1      34.417 -11.260 -25.679  0.00  0.00    +0.233 C 
BRANCH   4   5
ATOM      5  N   UNL     1      34.264 -10.967 -24.339  0.00  0.00    -0.278 N 
ATOM      6  H   UNL     1      34.620 -11.654 -23.730  0.00  0.00    +0.156 HD
BRANCH   5   8
ATOM      7  I   UNL     1      31.706  -6.032 -21.455  0.00  0.00    -0.043 I 
ATOM      8  C   UNL     1      33.686  -9.850 -23.686  0.00  0.00    +0.051 C 
ATOM      9  C   UNL     1      34.355  -8.639 -23.699  0.00  0.00    +0.015 C 
ATOM     10  C   UNL     1      32.465  -9.998 -23.050  0.00  0.00    +0.015 C 
ATOM     11  C   UNL     1      33.785  -7.540 -23.057  0.00  0.00    +0.007 C 
ATOM     12  C   UNL     1      31.894  -8.898 -22.408  0.00  0.00    +0.007 C 
ATOM     13  C   UNL     1      32.555  -7.669 -22.411  0.00  0.00    +0.030 C 
ENDBRANCH   5   8
ENDBRANCH   4   5
ENDBRANCH   2   4
ENDBRANCH   1   2
BRANCH   1  14
ATOM     14  C   UNL     1      32.797 -14.370 -26.192  0.00  0.00    +0.149 C 
BRANCH  14  17
ATOM     15  O   UNL     1      32.534 -13.449 -23.370  0.00  0.00    -0.269 OA
ATOM     16  O   UNL     1      34.499 -16.802 -25.889  0.00  0.00    -0.269 OA
ATOM     17  N   UNL     1      33.349 -14.955 -24.987  0.00  0.00    -0.219 N 
ATOM     18  C   UNL     1      33.866 -15.328 -22.813  0.00  0.00    +0.058 C 
ATOM     19  C   UNL     1      34.454 -16.332 -23.568  0.00  0.00    +0.058 C 
ATOM     20  C   UNL     1      33.153 -14.433 -23.724  0.00  0.00    +0.255 C 
ATOM     21  C   UNL     1      34.126 -16.094 -24.974  0.00  0.00    +0.255 C 
ATOM     22  C   UNL     1      33.996 -15.276 -21.440  0.00  0.00    +0.005 C 
ATOM     23  C   UNL     1      35.203 -17.337 -22.991  0.00  0.00    +0.005 C 
ATOM     24  C   UNL     1      34.750 -16.285 -20.833  0.00  0.00    +0.000 C 
ATOM     25  C   UNL     1      35.348 -17.304 -21.601  0.00  0.00    +0.000 C 
ENDBRANCH  14  17
ENDBRANCH   1  14
TORSDOF 6
ENDMDL
MODEL 4
REMARK VINA RESULT:      -9.9      4.907      8.633
REMARK  Name = 5278690
REMARK  6 active torsions:
REMARK  status: ('A' for Active; 'I' for Inactive)
REMARK    1  A    between atoms: C_1  and  O_2
REMARK    2  A    between atoms: C_1  and  C_14
REMARK    3  A    between atoms: O_2  and  C_4
REMARK    4  A    between atoms: C_4  and  N_5
REMARK    5  A    between atoms: N_5  and  C_8
REMARK    6  A    between atoms: C_14  and  N_17
REMARK                            x       y       z     vdW  Elec       q    Type
REMARK                         _______ _______ _______ _____ _____    ______ ____
ROOT
ATOM      1  C   UNL     1      33.745 -13.340 -26.815  0.00  0.00    +0.229 C 
ENDROOT
BRANCH   1   2
ATOM      2  O   UNL     1      33.485 -12.056 -26.262  0.00  0.00    -0.456 OA
BRANCH   2   4
ATOM      3  S   UNL     1      35.738 -10.647 -26.538  0.00  0.00    +0.006 S 
ATOM      4  C   UNL     1      34.433 -11.253 -25.681  0.00  0.00    +0.233 C 
BRANCH   4   5
ATOM      5  N   UNL     1      34.278 -10.947 -24.344  0.00  0.00    -0.278 N 
ATOM      6  H   UNL     1      34.633 -11.628 -23.728  0.00  0.00    +0.156 HD
BRANCH   5   8
ATOM      7  I   UNL     1      31.715  -5.985 -21.511  0.00  0.00    -0.043 I 
ATOM      8  C   UNL     1      33.698  -9.824 -23.703  0.00  0.00    +0.051 C 
ATOM      9  C   UNL     1      34.366  -8.612 -23.728  0.00  0.00    +0.015 C 
ATOM     10  C   UNL     1      32.477  -9.966 -23.066  0.00  0.00    +0.015 C 
ATOM     11  C   UNL     1      33.795  -7.507 -23.097  0.00  0.00    +0.007 C 
ATOM     12  C   UNL     1      31.906  -8.860 -22.435  0.00  0.00    +0.007 C 
ATOM     13  C   UNL     1      32.566  -7.631 -22.450  0.00  0.00    +0.030 C 
ENDBRANCH   5   8
ENDBRANCH   4   5
ENDBRANCH   2   4
ENDBRANCH   1   2
BRANCH   1  14
ATOM     14  C   UNL     1      32.791 -14.353 -26.208  0.00  0.00    +0.149 C 
BRANCH  14  17
ATOM     15  O   UNL     1      34.461 -16.802 -25.900  0.00  0.00    -0.269 OA
ATOM     16  O   UNL     1      32.522 -13.432 -23.383  0.00  0.00    -0.269 OA
ATOM     17  N   UNL     1      33.334 -14.940 -25.000  0.00  0.00    -0.219 N 
ATOM     18  C   UNL     1      34.443 -16.314 -23.581  0.00  0.00    +0.058 C 
ATOM     19  C   UNL     1      33.862 -15.304 -22.828  0.00  0.00    +0.058 C 
ATOM     20  C   UNL     1      34.102 -16.086 -24.985  0.00  0.00    +0.255 C 
ATOM     21  C   UNL     1      33.141 -14.415 -23.740  0.00  0.00    +0.255 C 
ATOM     22  C   UNL     1      35.194 -17.317 -23.003  0.00  0.00    +0.005 C 
ATOM     23  C   UNL     1      34.001 -15.243 -21.457  0.00  0.00    +0.005 C 
ATOM     24  C   UNL     1      35.349 -17.274 -21.613  0.00  0.00    +0.000 C 
ATOM     25  C   UNL     1      34.758 -16.249 -20.848  0.00  0.00    +0.000 C 
ENDBRANCH  14  17
ENDBRANCH   1  14
TORSDOF 6
ENDMDL
MODEL 5
REMARK VINA RESULT:      -9.8      6.961      9.536
REMARK  Name = 5278690
REMARK  6 active torsions:
REMARK  status: ('A' for Active; 'I' for Inactive)
REMARK    1  A    between atoms: C_1  and  O_2
REMARK    2  A    between atoms: C_1  and  C_14
REMARK    3  A    between atoms: O_2  and  C_4
REMARK    4  A    between atoms: C_4  and  N_5
REMARK    5  A    between atoms: N_5  and  C_8
REMARK    6  A    between atoms: C_14  and  N_17
REMARK                            x       y       z     vdW  Elec       q    Type
REMARK                         _______ _______ _______ _____ _____    ______ ____
ROOT
ATOM      1  C   UNL     1      35.078 -23.093 -15.708  0.00  0.00    +0.229 C 
ENDROOT
BRANCH   1   2
ATOM      2  O   UNL     1      35.262 -24.175 -14.804  0.00  0.00    -0.456 OA
BRANCH   2   4
ATOM      3  S   UNL     1      35.620 -23.771 -12.187  0.00  0.00    +0.006 S 
ATOM      4  C   UNL     1      34.740 -24.228 -13.537  0.00  0.00    +0.233 C 
BRANCH   4   5
ATOM      5  N   UNL     1      33.440 -24.674 -13.399  0.00  0.00    -0.278 N 
ATOM      6  H   UNL     1      33.328 -25.399 -12.743  0.00  0.00    +0.156 HD
BRANCH   5   8
ATOM      7  I   UNL     1      28.140 -22.895 -16.218  0.00  0.00    -0.043 I 
ATOM      8  C   UNL     1      32.241 -24.271 -14.037  0.00  0.00    +0.051 C 
ATOM      9  C   UNL     1      32.065 -22.939 -14.365  0.00  0.00    +0.015 C 
ATOM     10  C   UNL     1      31.273 -25.221 -14.317  0.00  0.00    +0.015 C 
ATOM     11  C   UNL     1      30.884 -22.543 -14.993  0.00  0.00    +0.007 C 
ATOM     12  C   UNL     1      30.092 -24.825 -14.946  0.00  0.00    +0.007 C 
ATOM     13  C   UNL     1      29.898 -23.485 -15.283  0.00  0.00    +0.030 C 
ENDBRANCH   5   8
ENDBRANCH   4   5
ENDBRANCH   2   4
ENDBRANCH   1   2
BRANCH   1  14
ATOM     14  C   UNL     1      34.437 -23.605 -16.984  0.00  0.00    +0.149 C 
BRANCH  14  17
ATOM     15  O   UNL     1      36.759 -22.250 -18.272  0.00  0.00    -0.269 OA
ATOM     16  O   UNL     1      32.129 -22.337 -18.387  0.00  0.00    -0.269 OA
ATOM     17  N   UNL     1      34.442 -22.596 -18.024  0.00  0.00    -0.219 N 
ATOM     18  C   UNL     1      35.145 -21.090 -19.563  0.00  0.00    +0.058 C 
ATOM     19  C   UNL     1      33.759 -21.117 -19.597  0.00  0.00    +0.058 C 
ATOM     20  C   UNL     1      35.593 -22.042 -18.546  0.00  0.00    +0.255 C 
ATOM     21  C   UNL     1      33.299 -22.086 -18.602  0.00  0.00    +0.255 C 
ATOM     22  C   UNL     1      35.880 -20.267 -20.391  0.00  0.00    +0.005 C 
ATOM     23  C   UNL     1      33.034 -20.322 -20.460  0.00  0.00    +0.005 C 
ATOM     24  C   UNL     1      35.166 -19.452 -21.276  0.00  0.00    +0.000 C 
ATOM     25  C   UNL     1      33.758 -19.479 -21.309  0.00  0.00    +0.000 C 
ENDBRANCH  14  17
ENDBRANCH   1  14
TORSDOF 6
ENDMDL
MODEL 6
REMARK VINA RESULT:      -9.8      1.775      2.854
REMARK  Name = 5278690
REMARK  6 active torsions:
REMARK  status: ('A' for Active; 'I' for Inactive)
REMARK    1  A    between atoms: C_1  and  O_2
REMARK    2  A    between atoms: C_1  and  C_14
REMARK    3  A    between atoms: O_2  and  C_4
REMARK    4  A    between atoms: C_4  and  N_5
REMARK    5  A    between atoms: N_5  and  C_8
REMARK    6  A    between atoms: C_14  and  N_17
REMARK                            x       y       z     vdW  Elec       q    Type
REMARK                         _______ _______ _______ _____ _____    ______ ____
ROOT
ATOM      1  C   UNL     1      34.220 -14.059 -23.208  0.00  0.00    +0.229 C 
ENDROOT
BRANCH   1   2
ATOM      2  O   UNL     1      33.832 -15.401 -22.943  0.00  0.00    -0.456 OA
BRANCH   2   4
ATOM      3  S   UNL     1      34.572 -17.084 -24.881  0.00  0.00    +0.006 S 
ATOM      4  C   UNL     1      34.555 -16.507 -23.309  0.00  0.00    +0.233 C 
BRANCH   4   5
ATOM      5  N   UNL     1      35.286 -17.146 -22.328  0.00  0.00    -0.278 N 
ATOM      6  H   UNL     1      36.136 -16.703 -22.101  0.00  0.00    +0.156 HD
BRANCH   5   8
ATOM      7  I   UNL     1      34.143 -22.368 -19.067  0.00  0.00    -0.043 I 
ATOM      8  C   UNL     1      35.028 -18.328 -21.590  0.00  0.00    +0.051 C 
ATOM      9  C   UNL     1      36.092 -19.077 -21.119  0.00  0.00    +0.015 C 
ATOM     10  C   UNL     1      33.716 -18.706 -21.358  0.00  0.00    +0.015 C 
ATOM     11  C   UNL     1      35.837 -20.239 -20.392  0.00  0.00    +0.007 C 
ATOM     12  C   UNL     1      33.461 -19.870 -20.631  0.00  0.00    +0.007 C 
ATOM     13  C   UNL     1      34.522 -20.636 -20.149  0.00  0.00    +0.030 C 
ENDBRANCH   5   8
ENDBRANCH   4   5
ENDBRANCH   2   4
ENDBRANCH   1   2
BRANCH   1  14
ATOM     14  C   UNL     1      33.067 -13.320 -23.861  0.00  0.00    +0.149 C 
BRANCH  14  17
ATOM     15  O   UNL     1      31.520 -11.751 -21.854  0.00  0.00    -0.269 OA
ATOM     16  O   UNL     1      34.735 -11.204 -25.143  0.00  0.00    -0.269 OA
ATOM     17  N   UNL     1      33.117 -11.900 -23.579  0.00  0.00    -0.219 N 
ATOM     18  C   UNL     1      32.716  -9.869 -22.658  0.00  0.00    +0.058 C 
ATOM     19  C   UNL     1      33.679  -9.707 -23.643  0.00  0.00    +0.058 C 
ATOM     20  C   UNL     1      32.347 -11.284 -22.614  0.00  0.00    +0.255 C 
ATOM     21  C   UNL     1      33.939 -11.015 -24.244  0.00  0.00    +0.255 C 
ATOM     22  C   UNL     1      32.254  -8.809 -21.906  0.00  0.00    +0.005 C 
ATOM     23  C   UNL     1      34.231  -8.475 -23.929  0.00  0.00    +0.005 C 
ATOM     24  C   UNL     1      32.801  -7.551 -22.177  0.00  0.00    +0.000 C 
ATOM     25  C   UNL     1      33.778  -7.385 -23.179  0.00  0.00    +0.000 C 
ENDBRANCH  14  17
ENDBRANCH   1  14
TORSDOF 6
ENDMDL
MODEL 7
REMARK VINA RESULT:      -9.8      1.770      2.526
REMARK  Name = 5278690
REMARK  6 active torsions:
REMARK  status: ('A' for Active; 'I' for Inactive)
REMARK    1  A    between atoms: C_1  and  O_2
REMARK    2  A    between atoms: C_1  and  C_14
REMARK    3  A    between atoms: O_2  and  C_4
REMARK    4  A    between atoms: C_4  and  N_5
REMARK    5  A    between atoms: N_5  and  C_8
REMARK    6  A    between atoms: C_14  and  N_17
REMARK                            x       y       z     vdW  Elec       q    Type
REMARK                         _______ _______ _______ _____ _____    ______ ____
ROOT
ATOM      1  C   UNL     1      34.215 -14.092 -23.383  0.00  0.00    +0.229 C 
ENDROOT
BRANCH   1   2
ATOM      2  O   UNL     1      33.808 -15.429 -23.125  0.00  0.00    -0.456 OA
BRANCH   2   4
ATOM      3  S   UNL     1      34.676 -17.185 -24.943  0.00  0.00    +0.006 S 
ATOM      4  C   UNL     1      34.564 -16.539 -23.401  0.00  0.00    +0.233 C 
BRANCH   4   5
ATOM      5  N   UNL     1      35.248 -17.123 -22.354  0.00  0.00    -0.278 N 
ATOM      6  H   UNL     1      36.055 -16.634 -22.073  0.00  0.00    +0.156 HD
BRANCH   5   8
ATOM      7  I   UNL     1      34.120 -22.340 -19.079  0.00  0.00    -0.043 I 
ATOM      8  C   UNL     1      34.992 -18.304 -21.612  0.00  0.00    +0.051 C 
ATOM      9  C   UNL     1      33.683 -18.685 -21.380  0.00  0.00    +0.015 C 
ATOM     10  C   UNL     1      36.060 -19.047 -21.138  0.00  0.00    +0.015 C 
ATOM     11  C   UNL     1      33.432 -19.847 -20.651  0.00  0.00    +0.007 C 
ATOM     12  C   UNL     1      35.808 -20.210 -20.408  0.00  0.00    +0.007 C 
ATOM     13  C   UNL     1      34.494 -20.609 -20.165  0.00  0.00    +0.030 C 
ENDBRANCH   5   8
ENDBRANCH   4   5
ENDBRANCH   2   4
ENDBRANCH   1   2
BRANCH   1  14
ATOM     14  C   UNL     1      33.062 -13.324 -24.003  0.00  0.00    +0.149 C 
BRANCH  14  17
ATOM     15  O   UNL     1      34.749 -11.199 -25.236  0.00  0.00    -0.269 OA
ATOM     16  O   UNL     1      31.555 -11.790 -21.934  0.00  0.00    -0.269 OA
ATOM     17  N   UNL     1      33.128 -11.912 -23.683  0.00  0.00    -0.219 N 
ATOM     18  C   UNL     1      33.700  -9.720 -23.710  0.00  0.00    +0.058 C 
ATOM     19  C   UNL     1      32.743  -9.899 -22.722  0.00  0.00    +0.058 C 
ATOM     20  C   UNL     1      33.956 -11.019 -24.332  0.00  0.00    +0.255 C 
ATOM     21  C   UNL     1      32.373 -11.314 -22.697  0.00  0.00    +0.255 C 
ATOM     22  C   UNL     1      34.252  -8.485 -23.978  0.00  0.00    +0.005 C 
ATOM     23  C   UNL     1      32.288  -8.850 -21.948  0.00  0.00    +0.005 C 
ATOM     24  C   UNL     1      33.805  -7.407 -23.207  0.00  0.00    +0.000 C 
ATOM     25  C   UNL     1      32.833  -7.588 -22.202  0.00  0.00    +0.000 C 
ENDBRANCH  14  17
ENDBRANCH   1  14
TORSDOF 6
ENDMDL
MODEL 8
REMARK VINA RESULT:      -9.6      2.370      3.587
REMARK  Name = 5278690
REMARK  6 active torsions:
REMARK  status: ('A' for Active; 'I' for Inactive)
REMARK    1  A    between atoms: C_1  and  O_2
REMARK    2  A    between atoms: C_1  and  C_14
REMARK    3  A    between atoms: O_2  and  C_4
REMARK    4  A    between atoms: C_4  and  N_5
REMARK    5  A    between atoms: N_5  and  C_8
REMARK    6  A    between atoms: C_14  and  N_17
REMARK                            x       y       z     vdW  Elec       q    Type
REMARK                         _______ _______ _______ _____ _____    ______ ____
ROOT
ATOM      1  C   UNL     1      35.212 -19.111 -22.414  0.00  0.00    +0.229 C 
ENDROOT
BRANCH   1   2
ATOM      2  O   UNL     1      35.395 -19.545 -21.072  0.00  0.00    -0.456 OA
BRANCH   2   4
ATOM      3  S   UNL     1      32.953 -20.326 -20.322  0.00  0.00    +0.006 S 
ATOM      4  C   UNL     1      34.616 -20.482 -20.444  0.00  0.00    +0.233 C 
BRANCH   4   5
ATOM      5  N   UNL     1      35.251 -21.584 -19.906  0.00  0.00    -0.278 N 
ATOM      6  H   UNL     1      35.712 -22.150 -20.566  0.00  0.00    +0.156 HD
BRANCH   5   8
ATOM      7  I   UNL     1      35.710 -23.608 -13.998  0.00  0.00    -0.043 I 
ATOM      8  C   UNL     1      35.354 -22.042 -18.569  0.00  0.00    +0.051 C 
ATOM      9  C   UNL     1      34.283 -22.705 -17.997  0.00  0.00    +0.015 C 
ATOM     10  C   UNL     1      36.525 -21.815 -17.866  0.00  0.00    +0.015 C 
ATOM     11  C   UNL     1      34.385 -23.156 -16.681  0.00  0.00    +0.007 C 
ATOM     12  C   UNL     1      36.628 -22.266 -16.549  0.00  0.00    +0.007 C 
ATOM     13  C   UNL     1      35.557 -22.936 -15.957  0.00  0.00    +0.030 C 
ENDBRANCH   5   8
ENDBRANCH   4   5
ENDBRANCH   2   4
ENDBRANCH   1   2
BRANCH   1  14
ATOM     14  C   UNL     1      35.946 -17.800 -22.625  0.00  0.00    +0.149 C 
BRANCH  14  17
ATOM     15  O   UNL     1      34.539 -16.286 -24.772  0.00  0.00    -0.269 OA
ATOM     16  O   UNL     1      35.048 -16.363 -20.169  0.00  0.00    -0.269 OA
ATOM     17  N   UNL     1      35.054 -16.664 -22.505  0.00  0.00    -0.219 N 
ATOM     18  C   UNL     1      33.641 -14.969 -23.018  0.00  0.00    +0.058 C 
ATOM     19  C   UNL     1      33.794 -14.994 -21.640  0.00  0.00    +0.058 C 
ATOM     20  C   UNL     1      34.455 -16.045 -23.583  0.00  0.00    +0.255 C 
ATOM     21  C   UNL     1      34.709 -16.084 -21.303  0.00  0.00    +0.255 C 
ATOM     22  C   UNL     1      32.834 -14.044 -23.647  0.00  0.00    +0.005 C 
ATOM     23  C   UNL     1      33.148 -14.093 -20.817  0.00  0.00    +0.005 C 
ATOM     24  C   UNL     1      32.168 -13.123 -22.833  0.00  0.00    +0.000 C 
ATOM     25  C   UNL     1      32.324 -13.146 -21.433  0.00  0.00    +0.000 C 
ENDBRANCH  14  17
ENDBRANCH   1  14
TORSDOF 6
ENDMDL
MODEL 9
REMARK VINA RESULT:      -9.5      6.344      8.767
REMARK  Name = 5278690
REMARK  6 active torsions:
REMARK  status: ('A' for Active; 'I' for Inactive)
REMARK    1  A    between atoms: C_1  and  O_2
REMARK    2  A    between atoms: C_1  and  C_14
REMARK    3  A    between atoms: O_2  and  C_4
REMARK    4  A    between atoms: C_4  and  N_5
REMARK    5  A    between atoms: N_5  and  C_8
REMARK    6  A    between atoms: C_14  and  N_17
REMARK                            x       y       z     vdW  Elec       q    Type
REMARK                         _______ _______ _______ _____ _____    ______ ____
ROOT
ATOM      1  C   UNL     1      32.766 -22.757 -17.484  0.00  0.00    +0.229 C 
ENDROOT
BRANCH   1   2
ATOM      2  O   UNL     1      32.632 -23.644 -16.381  0.00  0.00    -0.456 OA
BRANCH   2   4
ATOM      3  S   UNL     1      31.651 -23.447 -13.904  0.00  0.00    +0.006 S 
ATOM      4  C   UNL     1      32.841 -23.293 -15.072  0.00  0.00    +0.233 C 
BRANCH   4   5
ATOM      5  N   UNL     1      34.086 -22.802 -14.732  0.00  0.00    -0.278 N 
ATOM      6  H   UNL     1      34.090 -21.853 -14.468  0.00  0.00    +0.156 HD
BRANCH   5   8
ATOM      7  I   UNL     1      39.712 -25.548 -14.581  0.00  0.00    -0.043 I 
ATOM      8  C   UNL     1      35.359 -23.424 -14.698  0.00  0.00    +0.051 C 
ATOM      9  C   UNL     1      35.518 -24.598 -13.984  0.00  0.00    +0.015 C 
ATOM     10  C   UNL     1      36.414 -22.840 -15.379  0.00  0.00    +0.015 C 
ATOM     11  C   UNL     1      36.771 -25.210 -13.950  0.00  0.00    +0.007 C 
ATOM     12  C   UNL     1      37.668 -23.453 -15.345  0.00  0.00    +0.007 C 
ATOM     13  C   UNL     1      37.846 -24.637 -14.631  0.00  0.00    +0.030 C 
ENDBRANCH   5   8
ENDBRANCH   4   5
ENDBRANCH   2   4
ENDBRANCH   1   2
BRANCH   1  14
ATOM     14  C   UNL     1      33.997 -23.135 -18.288  0.00  0.00    +0.149 C 
BRANCH  14  17
ATOM     15  O   UNL     1      36.728 -21.965 -18.519  0.00  0.00    -0.269 OA
ATOM     16  O   UNL     1      32.441 -21.448 -20.196  0.00  0.00    -0.269 OA
ATOM     17  N   UNL     1      34.450 -22.035 -19.116  0.00  0.00    -0.219 N 
ATOM     18  C   UNL     1      35.773 -20.484 -20.104  0.00  0.00    +0.058 C 
ATOM     19  C   UNL     1      34.489 -20.330 -20.605  0.00  0.00    +0.058 C 
ATOM     20  C   UNL     1      35.754 -21.582 -19.138  0.00  0.00    +0.255 C 
ATOM     21  C   UNL     1      33.629 -21.327 -19.968  0.00  0.00    +0.255 C 
ATOM     22  C   UNL     1      36.818 -19.682 -20.513  0.00  0.00    +0.005 C 
ATOM     23  C   UNL     1      34.182 -19.366 -21.543  0.00  0.00    +0.005 C 
ATOM     24  C   UNL     1      36.530 -18.698 -21.465  0.00  0.00    +0.000 C 
ATOM     25  C   UNL     1      35.225 -18.541 -21.974  0.00  0.00    +0.000 C 
ENDBRANCH  14  17
ENDBRANCH   1  14
TORSDOF 6
ENDMDL
