MODEL 1
REMARK VINA RESULT:     -11.5      0.000      0.000
REMARK  Name = 115368
REMARK  5 active torsions:
REMARK  status: ('A' for Active; 'I' for Inactive)
REMARK    1  A    between atoms: N_2  and  C_17
REMARK    2  A    between atoms: C_17  and  C_18
REMARK    3  A    between atoms: C_18  and  C_19
REMARK    4  A    between atoms: C_19  and  C_20
REMARK    5  A    between atoms: C_20  and  N_23
REMARK                            x       y       z     vdW  Elec       q    Type
REMARK                         _______ _______ _______ _____ _____    ______ ____
ROOT
ATOM      1  S   UNL     1      31.563 -10.039 -21.857  0.00  0.00    +0.014 S 
ATOM      2  N   UNL     1      33.812 -15.934 -23.859  0.00  0.00    +0.389 N 
ATOM      3  N   UNL     1      32.886 -13.313 -23.194  0.00  0.00    -0.297 N 
ATOM      4  N   UNL     1      31.602 -11.688 -22.010  0.00  0.00    -0.194 NA
ATOM      5  C   UNL     1      33.904 -14.839 -24.832  0.00  0.00    -0.055 C 
ATOM      6  C   UNL     1      33.957 -15.412 -22.493  0.00  0.00    -0.055 C 
ATOM      7  C   UNL     1      32.826 -13.781 -24.583  0.00  0.00    +0.069 C 
ATOM      8  C   UNL     1      32.866 -14.384 -22.191  0.00  0.00    +0.069 C 
ATOM      9  C   UNL     1      32.586 -12.014 -22.851  0.00  0.00    +0.140 A 
ATOM     10  C   UNL     1      33.352 -10.933 -23.410  0.00  0.00    +0.040 A 
ATOM     11  C   UNL     1      32.873  -9.715 -22.923  0.00  0.00    +0.050 A 
ATOM     12  C   UNL     1      34.439 -10.916 -24.313  0.00  0.00    +0.003 C 
ATOM     13  C   UNL     1      33.435  -8.485 -23.301  0.00  0.00    +0.008 C 
ATOM     14  C   UNL     1      35.005  -9.697 -24.695  0.00  0.00    +0.000 C 
ATOM     15  C   UNL     1      34.508  -8.498 -24.195  0.00  0.00    +0.001 C 
ATOM     16  H   UNL     1      32.894 -16.370 -23.945  0.00  0.00    -0.080 HD
ENDROOT
BRANCH   2  17
ATOM     17  C   UNL     1      34.827 -16.951 -24.131  0.00  0.00    -0.077 C 
BRANCH  17  18
ATOM     18  C   UNL     1      35.353 -17.540 -22.823  0.00  0.00    -0.021 C 
BRANCH  18  19
ATOM     19  C   UNL     1      34.542 -18.771 -22.405  0.00  0.00    +0.020 C 
BRANCH  19  20
ATOM     20  C   UNL     1      34.325 -18.845 -20.897  0.00  0.00    +0.101 C 
BRANCH  20  23
ATOM     21  O   UNL     1      32.561 -20.935 -19.768  0.00  0.00    -0.274 OA
ATOM     22  O   UNL     1      37.009 -19.992 -20.609  0.00  0.00    -0.274 OA
ATOM     23  N   UNL     1      34.686 -20.138 -20.351  0.00  0.00    -0.230 N 
ATOM     24  C   UNL     1      34.545 -22.336 -19.622  0.00  0.00    +0.086 C 
ATOM     25  C   UNL     1      35.980 -21.837 -19.417  0.00  0.00    +0.086 C 
ATOM     26  C   UNL     1      33.973 -23.213 -18.516  0.00  0.00    +0.010 C 
ATOM     27  C   UNL     1      36.339 -21.501 -17.965  0.00  0.00    +0.010 C 
ATOM     28  C   UNL     1      34.331 -22.732 -17.116  0.00  0.00    +0.001 C 
ATOM     29  C   UNL     1      35.835 -22.541 -16.976  0.00  0.00    +0.001 C 
ATOM     30  C   UNL     1      33.769 -21.063 -19.887  0.00  0.00    +0.231 C 
ATOM     31  C   UNL     1      35.996 -20.558 -20.224  0.00  0.00    +0.231 C 
ENDBRANCH  20  23
ENDBRANCH  19  20
ENDBRANCH  18  19
ENDBRANCH  17  18
ENDBRANCH   2  17
TORSDOF 5
ENDMDL
MODEL 2
REMARK VINA RESULT:     -11.2      2.602      4.639
REMARK  Name = 115368
REMARK  5 active torsions:
REMARK  status: ('A' for Active; 'I' for Inactive)
REMARK    1  A    between atoms: N_2  and  C_17
REMARK    2  A    between atoms: C_17  and  C_18
REMARK    3  A    between atoms: C_18  and  C_19
REMARK    4  A    between atoms: C_19  and  C_20
REMARK    5  A    between atoms: C_20  and  N_23
REMARK                            x       y       z     vdW  Elec       q    Type
REMARK                         _______ _______ _______ _____ _____    ______ ____
ROOT
ATOM      1  S   UNL     1      33.198 -13.908 -25.012  0.00  0.00    +0.014 S 
ATOM      2  N   UNL     1      35.284 -19.220 -21.657  0.00  0.00    +0.389 N 
ATOM      3  N   UNL     1      34.438 -16.806 -22.932  0.00  0.00    -0.297 N 
ATOM      4  N   UNL     1      33.950 -15.364 -24.769  0.00  0.00    -0.194 NA
ATOM      5  C   UNL     1      35.336 -17.939 -20.942  0.00  0.00    -0.055 C 
ATOM      6  C   UNL     1      34.161 -19.226 -22.604  0.00  0.00    -0.055 C 
ATOM      7  C   UNL     1      35.494 -16.766 -21.915  0.00  0.00    +0.069 C 
ATOM      8  C   UNL     1      34.308 -18.094 -23.622  0.00  0.00    +0.069 C 
ATOM      9  C   UNL     1      33.901 -15.656 -23.468  0.00  0.00    +0.140 A 
ATOM     10  C   UNL     1      33.249 -14.705 -22.608  0.00  0.00    +0.040 A 
ATOM     11  C   UNL     1      32.785 -13.627 -23.365  0.00  0.00    +0.050 A 
ATOM     12  C   UNL     1      33.022 -14.695 -21.214  0.00  0.00    +0.003 C 
ATOM     13  C   UNL     1      32.106 -12.544 -22.786  0.00  0.00    +0.008 C 
ATOM     14  C   UNL     1      32.347 -13.621 -20.628  0.00  0.00    +0.000 C 
ATOM     15  C   UNL     1      31.896 -12.560 -21.405  0.00  0.00    +0.001 C 
ATOM     16  H   UNL     1      36.152 -19.337 -22.180  0.00  0.00    -0.080 HD
ENDROOT
BRANCH   2  17
ATOM     17  C   UNL     1      35.166 -20.331 -20.713  0.00  0.00    -0.077 C 
BRANCH  17  18
ATOM     18  C   UNL     1      33.708 -20.769 -20.586  0.00  0.00    -0.021 C 
BRANCH  18  19
ATOM     19  C   UNL     1      33.415 -21.316 -19.185  0.00  0.00    +0.020 C 
BRANCH  19  20
ATOM     20  C   UNL     1      34.111 -22.647 -18.919  0.00  0.00    +0.101 C 
BRANCH  20  23
ATOM     21  O   UNL     1      36.815 -22.115 -17.844  0.00  0.00    -0.274 OA
ATOM     22  O   UNL     1      32.599 -23.513 -16.560  0.00  0.00    -0.274 OA
ATOM     23  N   UNL     1      34.582 -22.761 -17.553  0.00  0.00    -0.230 N 
ATOM     24  C   UNL     1      35.860 -22.490 -15.637  0.00  0.00    +0.086 C 
ATOM     25  C   UNL     1      34.679 -23.414 -15.318  0.00  0.00    +0.086 C 
ATOM     26  C   UNL     1      37.196 -22.863 -15.006  0.00  0.00    +0.010 C 
ATOM     27  C   UNL     1      35.041 -24.899 -15.208  0.00  0.00    +0.010 C 
ATOM     28  C   UNL     1      37.479 -24.359 -15.029  0.00  0.00    +0.001 C 
ATOM     29  C   UNL     1      36.321 -25.140 -14.422  0.00  0.00    +0.001 C 
ATOM     30  C   UNL     1      35.865 -22.441 -17.150  0.00  0.00    +0.231 C 
ATOM     31  C   UNL     1      33.786 -23.225 -16.523  0.00  0.00    +0.231 C 
ENDBRANCH  20  23
ENDBRANCH  19  20
ENDBRANCH  18  19
ENDBRANCH  17  18
ENDBRANCH   2  17
TORSDOF 5
ENDMDL
MODEL 3
REMARK VINA RESULT:     -10.9      5.179     12.314
REMARK  Name = 115368
REMARK  5 active torsions:
REMARK  status: ('A' for Active; 'I' for Inactive)
REMARK    1  A    between atoms: N_2  and  C_17
REMARK    2  A    between atoms: C_17  and  C_18
REMARK    3  A    between atoms: C_18  and  C_19
REMARK    4  A    between atoms: C_19  and  C_20
REMARK    5  A    between atoms: C_20  and  N_23
REMARK                            x       y       z     vdW  Elec       q    Type
REMARK                         _______ _______ _______ _____ _____    ______ ____
ROOT
ATOM      1  S   UNL     1      34.378 -17.352 -25.121  0.00  0.00    +0.014 S 
ATOM      2  N   UNL     1      32.861 -11.044 -23.813  0.00  0.00    +0.389 N 
ATOM      3  N   UNL     1      33.432 -13.819 -24.183  0.00  0.00    -0.297 N 
ATOM      4  N   UNL     1      33.833 -15.818 -25.423  0.00  0.00    -0.194 NA
ATOM      5  C   UNL     1      32.572 -12.015 -22.751  0.00  0.00    -0.055 C 
ATOM      6  C   UNL     1      34.037 -11.471 -24.584  0.00  0.00    -0.055 C 
ATOM      7  C   UNL     1      32.313 -13.410 -23.328  0.00  0.00    +0.069 C 
ATOM      8  C   UNL     1      33.798 -12.843 -25.216  0.00  0.00    +0.069 C 
ATOM      9  C   UNL     1      33.832 -15.134 -24.277  0.00  0.00    +0.140 A 
ATOM     10  C   UNL     1      34.276 -15.831 -23.100  0.00  0.00    +0.040 A 
ATOM     11  C   UNL     1      34.630 -17.140 -23.433  0.00  0.00    +0.050 A 
ATOM     12  C   UNL     1      34.400 -15.422 -21.753  0.00  0.00    +0.003 C 
ATOM     13  C   UNL     1      35.101 -18.053 -22.477  0.00  0.00    +0.008 C 
ATOM     14  C   UNL     1      34.869 -16.324 -20.794  0.00  0.00    +0.000 C 
ATOM     15  C   UNL     1      35.213 -17.623 -21.153  0.00  0.00    +0.001 C 
ATOM     16  H   UNL     1      32.058 -10.999 -24.442  0.00  0.00    -0.080 HD
ENDROOT
BRANCH   2  17
ATOM     17  C   UNL     1      33.072  -9.711 -23.248  0.00  0.00    -0.077 C 
BRANCH  17  18
ATOM     18  C   UNL     1      31.739  -9.094 -22.829  0.00  0.00    -0.021 C 
BRANCH  18  19
ATOM     19  C   UNL     1      31.913  -8.176 -21.614  0.00  0.00    +0.020 C 
BRANCH  19  20
ATOM     20  C   UNL     1      32.728  -6.928 -21.934  0.00  0.00    +0.101 C 
BRANCH  20  23
ATOM     21  O   UNL     1      34.027  -6.638 -24.577  0.00  0.00    -0.274 OA
ATOM     22  O   UNL     1      30.222  -5.437 -22.239  0.00  0.00    -0.274 OA
ATOM     23  N   UNL     1      32.242  -6.237 -23.111  0.00  0.00    -0.230 N 
ATOM     24  C   UNL     1      31.965  -5.578 -25.318  0.00  0.00    +0.086 C 
ATOM     25  C   UNL     1      31.006  -4.770 -24.436  0.00  0.00    +0.086 C 
ATOM     26  C   UNL     1      32.641  -4.815 -26.451  0.00  0.00    +0.010 C 
ATOM     27  C   UNL     1      31.438  -3.323 -24.180  0.00  0.00    +0.010 C 
ATOM     28  C   UNL     1      33.098  -3.419 -26.052  0.00  0.00    +0.001 C 
ATOM     29  C   UNL     1      31.953  -2.629 -25.432  0.00  0.00    +0.001 C 
ATOM     30  C   UNL     1      32.916  -6.202 -24.318  0.00  0.00    +0.231 C 
ATOM     31  C   UNL     1      31.058  -5.525 -23.127  0.00  0.00    +0.231 C 
ENDBRANCH  20  23
ENDBRANCH  19  20
ENDBRANCH  18  19
ENDBRANCH  17  18
ENDBRANCH   2  17
TORSDOF 5
ENDMDL
MODEL 4
REMARK VINA RESULT:     -10.9      4.746     12.064
REMARK  Name = 115368
REMARK  5 active torsions:
REMARK  status: ('A' for Active; 'I' for Inactive)
REMARK    1  A    between atoms: N_2  and  C_17
REMARK    2  A    between atoms: C_17  and  C_18
REMARK    3  A    between atoms: C_18  and  C_19
REMARK    4  A    between atoms: C_19  and  C_20
REMARK    5  A    between atoms: C_20  and  N_23
REMARK                            x       y       z     vdW  Elec       q    Type
REMARK                         _______ _______ _______ _____ _____    ______ ____
ROOT
ATOM      1  S   UNL     1      36.505 -24.798 -12.159  0.00  0.00    +0.014 S 
ATOM      2  N   UNL     1      35.166 -21.983 -17.998  0.00  0.00    +0.389 N 
ATOM      3  N   UNL     1      35.951 -23.134 -15.503  0.00  0.00    -0.297 N 
ATOM      4  N   UNL     1      35.647 -23.922 -13.271  0.00  0.00    -0.194 NA
ATOM      5  C   UNL     1      36.568 -21.946 -17.565  0.00  0.00    -0.055 C 
ATOM      6  C   UNL     1      34.512 -23.199 -17.495  0.00  0.00    -0.055 C 
ATOM      7  C   UNL     1      36.680 -21.980 -16.038  0.00  0.00    +0.069 C 
ATOM      8  C   UNL     1      34.563 -23.246 -15.967  0.00  0.00    +0.069 C 
ATOM      9  C   UNL     1      36.380 -23.808 -14.381  0.00  0.00    +0.140 A 
ATOM     10  C   UNL     1      37.677 -24.429 -14.373  0.00  0.00    +0.040 A 
ATOM     11  C   UNL     1      37.895 -25.050 -13.141  0.00  0.00    +0.050 A 
ATOM     12  C   UNL     1      38.692 -24.503 -15.353  0.00  0.00    +0.003 C 
ATOM     13  C   UNL     1      39.083 -25.737 -12.850  0.00  0.00    +0.008 C 
ATOM     14  C   UNL     1      39.879 -25.186 -15.073  0.00  0.00    +0.000 C 
ATOM     15  C   UNL     1      40.070 -25.794 -13.837  0.00  0.00    +0.001 C 
ATOM     16  H   UNL     1      34.683 -21.171 -17.612  0.00  0.00    -0.080 HD
ENDROOT
BRANCH   2  17
ATOM     17  C   UNL     1      35.075 -21.917 -19.456  0.00  0.00    -0.077 C 
BRANCH  17  18
ATOM     18  C   UNL     1      34.144 -20.782 -19.880  0.00  0.00    -0.021 C 
BRANCH  18  19
ATOM     19  C   UNL     1      34.816 -19.871 -20.912  0.00  0.00    +0.020 C 
BRANCH  19  20
ATOM     20  C   UNL     1      33.841 -19.362 -21.969  0.00  0.00    +0.101 C 
BRANCH  20  23
ATOM     21  O   UNL     1      33.578 -16.582 -20.991  0.00  0.00    -0.274 OA
ATOM     22  O   UNL     1      35.206 -19.051 -24.545  0.00  0.00    -0.274 OA
ATOM     23  N   UNL     1      34.294 -18.135 -22.593  0.00  0.00    -0.230 N 
ATOM     24  C   UNL     1      34.952 -15.931 -22.891  0.00  0.00    +0.086 C 
ATOM     25  C   UNL     1      35.011 -16.652 -24.242  0.00  0.00    +0.086 C 
ATOM     26  C   UNL     1      34.428 -14.500 -22.914  0.00  0.00    +0.010 C 
ATOM     27  C   UNL     1      33.861 -16.316 -25.197  0.00  0.00    +0.010 C 
ATOM     28  C   UNL     1      33.234 -14.308 -23.838  0.00  0.00    +0.001 C 
ATOM     29  C   UNL     1      33.540 -14.829 -25.236  0.00  0.00    +0.001 C 
ATOM     30  C   UNL     1      34.158 -16.883 -22.022  0.00  0.00    +0.231 C 
ATOM     31  C   UNL     1      34.890 -18.105 -23.839  0.00  0.00    +0.231 C 
ENDBRANCH  20  23
ENDBRANCH  19  20
ENDBRANCH  18  19
ENDBRANCH  17  18
ENDBRANCH   2  17
TORSDOF 5
ENDMDL
MODEL 5
REMARK VINA RESULT:     -10.9      4.118      7.053
REMARK  Name = 115368
REMARK  5 active torsions:
REMARK  status: ('A' for Active; 'I' for Inactive)
REMARK    1  A    between atoms: N_2  and  C_17
REMARK    2  A    between atoms: C_17  and  C_18
REMARK    3  A    between atoms: C_18  and  C_19
REMARK    4  A    between atoms: C_19  and  C_20
REMARK    5  A    between atoms: C_20  and  N_23
REMARK                            x       y       z     vdW  Elec       q    Type
REMARK                         _______ _______ _______ _____ _____    ______ ____
ROOT
ATOM      1  S   UNL     1      30.985  -2.602 -23.808  0.00  0.00    +0.014 S 
ATOM      2  N   UNL     1      31.647  -8.915 -21.930  0.00  0.00    +0.389 N 
ATOM      3  N   UNL     1      31.355  -6.260 -22.947  0.00  0.00    -0.297 N 
ATOM      4  N   UNL     1      30.737  -3.957 -22.887  0.00  0.00    -0.194 NA
ATOM      5  C   UNL     1      31.600  -8.670 -23.377  0.00  0.00    -0.055 C 
ATOM      6  C   UNL     1      32.271  -7.777 -21.243  0.00  0.00    -0.055 C 
ATOM      7  C   UNL     1      30.812  -7.397 -23.699  0.00  0.00    +0.069 C 
ATOM      8  C   UNL     1      31.483  -6.492 -21.504  0.00  0.00    +0.069 C 
ATOM      9  C   UNL     1      31.364  -4.984 -23.464  0.00  0.00    +0.140 A 
ATOM     10  C   UNL     1      32.074  -4.714 -24.686  0.00  0.00    +0.040 A 
ATOM     11  C   UNL     1      31.946  -3.363 -25.016  0.00  0.00    +0.050 A 
ATOM     12  C   UNL     1      32.828  -5.547 -25.541  0.00  0.00    +0.003 C 
ATOM     13  C   UNL     1      32.539  -2.814 -26.163  0.00  0.00    +0.008 C 
ATOM     14  C   UNL     1      33.424  -5.009 -26.686  0.00  0.00    +0.000 C 
ATOM     15  C   UNL     1      33.279  -3.660 -26.991  0.00  0.00    +0.001 C 
ATOM     16  H   UNL     1      30.693  -9.020 -21.586  0.00  0.00    -0.080 HD
ENDROOT
BRANCH   2  17
ATOM     17  C   UNL     1      32.375 -10.151 -21.642  0.00  0.00    -0.077 C 
BRANCH  17  18
ATOM     18  C   UNL     1      31.573 -11.363 -22.114  0.00  0.00    -0.021 C 
BRANCH  18  19
ATOM     19  C   UNL     1      32.476 -12.388 -22.807  0.00  0.00    +0.020 C 
BRANCH  19  20
ATOM     20  C   UNL     1      32.383 -13.773 -22.175  0.00  0.00    +0.101 C 
BRANCH  20  23
ATOM     21  O   UNL     1      32.841 -14.793 -24.915  0.00  0.00    -0.274 OA
ATOM     22  O   UNL     1      34.515 -15.041 -20.611  0.00  0.00    -0.274 OA
ATOM     23  N   UNL     1      33.421 -14.667 -22.648  0.00  0.00    -0.230 N 
ATOM     24  C   UNL     1      34.888 -15.788 -24.052  0.00  0.00    +0.086 C 
ATOM     25  C   UNL     1      35.111 -16.272 -22.615  0.00  0.00    +0.086 C 
ATOM     26  C   UNL     1      34.951 -16.855 -25.138  0.00  0.00    +0.010 C 
ATOM     27  C   UNL     1      34.530 -17.656 -22.308  0.00  0.00    +0.010 C 
ATOM     28  C   UNL     1      34.269 -18.159 -24.747  0.00  0.00    +0.001 C 
ATOM     29  C   UNL     1      34.797 -18.668 -23.412  0.00  0.00    +0.001 C 
ATOM     30  C   UNL     1      33.570 -15.046 -23.969  0.00  0.00    +0.231 C 
ATOM     31  C   UNL     1      34.354 -15.243 -21.806  0.00  0.00    +0.231 C 
ENDBRANCH  20  23
ENDBRANCH  19  20
ENDBRANCH  18  19
ENDBRANCH  17  18
ENDBRANCH   2  17
TORSDOF 5
ENDMDL
MODEL 6
REMARK VINA RESULT:     -10.7      4.336     11.165
REMARK  Name = 115368
REMARK  5 active torsions:
REMARK  status: ('A' for Active; 'I' for Inactive)
REMARK    1  A    between atoms: N_2  and  C_17
REMARK    2  A    between atoms: C_17  and  C_18
REMARK    3  A    between atoms: C_18  and  C_19
REMARK    4  A    between atoms: C_19  and  C_20
REMARK    5  A    between atoms: C_20  and  N_23
REMARK                            x       y       z     vdW  Elec       q    Type
REMARK                         _______ _______ _______ _____ _____    ______ ____
ROOT
ATOM      1  S   UNL     1      32.560 -24.939 -13.578  0.00  0.00    +0.014 S 
ATOM      2  N   UNL     1      35.914 -22.033 -18.489  0.00  0.00    +0.389 N 
ATOM      3  N   UNL     1      34.303 -23.320 -16.510  0.00  0.00    -0.297 N 
ATOM      4  N   UNL     1      33.869 -24.557 -14.517  0.00  0.00    -0.194 NA
ATOM      5  C   UNL     1      34.554 -22.483 -18.809  0.00  0.00    -0.055 C 
ATOM      6  C   UNL     1      35.996 -21.631 -17.078  0.00  0.00    -0.055 C 
ATOM      7  C   UNL     1      34.137 -23.663 -17.926  0.00  0.00    +0.069 C 
ATOM      8  C   UNL     1      35.630 -22.800 -16.162  0.00  0.00    +0.069 C 
ATOM      9  C   UNL     1      33.455 -23.807 -15.540  0.00  0.00    +0.140 A 
ATOM     10  C   UNL     1      32.050 -23.511 -15.606  0.00  0.00    +0.040 A 
ATOM     11  C   UNL     1      31.392 -24.103 -14.526  0.00  0.00    +0.050 A 
ATOM     12  C   UNL     1      31.287 -22.763 -16.530  0.00  0.00    +0.003 C 
ATOM     13  C   UNL     1      30.008 -23.979 -14.334  0.00  0.00    +0.008 C 
ATOM     14  C   UNL     1      29.907 -22.634 -16.348  0.00  0.00    +0.000 C 
ATOM     15  C   UNL     1      29.277 -23.235 -15.264  0.00  0.00    +0.001 C 
ATOM     16  H   UNL     1      36.560 -22.807 -18.644  0.00  0.00    -0.080 HD
ENDROOT
BRANCH   2  17
ATOM     17  C   UNL     1      36.309 -20.928 -19.362  0.00  0.00    -0.077 C 
BRANCH  17  18
ATOM     18  C   UNL     1      35.195 -20.615 -20.360  0.00  0.00    -0.021 C 
BRANCH  18  19
ATOM     19  C   UNL     1      35.416 -19.253 -21.026  0.00  0.00    +0.020 C 
BRANCH  19  20
ATOM     20  C   UNL     1      34.174 -18.748 -21.754  0.00  0.00    +0.101 C 
BRANCH  20  23
ATOM     21  O   UNL     1      33.635 -15.911 -21.108  0.00  0.00    -0.274 OA
ATOM     22  O   UNL     1      35.353 -18.623 -24.436  0.00  0.00    -0.274 OA
ATOM     23  N   UNL     1      34.444 -17.569 -22.553  0.00  0.00    -0.230 N 
ATOM     24  C   UNL     1      34.818 -15.363 -23.163  0.00  0.00    +0.086 C 
ATOM     25  C   UNL     1      34.890 -16.242 -24.417  0.00  0.00    +0.086 C 
ATOM     26  C   UNL     1      34.127 -14.015 -23.325  0.00  0.00    +0.010 C 
ATOM     27  C   UNL     1      33.659 -16.162 -25.325  0.00  0.00    +0.010 C 
ATOM     28  C   UNL     1      32.871 -14.078 -24.183  0.00  0.00    +0.001 C 
ATOM     29  C   UNL     1      33.162 -14.738 -25.524  0.00  0.00    +0.001 C 
ATOM     30  C   UNL     1      34.190 -16.277 -22.132  0.00  0.00    +0.231 C 
ATOM     31  C   UNL     1      34.965 -17.634 -23.831  0.00  0.00    +0.231 C 
ENDBRANCH  20  23
ENDBRANCH  19  20
ENDBRANCH  18  19
ENDBRANCH  17  18
ENDBRANCH   2  17
TORSDOF 5
ENDMDL
MODEL 7
REMARK VINA RESULT:     -10.7      2.872      4.956
REMARK  Name = 115368
REMARK  5 active torsions:
REMARK  status: ('A' for Active; 'I' for Inactive)
REMARK    1  A    between atoms: N_2  and  C_17
REMARK    2  A    between atoms: C_17  and  C_18
REMARK    3  A    between atoms: C_18  and  C_19
REMARK    4  A    between atoms: C_19  and  C_20
REMARK    5  A    between atoms: C_20  and  N_23
REMARK                            x       y       z     vdW  Elec       q    Type
REMARK                         _______ _______ _______ _____ _____    ______ ____
ROOT
ATOM      1  S   UNL     1      33.322 -14.345 -25.059  0.00  0.00    +0.014 S 
ATOM      2  N   UNL     1      35.366 -19.507 -21.454  0.00  0.00    +0.389 N 
ATOM      3  N   UNL     1      34.540 -17.150 -22.843  0.00  0.00    -0.297 N 
ATOM      4  N   UNL     1      34.060 -15.795 -24.748  0.00  0.00    -0.194 NA
ATOM      5  C   UNL     1      35.434 -18.193 -20.804  0.00  0.00    -0.055 C 
ATOM      6  C   UNL     1      34.240 -19.548 -22.397  0.00  0.00    -0.055 C 
ATOM      7  C   UNL     1      35.600 -17.071 -21.833  0.00  0.00    +0.069 C 
ATOM      8  C   UNL     1      34.394 -18.469 -23.469  0.00  0.00    +0.069 C 
ATOM      9  C   UNL     1      34.013 -16.023 -23.434  0.00  0.00    +0.140 A 
ATOM     10  C   UNL     1      33.374 -15.023 -22.620  0.00  0.00    +0.040 A 
ATOM     11  C   UNL     1      32.918 -13.980 -23.427  0.00  0.00    +0.050 A 
ATOM     12  C   UNL     1      33.152 -14.943 -21.227  0.00  0.00    +0.003 C 
ATOM     13  C   UNL     1      32.252 -12.863 -22.900  0.00  0.00    +0.008 C 
ATOM     14  C   UNL     1      32.490 -13.835 -20.692  0.00  0.00    +0.000 C 
ATOM     15  C   UNL     1      32.047 -12.808 -21.520  0.00  0.00    +0.001 C 
ATOM     16  H   UNL     1      36.231 -19.659 -21.974  0.00  0.00    -0.080 HD
ENDROOT
BRANCH   2  17
ATOM     17  C   UNL     1      35.241 -20.569 -20.456  0.00  0.00    -0.077 C 
BRANCH  17  18
ATOM     18  C   UNL     1      36.554 -20.739 -19.693  0.00  0.00    -0.021 C 
BRANCH  18  19
ATOM     19  C   UNL     1      36.499 -21.954 -18.762  0.00  0.00    +0.020 C 
BRANCH  19  20
ATOM     20  C   UNL     1      36.821 -21.598 -17.314  0.00  0.00    +0.101 C 
BRANCH  20  23
ATOM     21  O   UNL     1      34.187 -22.777 -16.660  0.00  0.00    -0.274 OA
ATOM     22  O   UNL     1      38.681 -23.110 -15.625  0.00  0.00    -0.274 OA
ATOM     23  N   UNL     1      36.513 -22.678 -16.398  0.00  0.00    -0.230 N 
ATOM     24  C   UNL     1      35.406 -24.426 -15.350  0.00  0.00    +0.086 C 
ATOM     25  C   UNL     1      36.747 -24.195 -14.643  0.00  0.00    +0.086 C 
ATOM     26  C   UNL     1      34.218 -24.744 -14.450  0.00  0.00    +0.010 C 
ATOM     27  C   UNL     1      36.644 -23.474 -13.295  0.00  0.00    +0.010 C 
ATOM     28  C   UNL     1      34.180 -23.907 -13.179  0.00  0.00    +0.001 C 
ATOM     29  C   UNL     1      35.504 -23.995 -12.432  0.00  0.00    +0.001 C 
ATOM     30  C   UNL     1      35.242 -23.184 -16.201  0.00  0.00    +0.231 C 
ATOM     31  C   UNL     1      37.473 -23.292 -15.615  0.00  0.00    +0.231 C 
ENDBRANCH  20  23
ENDBRANCH  19  20
ENDBRANCH  18  19
ENDBRANCH  17  18
ENDBRANCH   2  17
TORSDOF 5
ENDMDL
MODEL 8
REMARK VINA RESULT:     -10.7      1.428      2.253
REMARK  Name = 115368
REMARK  5 active torsions:
REMARK  status: ('A' for Active; 'I' for Inactive)
REMARK    1  A    between atoms: N_2  and  C_17
REMARK    2  A    between atoms: C_17  and  C_18
REMARK    3  A    between atoms: C_18  and  C_19
REMARK    4  A    between atoms: C_19  and  C_20
REMARK    5  A    between atoms: C_20  and  N_23
REMARK                            x       y       z     vdW  Elec       q    Type
REMARK                         _______ _______ _______ _____ _____    ______ ____
ROOT
ATOM      1  S   UNL     1      32.810  -9.715 -23.723  0.00  0.00    +0.014 S 
ATOM      2  N   UNL     1      34.444 -16.098 -24.362  0.00  0.00    +0.389 N 
ATOM      3  N   UNL     1      33.768 -13.365 -23.871  0.00  0.00    -0.297 N 
ATOM      4  N   UNL     1      33.528 -11.049 -24.393  0.00  0.00    -0.194 NA
ATOM      5  C   UNL     1      34.391 -15.575 -22.992  0.00  0.00    -0.055 C 
ATOM      6  C   UNL     1      33.461 -15.405 -25.207  0.00  0.00    -0.055 C 
ATOM      7  C   UNL     1      34.674 -14.070 -22.959  0.00  0.00    +0.069 C 
ATOM      8  C   UNL     1      33.740 -13.902 -25.237  0.00  0.00    +0.069 C 
ATOM      9  C   UNL     1      33.303 -12.097 -23.598  0.00  0.00    +0.140 A 
ATOM     10  C   UNL     1      32.536 -11.860 -22.405  0.00  0.00    +0.040 A 
ATOM     11  C   UNL     1      32.173 -10.513 -22.338  0.00  0.00    +0.050 A 
ATOM     12  C   UNL     1      32.120 -12.721 -21.365  0.00  0.00    +0.003 C 
ATOM     13  C   UNL     1      31.417  -9.994 -21.277  0.00  0.00    +0.008 C 
ATOM     14  C   UNL     1      31.365 -12.214 -20.304  0.00  0.00    +0.000 C 
ATOM     15  C   UNL     1      31.019 -10.868 -20.262  0.00  0.00    +0.001 C 
ATOM     16  H   UNL     1      35.376 -15.928 -24.741  0.00  0.00    -0.080 HD
ENDROOT
BRANCH   2  17
ATOM     17  C   UNL     1      34.204 -17.541 -24.372  0.00  0.00    -0.077 C 
BRANCH  17  18
ATOM     18  C   UNL     1      35.016 -18.222 -23.272  0.00  0.00    -0.021 C 
BRANCH  18  19
ATOM     19  C   UNL     1      34.132 -19.135 -22.417  0.00  0.00    +0.020 C 
BRANCH  19  20
ATOM     20  C   UNL     1      34.426 -19.007 -20.925  0.00  0.00    +0.101 C 
BRANCH  20  23
ATOM     21  O   UNL     1      32.579 -20.976 -19.715  0.00  0.00    -0.274 OA
ATOM     22  O   UNL     1      37.065 -20.229 -20.550  0.00  0.00    -0.274 OA
ATOM     23  N   UNL     1      34.736 -20.283 -20.312  0.00  0.00    -0.230 N 
ATOM     24  C   UNL     1      34.512 -22.435 -19.478  0.00  0.00    +0.086 C 
ATOM     25  C   UNL     1      35.962 -21.976 -19.280  0.00  0.00    +0.086 C 
ATOM     26  C   UNL     1      33.899 -23.237 -18.336  0.00  0.00    +0.010 C 
ATOM     27  C   UNL     1      36.317 -21.581 -17.843  0.00  0.00    +0.010 C 
ATOM     28  C   UNL     1      34.260 -22.700 -16.957  0.00  0.00    +0.001 C 
ATOM     29  C   UNL     1      35.768 -22.553 -16.809  0.00  0.00    +0.001 C 
ATOM     30  C   UNL     1      33.783 -21.152 -19.814  0.00  0.00    +0.231 C 
ATOM     31  C   UNL     1      36.030 -20.740 -20.149  0.00  0.00    +0.231 C 
ENDBRANCH  20  23
ENDBRANCH  19  20
ENDBRANCH  18  19
ENDBRANCH  17  18
ENDBRANCH   2  17
TORSDOF 5
ENDMDL
MODEL 9
REMARK VINA RESULT:     -10.5      3.689      6.316
REMARK  Name = 115368
REMARK  5 active torsions:
REMARK  status: ('A' for Active; 'I' for Inactive)
REMARK    1  A    between atoms: N_2  and  C_17
REMARK    2  A    between atoms: C_17  and  C_18
REMARK    3  A    between atoms: C_18  and  C_19
REMARK    4  A    between atoms: C_19  and  C_20
REMARK    5  A    between atoms: C_20  and  N_23
REMARK                            x       y       z     vdW  Elec       q    Type
REMARK                         _______ _______ _______ _____ _____    ______ ____
ROOT
ATOM      1  S   UNL     1      34.623  -5.699 -26.077  0.00  0.00    +0.014 S 
ATOM      2  N   UNL     1      32.498 -10.169 -21.682  0.00  0.00    +0.389 N 
ATOM      3  N   UNL     1      33.322  -8.085 -23.456  0.00  0.00    -0.297 N 
ATOM      4  N   UNL     1      34.690  -7.041 -25.109  0.00  0.00    -0.194 NA
ATOM      5  C   UNL     1      32.109  -8.776 -21.431  0.00  0.00    -0.055 C 
ATOM      6  C   UNL     1      32.605 -10.413 -23.127  0.00  0.00    -0.055 C 
ATOM      7  C   UNL     1      33.124  -7.799 -22.031  0.00  0.00    +0.069 C 
ATOM      8  C   UNL     1      33.646  -9.485 -23.755  0.00  0.00    +0.069 C 
ATOM      9  C   UNL     1      33.580  -7.087 -24.369  0.00  0.00    +0.140 A 
ATOM     10  C   UNL     1      32.625  -6.028 -24.558  0.00  0.00    +0.040 A 
ATOM     11  C   UNL     1      33.093  -5.138 -25.526  0.00  0.00    +0.050 A 
ATOM     12  C   UNL     1      31.373  -5.770 -23.956  0.00  0.00    +0.003 C 
ATOM     13  C   UNL     1      32.364  -4.004 -25.915  0.00  0.00    +0.008 C 
ATOM     14  C   UNL     1      30.638  -4.644 -24.337  0.00  0.00    +0.000 C 
ATOM     15  C   UNL     1      31.129  -3.773 -25.303  0.00  0.00    +0.001 C 
ATOM     16  H   UNL     1      33.410 -10.335 -21.256  0.00  0.00    -0.080 HD
ENDROOT
BRANCH   2  17
ATOM     17  C   UNL     1      31.536 -11.089 -21.075  0.00  0.00    -0.077 C 
BRANCH  17  18
ATOM     18  C   UNL     1      31.693 -12.488 -21.667  0.00  0.00    -0.021 C 
BRANCH  18  19
ATOM     19  C   UNL     1      32.787 -13.277 -20.939  0.00  0.00    +0.020 C 
BRANCH  19  20
ATOM     20  C   UNL     1      32.583 -14.785 -21.033  0.00  0.00    +0.101 C 
BRANCH  20  23
ATOM     21  O   UNL     1      32.786 -14.903 -23.983  0.00  0.00    -0.274 OA
ATOM     22  O   UNL     1      34.906 -16.331 -20.129  0.00  0.00    -0.274 OA
ATOM     23  N   UNL     1      33.595 -15.429 -21.847  0.00  0.00    -0.230 N 
ATOM     24  C   UNL     1      34.942 -15.983 -23.652  0.00  0.00    +0.086 C 
ATOM     25  C   UNL     1      35.329 -16.862 -22.457  0.00  0.00    +0.086 C 
ATOM     26  C   UNL     1      34.927 -16.667 -25.013  0.00  0.00    +0.010 C 
ATOM     27  C   UNL     1      34.828 -18.308 -22.537  0.00  0.00    +0.010 C 
ATOM     28  C   UNL     1      34.331 -18.068 -24.980  0.00  0.00    +0.001 C 
ATOM     29  C   UNL     1      35.011 -18.921 -23.917  0.00  0.00    +0.001 C 
ATOM     30  C   UNL     1      33.618 -15.383 -23.229  0.00  0.00    +0.231 C 
ATOM     31  C   UNL     1      34.627 -16.173 -21.309  0.00  0.00    +0.231 C 
ENDBRANCH  20  23
ENDBRANCH  19  20
ENDBRANCH  18  19
ENDBRANCH  17  18
ENDBRANCH   2  17
TORSDOF 5
ENDMDL
