MODEL 1
REMARK VINA RESULT:      -8.0      0.000      0.000
REMARK  Name = 5419
REMARK  1 active torsions:
REMARK  status: ('A' for Active; 'I' for Inactive)
REMARK    1  A    between atoms: C_1  and  C_13
REMARK                            x       y       z     vdW  Elec       q    Type
REMARK                         _______ _______ _______ _____ _____    ______ ____
ROOT
ATOM      1  C   UNL     1      35.099 -17.048 -21.499  0.00  0.00    +0.076 C 
ATOM      2  C   UNL     1      34.798 -15.983 -20.439  0.00  0.00    +0.012 C 
ATOM      3  C   UNL     1      33.416 -15.366 -20.632  0.00  0.00    +0.005 C 
ATOM      4  C   UNL     1      34.672 -16.653 -22.896  0.00  0.00    -0.020 C 
ATOM      5  C   UNL     1      33.314 -14.696 -21.998  0.00  0.00    +0.026 C 
ATOM      6  C   UNL     1      33.806 -15.568 -23.126  0.00  0.00    -0.026 C 
ATOM      7  C   UNL     1      35.137 -17.401 -23.991  0.00  0.00    -0.004 C 
ATOM      8  C   UNL     1      33.438 -15.245 -24.441  0.00  0.00    -0.005 C 
ATOM      9  C   UNL     1      34.755 -17.076 -25.292  0.00  0.00    -0.000 C 
ATOM     10  C   UNL     1      33.906 -15.998 -25.517  0.00  0.00    -0.000 C 
ENDROOT
BRANCH   1  13
ATOM     11  N   UNL     1      35.215 -19.380 -20.621  0.00  0.00    -0.299 N 
ATOM     12  N   UNL     1      33.173 -18.544 -21.178  0.00  0.00    -0.232 NA
ATOM     13  C   UNL     1      34.466 -18.350 -21.103  0.00  0.00    +0.113 C 
ATOM     14  C   UNL     1      34.371 -20.485 -20.280  0.00  0.00    +0.084 C 
ATOM     15  C   UNL     1      32.992 -19.945 -20.691  0.00  0.00    +0.116 C 
ATOM     16  H   UNL     1      36.195 -19.367 -20.521  0.00  0.00    +0.153 HD
ENDBRANCH   1  13
TORSDOF 1
ENDMDL
MODEL 2
REMARK VINA RESULT:      -7.8      8.258     10.004
REMARK  Name = 5419
REMARK  1 active torsions:
REMARK  status: ('A' for Active; 'I' for Inactive)
REMARK    1  A    between atoms: C_1  and  C_13
REMARK                            x       y       z     vdW  Elec       q    Type
REMARK                         _______ _______ _______ _____ _____    ______ ____
ROOT
ATOM      1  C   UNL     1      32.581  -7.143 -21.562  0.00  0.00    +0.076 C 
ATOM      2  C   UNL     1      31.488  -6.187 -21.068  0.00  0.00    +0.012 C 
ATOM      3  C   UNL     1      30.488  -5.852 -22.170  0.00  0.00    +0.005 C 
ATOM      4  C   UNL     1      33.107  -6.804 -22.939  0.00  0.00    -0.020 C 
ATOM      5  C   UNL     1      31.189  -5.181 -23.346  0.00  0.00    +0.026 C 
ATOM      6  C   UNL     1      32.433  -5.907 -23.790  0.00  0.00    -0.026 C 
ATOM      7  C   UNL     1      34.289  -7.417 -23.390  0.00  0.00    -0.004 C 
ATOM      8  C   UNL     1      32.963  -5.630 -25.060  0.00  0.00    -0.005 C 
ATOM      9  C   UNL     1      34.799  -7.141 -24.658  0.00  0.00    -0.000 C 
ATOM     10  C   UNL     1      34.135  -6.247 -25.492  0.00  0.00    -0.000 C 
ENDROOT
BRANCH   1  13
ATOM     11  N   UNL     1      32.048  -9.264 -20.361  0.00  0.00    -0.299 N 
ATOM     12  N   UNL     1      31.608  -9.153 -22.592  0.00  0.00    -0.232 NA
ATOM     13  C   UNL     1      32.072  -8.554 -21.524  0.00  0.00    +0.113 C 
ATOM     14  C   UNL     1      31.482 -10.559 -20.588  0.00  0.00    +0.084 C 
ATOM     15  C   UNL     1      31.218 -10.511 -22.101  0.00  0.00    +0.116 C 
ATOM     16  H   UNL     1      32.372  -8.935 -19.492  0.00  0.00    +0.153 HD
ENDBRANCH   1  13
TORSDOF 1
ENDMDL
MODEL 3
REMARK VINA RESULT:      -7.8      3.428      5.345
REMARK  Name = 5419
REMARK  1 active torsions:
REMARK  status: ('A' for Active; 'I' for Inactive)
REMARK    1  A    between atoms: C_1  and  C_13
REMARK                            x       y       z     vdW  Elec       q    Type
REMARK                         _______ _______ _______ _____ _____    ______ ____
ROOT
ATOM      1  C   UNL     1      32.554 -13.822 -22.831  0.00  0.00    +0.076 C 
ATOM      2  C   UNL     1      32.665 -14.019 -21.315  0.00  0.00    +0.012 C 
ATOM      3  C   UNL     1      34.091 -14.354 -20.890  0.00  0.00    +0.005 C 
ATOM      4  C   UNL     1      33.328 -14.845 -23.634  0.00  0.00    -0.020 C 
ATOM      5  C   UNL     1      34.562 -15.642 -21.556  0.00  0.00    +0.026 C 
ATOM      6  C   UNL     1      34.296 -15.676 -23.039  0.00  0.00    -0.026 C 
ATOM      7  C   UNL     1      33.089 -14.953 -25.016  0.00  0.00    -0.004 C 
ATOM      8  C   UNL     1      34.988 -16.606 -23.831  0.00  0.00    -0.005 C 
ATOM      9  C   UNL     1      33.792 -15.874 -25.792  0.00  0.00    -0.000 C 
ATOM     10  C   UNL     1      34.741 -16.700 -25.199  0.00  0.00    -0.000 C 
ENDROOT
BRANCH   1  13
ATOM     11  N   UNL     1      34.084 -12.213 -23.968  0.00  0.00    -0.299 N 
ATOM     12  N   UNL     1      32.316 -11.375 -22.806  0.00  0.00    -0.232 NA
ATOM     13  C   UNL     1      32.986 -12.431 -23.194  0.00  0.00    +0.113 C 
ATOM     14  C   UNL     1      34.253 -10.810 -24.199  0.00  0.00    +0.084 C 
ATOM     15  C   UNL     1      33.085 -10.230 -23.385  0.00  0.00    +0.116 C 
ATOM     16  H   UNL     1      34.678 -12.917 -24.318  0.00  0.00    +0.153 HD
ENDBRANCH   1  13
TORSDOF 1
ENDMDL
MODEL 4
REMARK VINA RESULT:      -7.6      6.694      8.822
REMARK  Name = 5419
REMARK  1 active torsions:
REMARK  status: ('A' for Active; 'I' for Inactive)
REMARK    1  A    between atoms: C_1  and  C_13
REMARK                            x       y       z     vdW  Elec       q    Type
REMARK                         _______ _______ _______ _____ _____    ______ ____
ROOT
ATOM      1  C   UNL     1      35.428 -22.927 -15.371  0.00  0.00    +0.076 C 
ATOM      2  C   UNL     1      34.032 -23.187 -14.794  0.00  0.00    +0.012 C 
ATOM      3  C   UNL     1      33.153 -23.968 -15.766  0.00  0.00    +0.005 C 
ATOM      4  C   UNL     1      35.417 -22.516 -16.826  0.00  0.00    -0.020 C 
ATOM      5  C   UNL     1      32.976 -23.196 -17.068  0.00  0.00    +0.026 C 
ATOM      6  C   UNL     1      34.273 -22.674 -17.632  0.00  0.00    -0.026 C 
ATOM      7  C   UNL     1      36.586 -21.980 -17.396  0.00  0.00    -0.004 C 
ATOM      8  C   UNL     1      34.317 -22.280 -18.978  0.00  0.00    -0.005 C 
ATOM      9  C   UNL     1      36.619 -21.602 -18.737  0.00  0.00    -0.000 C 
ATOM     10  C   UNL     1      35.484 -21.752 -19.528  0.00  0.00    -0.000 C 
ENDROOT
BRANCH   1  13
ATOM     11  N   UNL     1      37.511 -24.045 -14.572  0.00  0.00    -0.299 N 
ATOM     12  N   UNL     1      35.903 -25.334 -15.538  0.00  0.00    -0.232 NA
ATOM     13  C   UNL     1      36.291 -24.139 -15.172  0.00  0.00    +0.113 C 
ATOM     14  C   UNL     1      38.108 -25.341 -14.468  0.00  0.00    +0.084 C 
ATOM     15  C   UNL     1      37.047 -26.217 -15.154  0.00  0.00    +0.116 C 
ATOM     16  H   UNL     1      37.922 -23.207 -14.258  0.00  0.00    +0.153 HD
ENDBRANCH   1  13
TORSDOF 1
ENDMDL
MODEL 5
REMARK VINA RESULT:      -7.5      6.608      8.784
REMARK  Name = 5419
REMARK  1 active torsions:
REMARK  status: ('A' for Active; 'I' for Inactive)
REMARK    1  A    between atoms: C_1  and  C_13
REMARK                            x       y       z     vdW  Elec       q    Type
REMARK                         _______ _______ _______ _____ _____    ______ ____
ROOT
ATOM      1  C   UNL     1      31.909  -9.150 -22.975  0.00  0.00    +0.076 C 
ATOM      2  C   UNL     1      31.887  -7.618 -22.912  0.00  0.00    +0.012 C 
ATOM      3  C   UNL     1      32.747  -7.087 -21.769  0.00  0.00    +0.005 C 
ATOM      4  C   UNL     1      31.805  -9.816 -21.621  0.00  0.00    -0.020 C 
ATOM      5  C   UNL     1      32.242  -7.610 -20.429  0.00  0.00    +0.026 C 
ATOM      6  C   UNL     1      31.995  -9.097 -20.426  0.00  0.00    -0.026 C 
ATOM      7  C   UNL     1      31.532 -11.194 -21.555  0.00  0.00    -0.004 C 
ATOM      8  C   UNL     1      31.891  -9.764 -19.195  0.00  0.00    -0.005 C 
ATOM      9  C   UNL     1      31.442 -11.846 -20.326  0.00  0.00    -0.000 C 
ATOM     10  C   UNL     1      31.621 -11.131 -19.146  0.00  0.00    -0.000 C 
ENDROOT
BRANCH   1  13
ATOM     11  N   UNL     1      33.163 -10.784 -24.383  0.00  0.00    -0.299 N 
ATOM     12  N   UNL     1      34.240  -8.893 -23.716  0.00  0.00    -0.232 NA
ATOM     13  C   UNL     1      33.144  -9.609 -23.695  0.00  0.00    +0.113 C 
ATOM     14  C   UNL     1      34.438 -10.967 -25.009  0.00  0.00    +0.084 C 
ATOM     15  C   UNL     1      35.188  -9.713 -24.531  0.00  0.00    +0.116 C 
ATOM     16  H   UNL     1      32.411 -11.417 -24.440  0.00  0.00    +0.153 HD
ENDBRANCH   1  13
TORSDOF 1
ENDMDL
MODEL 6
REMARK VINA RESULT:      -7.5      2.285      5.276
REMARK  Name = 5419
REMARK  1 active torsions:
REMARK  status: ('A' for Active; 'I' for Inactive)
REMARK    1  A    between atoms: C_1  and  C_13
REMARK                            x       y       z     vdW  Elec       q    Type
REMARK                         _______ _______ _______ _____ _____    ______ ____
ROOT
ATOM      1  C   UNL     1      34.920 -18.300 -21.451  0.00  0.00    +0.076 C 
ATOM      2  C   UNL     1      36.387 -17.953 -21.171  0.00  0.00    +0.012 C 
ATOM      3  C   UNL     1      37.283 -19.186 -21.230  0.00  0.00    +0.005 C 
ATOM      4  C   UNL     1      34.455 -19.566 -20.766  0.00  0.00    -0.020 C 
ATOM      5  C   UNL     1      36.848 -20.215 -20.192  0.00  0.00    +0.026 C 
ATOM      6  C   UNL     1      35.364 -20.482 -20.205  0.00  0.00    -0.026 C 
ATOM      7  C   UNL     1      33.078 -19.846 -20.707  0.00  0.00    -0.004 C 
ATOM      8  C   UNL     1      34.880 -21.644 -19.583  0.00  0.00    -0.005 C 
ATOM      9  C   UNL     1      32.611 -21.009 -20.096  0.00  0.00    -0.000 C 
ATOM     10  C   UNL     1      33.512 -21.907 -19.534  0.00  0.00    -0.000 C 
ENDROOT
BRANCH   1  13
ATOM     11  N   UNL     1      34.504 -17.270 -23.685  0.00  0.00    -0.299 N 
ATOM     12  N   UNL     1      34.699 -19.535 -23.567  0.00  0.00    -0.232 NA
ATOM     13  C   UNL     1      34.695 -18.389 -22.933  0.00  0.00    +0.113 C 
ATOM     14  C   UNL     1      34.356 -17.624 -25.064  0.00  0.00    +0.084 C 
ATOM     15  C   UNL     1      34.445 -19.157 -24.992  0.00  0.00    +0.116 C 
ATOM     16  H   UNL     1      34.472 -16.351 -23.332  0.00  0.00    +0.153 HD
ENDBRANCH   1  13
TORSDOF 1
ENDMDL
MODEL 7
REMARK VINA RESULT:      -7.5      7.248      9.601
REMARK  Name = 5419
REMARK  1 active torsions:
REMARK  status: ('A' for Active; 'I' for Inactive)
REMARK    1  A    between atoms: C_1  and  C_13
REMARK                            x       y       z     vdW  Elec       q    Type
REMARK                         _______ _______ _______ _____ _____    ______ ____
ROOT
ATOM      1  C   UNL     1      36.178 -23.022 -14.571  0.00  0.00    +0.076 C 
ATOM      2  C   UNL     1      34.920 -23.418 -13.791  0.00  0.00    +0.012 C 
ATOM      3  C   UNL     1      34.003 -24.319 -14.613  0.00  0.00    +0.005 C 
ATOM      4  C   UNL     1      35.908 -22.655 -16.014  0.00  0.00    -0.020 C 
ATOM      5  C   UNL     1      33.551 -23.608 -15.884  0.00  0.00    +0.026 C 
ATOM      6  C   UNL     1      34.685 -22.962 -16.639  0.00  0.00    -0.026 C 
ATOM      7  C   UNL     1      36.912 -22.010 -16.756  0.00  0.00    -0.004 C 
ATOM      8  C   UNL     1      34.486 -22.602 -17.982  0.00  0.00    -0.005 C 
ATOM      9  C   UNL     1      36.706 -21.668 -18.092  0.00  0.00    -0.000 C 
ATOM     10  C   UNL     1      35.492 -21.964 -18.704  0.00  0.00    -0.000 C 
ENDROOT
BRANCH   1  13
ATOM     11  N   UNL     1      37.047 -25.272 -15.208  0.00  0.00    -0.299 N 
ATOM     12  N   UNL     1      38.268 -24.024 -13.748  0.00  0.00    -0.232 NA
ATOM     13  C   UNL     1      37.193 -24.125 -14.489  0.00  0.00    +0.113 C 
ATOM     14  C   UNL     1      38.165 -26.138 -14.985  0.00  0.00    +0.084 C 
ATOM     15  C   UNL     1      38.978 -25.322 -13.967  0.00  0.00    +0.116 C 
ATOM     16  H   UNL     1      36.284 -25.476 -15.796  0.00  0.00    +0.153 HD
ENDBRANCH   1  13
TORSDOF 1
ENDMDL
MODEL 8
REMARK VINA RESULT:      -7.4      1.453      3.304
REMARK  Name = 5419
REMARK  1 active torsions:
REMARK  status: ('A' for Active; 'I' for Inactive)
REMARK    1  A    between atoms: C_1  and  C_13
REMARK                            x       y       z     vdW  Elec       q    Type
REMARK                         _______ _______ _______ _____ _____    ______ ____
ROOT
ATOM      1  C   UNL     1      34.191 -18.754 -22.002  0.00  0.00    +0.076 C 
ATOM      2  C   UNL     1      34.192 -19.354 -23.413  0.00  0.00    +0.012 C 
ATOM      3  C   UNL     1      35.203 -18.663 -24.322  0.00  0.00    +0.005 C 
ATOM      4  C   UNL     1      34.267 -17.243 -21.984  0.00  0.00    -0.020 C 
ATOM      5  C   UNL     1      34.880 -17.178 -24.454  0.00  0.00    +0.026 C 
ATOM      6  C   UNL     1      34.623 -16.506 -23.129  0.00  0.00    -0.026 C 
ATOM      7  C   UNL     1      33.993 -16.558 -20.787  0.00  0.00    -0.004 C 
ATOM      8  C   UNL     1      34.681 -15.105 -23.058  0.00  0.00    -0.005 C 
ATOM      9  C   UNL     1      34.065 -15.167 -20.727  0.00  0.00    -0.000 C 
ATOM     10  C   UNL     1      34.409 -14.441 -21.863  0.00  0.00    -0.000 C 
ENDROOT
BRANCH   1  13
ATOM     11  N   UNL     1      35.128 -20.471 -20.453  0.00  0.00    -0.299 N 
ATOM     12  N   UNL     1      36.516 -18.831 -21.203  0.00  0.00    -0.232 NA
ATOM     13  C   UNL     1      35.313 -19.347 -21.200  0.00  0.00    +0.113 C 
ATOM     14  C   UNL     1      36.356 -20.851 -19.824  0.00  0.00    +0.084 C 
ATOM     15  C   UNL     1      37.293 -19.726 -20.291  0.00  0.00    +0.116 C 
ATOM     16  H   UNL     1      34.274 -20.952 -20.359  0.00  0.00    +0.153 HD
ENDBRANCH   1  13
TORSDOF 1
ENDMDL
MODEL 9
REMARK VINA RESULT:      -7.4      2.025      4.780
REMARK  Name = 5419
REMARK  1 active torsions:
REMARK  status: ('A' for Active; 'I' for Inactive)
REMARK    1  A    between atoms: C_1  and  C_13
REMARK                            x       y       z     vdW  Elec       q    Type
REMARK                         _______ _______ _______ _____ _____    ______ ____
ROOT
ATOM      1  C   UNL     1      35.202 -16.071 -23.692  0.00  0.00    +0.076 C 
ATOM      2  C   UNL     1      34.992 -16.281 -25.196  0.00  0.00    +0.012 C 
ATOM      3  C   UNL     1      33.890 -17.298 -25.478  0.00  0.00    +0.005 C 
ATOM      4  C   UNL     1      35.178 -17.354 -22.890  0.00  0.00    -0.020 C 
ATOM      5  C   UNL     1      34.239 -18.651 -24.869  0.00  0.00    +0.026 C 
ATOM      6  C   UNL     1      34.694 -18.558 -23.434  0.00  0.00    -0.026 C 
ATOM      7  C   UNL     1      35.633 -17.338 -21.560  0.00  0.00    -0.004 C 
ATOM      8  C   UNL     1      34.690 -19.720 -22.647  0.00  0.00    -0.005 C 
ATOM      9  C   UNL     1      35.614 -18.497 -20.785  0.00  0.00    -0.000 C 
ATOM     10  C   UNL     1      35.143 -19.688 -21.329  0.00  0.00    -0.000 C 
ENDROOT
BRANCH   1  13
ATOM     11  N   UNL     1      34.217 -13.786 -23.512  0.00  0.00    -0.299 N 
ATOM     12  N   UNL     1      33.201 -15.484 -22.387  0.00  0.00    -0.232 NA
ATOM     13  C   UNL     1      34.180 -15.104 -23.169  0.00  0.00    +0.113 C 
ATOM     14  C   UNL     1      33.115 -13.092 -22.918  0.00  0.00    +0.084 C 
ATOM     15  C   UNL     1      32.444 -14.223 -22.121  0.00  0.00    +0.116 C 
ATOM     16  H   UNL     1      34.902 -13.371 -24.085  0.00  0.00    +0.153 HD
ENDBRANCH   1  13
TORSDOF 1
ENDMDL
