MODEL 1
REMARK VINA RESULT:      -9.5      0.000      0.000
REMARK  Name = 25654
REMARK  10 active torsions:
REMARK  status: ('A' for Active; 'I' for Inactive)
REMARK    1  A    between atoms: N_1  and  C_4
REMARK    2  A    between atoms: N_1  and  C_20
REMARK    3  A    between atoms: C_4  and  C_5
REMARK    4  A    between atoms: C_5  and  C_6
REMARK    5  A    between atoms: C_6  and  N_9
REMARK    6  A    between atoms: C_20  and  C_21
REMARK    7  A    between atoms: C_21  and  C_22
REMARK    8  A    between atoms: C_21  and  O_32
REMARK    9  A    between atoms: C_25  and  O_28
REMARK   10  A    between atoms: C_26  and  O_30
REMARK                            x       y       z     vdW  Elec       q    Type
REMARK                         _______ _______ _______ _____ _____    ______ ____
ROOT
ATOM      1  N   UNL     1      34.131 -11.500 -24.322  0.00  0.00    +0.386 N 
ATOM      2  H   UNL     1      35.000 -11.844 -23.914  0.00  0.00    -0.084 HD
ATOM      3  H   UNL     1      33.350 -12.097 -24.050  0.00  0.00    -0.084 HD
ENDROOT
BRANCH   1   4
ATOM      4  C   UNL     1      34.246 -11.515 -25.775  0.00  0.00    -0.080 C 
BRANCH   4   5
ATOM      5  C   UNL     1      33.501 -12.716 -26.354  0.00  0.00    -0.006 C 
BRANCH   5   6
ATOM      6  C   UNL     1      32.794 -13.506 -25.253  0.00  0.00    +0.072 C 
BRANCH   6   9
ATOM      7  O   UNL     1      33.453 -13.628 -22.283  0.00  0.00    -0.272 OA
ATOM      8  O   UNL     1      35.472 -17.660 -20.984  0.00  0.00    -0.252 OA
ATOM      9  N   UNL     1      33.399 -14.797 -25.037  0.00  0.00    -0.240 NA
ATOM     10  N   UNL     1      34.899 -17.392 -23.223  0.00  0.00    -0.228 N 
ATOM     11  N   UNL     1      34.465 -15.639 -21.608  0.00  0.00    -0.211 N 
ATOM     12  N   UNL     1      34.188 -16.829 -25.510  0.00  0.00    -0.240 NA
ATOM     13  C   UNL     1      33.863 -15.312 -23.860  0.00  0.00    +0.192 C 
ATOM     14  C   UNL     1      34.339 -16.554 -24.177  0.00  0.00    +0.136 C 
ATOM     15  C   UNL     1      33.617 -15.747 -26.001  0.00  0.00    +0.203 C 
ATOM     16  C   UNL     1      33.885 -14.748 -22.549  0.00  0.00    +0.254 C 
ATOM     17  C   UNL     1      34.984 -16.958 -21.876  0.00  0.00    +0.318 C 
ATOM     18  C   UNL     1      35.396 -18.709 -23.602  0.00  0.00    +0.123 C 
ATOM     19  C   UNL     1      34.545 -15.173 -20.227  0.00  0.00    +0.124 C 
ENDBRANCH   6   9
ENDBRANCH   5   6
ENDBRANCH   4   5
ENDBRANCH   1   4
BRANCH   1  20
ATOM     20  C   UNL     1      33.878 -10.151 -23.835  0.00  0.00    -0.047 C 
BRANCH  20  21
ATOM     21  C   UNL     1      32.420 -10.001 -23.382  0.00  0.00    +0.112 C 
BRANCH  21  22
ATOM     22  C   UNL     1      32.201  -8.697 -22.644  0.00  0.00    +0.008 C 
ATOM     23  C   UNL     1      32.737  -8.541 -21.377  0.00  0.00    +0.035 C 
ATOM     24  C   UNL     1      31.470  -7.691 -23.251  0.00  0.00    +0.035 C 
ATOM     25  C   UNL     1      31.268  -6.491 -22.571  0.00  0.00    +0.136 C 
ATOM     26  C   UNL     1      32.534  -7.340 -20.697  0.00  0.00    +0.136 C 
ATOM     27  C   UNL     1      31.799  -6.315 -21.293  0.00  0.00    +0.073 C 
BRANCH  25  28
ATOM     28  O   UNL     1      30.551  -5.490 -23.154  0.00  0.00    -0.505 OA
ATOM     29  H   UNL     1      30.866  -4.609 -23.122  0.00  0.00    +0.292 HD
ENDBRANCH  25  28
BRANCH  26  30
ATOM     30  O   UNL     1      33.053  -7.168 -19.450  0.00  0.00    -0.505 OA
ATOM     31  H   UNL     1      33.181  -6.304 -19.111  0.00  0.00    +0.292 HD
ENDBRANCH  26  30
ENDBRANCH  21  22
BRANCH  21  32
ATOM     32  O   UNL     1      32.060 -11.072 -22.510  0.00  0.00    -0.382 OA
ATOM     33  H   UNL     1      32.107 -10.769 -21.590  0.00  0.00    +0.211 HD
ENDBRANCH  21  32
ENDBRANCH  20  21
ENDBRANCH   1  20
TORSDOF 10
ENDMDL
MODEL 2
REMARK VINA RESULT:      -9.5      0.053      1.570
REMARK  Name = 25654
REMARK  10 active torsions:
REMARK  status: ('A' for Active; 'I' for Inactive)
REMARK    1  A    between atoms: N_1  and  C_4
REMARK    2  A    between atoms: N_1  and  C_20
REMARK    3  A    between atoms: C_4  and  C_5
REMARK    4  A    between atoms: C_5  and  C_6
REMARK    5  A    between atoms: C_6  and  N_9
REMARK    6  A    between atoms: C_20  and  C_21
REMARK    7  A    between atoms: C_21  and  C_22
REMARK    8  A    between atoms: C_21  and  O_32
REMARK    9  A    between atoms: C_25  and  O_28
REMARK   10  A    between atoms: C_26  and  O_30
REMARK                            x       y       z     vdW  Elec       q    Type
REMARK                         _______ _______ _______ _____ _____    ______ ____
ROOT
ATOM      1  N   UNL     1      34.175 -11.447 -24.305  0.00  0.00    +0.386 N 
ATOM      2  H   UNL     1      35.038 -11.752 -23.857  0.00  0.00    -0.084 HD
ATOM      3  H   UNL     1      33.399 -12.049 -24.031  0.00  0.00    -0.084 HD
ENDROOT
BRANCH   1   4
ATOM      4  C   UNL     1      34.335 -11.525 -25.753  0.00  0.00    -0.080 C 
BRANCH   4   5
ATOM      5  C   UNL     1      33.474 -12.650 -26.322  0.00  0.00    -0.006 C 
BRANCH   5   6
ATOM      6  C   UNL     1      32.789 -13.436 -25.206  0.00  0.00    +0.072 C 
BRANCH   6   9
ATOM      7  O   UNL     1      33.472 -13.594 -22.243  0.00  0.00    -0.272 OA
ATOM      8  O   UNL     1      35.475 -17.652 -21.002  0.00  0.00    -0.252 OA
ATOM      9  N   UNL     1      33.387 -14.734 -25.008  0.00  0.00    -0.240 NA
ATOM     10  N   UNL     1      34.885 -17.356 -23.233  0.00  0.00    -0.228 N 
ATOM     11  N   UNL     1      34.476 -15.619 -21.597  0.00  0.00    -0.211 N 
ATOM     12  N   UNL     1      34.158 -16.765 -25.508  0.00  0.00    -0.240 NA
ATOM     13  C   UNL     1      33.857 -15.263 -23.840  0.00  0.00    +0.192 C 
ATOM     14  C   UNL     1      34.323 -16.506 -24.174  0.00  0.00    +0.136 C 
ATOM     15  C   UNL     1      33.591 -15.675 -25.983  0.00  0.00    +0.203 C 
ATOM     16  C   UNL     1      33.894 -14.713 -22.523  0.00  0.00    +0.254 C 
ATOM     17  C   UNL     1      34.984 -16.938 -21.883  0.00  0.00    +0.318 C 
ATOM     18  C   UNL     1      35.370 -18.673 -23.630  0.00  0.00    +0.123 C 
ATOM     19  C   UNL     1      34.570 -15.167 -20.212  0.00  0.00    +0.124 C 
ENDBRANCH   6   9
ENDBRANCH   5   6
ENDBRANCH   4   5
ENDBRANCH   1   4
BRANCH   1  20
ATOM     20  C   UNL     1      33.878 -10.084 -23.888  0.00  0.00    -0.047 C 
BRANCH  20  21
ATOM     21  C   UNL     1      32.431  -9.969 -23.395  0.00  0.00    +0.112 C 
BRANCH  21  22
ATOM     22  C   UNL     1      32.202  -8.673 -22.647  0.00  0.00    +0.008 C 
ATOM     23  C   UNL     1      31.459  -7.670 -23.246  0.00  0.00    +0.035 C 
ATOM     24  C   UNL     1      32.739  -8.518 -21.381  0.00  0.00    +0.035 C 
ATOM     25  C   UNL     1      32.529  -7.324 -20.693  0.00  0.00    +0.136 C 
ATOM     26  C   UNL     1      31.249  -6.475 -22.557  0.00  0.00    +0.136 C 
ATOM     27  C   UNL     1      31.784  -6.302 -21.281  0.00  0.00    +0.073 C 
BRANCH  25  28
ATOM     28  O   UNL     1      33.051  -7.156 -19.446  0.00  0.00    -0.505 OA
ATOM     29  H   UNL     1      33.777  -7.677 -19.169  0.00  0.00    +0.292 HD
ENDBRANCH  25  28
BRANCH  26  30
ATOM     30  O   UNL     1      30.522  -5.478 -23.131  0.00  0.00    -0.505 OA
ATOM     31  H   UNL     1      29.766  -5.685 -23.645  0.00  0.00    +0.292 HD
ENDBRANCH  26  30
ENDBRANCH  21  22
BRANCH  21  32
ATOM     32  O   UNL     1      32.120 -11.050 -22.517  0.00  0.00    -0.382 OA
ATOM     33  H   UNL     1      31.370 -11.550 -22.874  0.00  0.00    +0.211 HD
ENDBRANCH  21  32
ENDBRANCH  20  21
ENDBRANCH   1  20
TORSDOF 10
ENDMDL
MODEL 3
REMARK VINA RESULT:      -9.4      6.936     10.246
REMARK  Name = 25654
REMARK  10 active torsions:
REMARK  status: ('A' for Active; 'I' for Inactive)
REMARK    1  A    between atoms: N_1  and  C_4
REMARK    2  A    between atoms: N_1  and  C_20
REMARK    3  A    between atoms: C_4  and  C_5
REMARK    4  A    between atoms: C_5  and  C_6
REMARK    5  A    between atoms: C_6  and  N_9
REMARK    6  A    between atoms: C_20  and  C_21
REMARK    7  A    between atoms: C_21  and  C_22
REMARK    8  A    between atoms: C_21  and  O_32
REMARK    9  A    between atoms: C_25  and  O_28
REMARK   10  A    between atoms: C_26  and  O_30
REMARK                            x       y       z     vdW  Elec       q    Type
REMARK                         _______ _______ _______ _____ _____    ______ ____
ROOT
ATOM      1  N   UNL     1      36.335 -19.200 -20.605  0.00  0.00    +0.386 N 
ATOM      2  H   UNL     1      37.328 -19.350 -20.783  0.00  0.00    -0.084 HD
ATOM      3  H   UNL     1      36.206 -18.636 -19.765  0.00  0.00    -0.084 HD
ENDROOT
BRANCH   1   4
ATOM      4  C   UNL     1      35.685 -20.490 -20.404  0.00  0.00    -0.080 C 
BRANCH   4   5
ATOM      5  C   UNL     1      36.423 -21.295 -19.337  0.00  0.00    -0.006 C 
BRANCH   5   6
ATOM      6  C   UNL     1      35.441 -22.053 -18.444  0.00  0.00    +0.072 C 
BRANCH   6   9
ATOM      7  O   UNL     1      33.175 -23.277 -16.820  0.00  0.00    -0.272 OA
ATOM      8  O   UNL     1      34.424 -24.432 -12.447  0.00  0.00    -0.252 OA
ATOM      9  N   UNL     1      35.998 -22.343 -17.146  0.00  0.00    -0.240 NA
ATOM     10  N   UNL     1      36.033 -23.482 -13.834  0.00  0.00    -0.228 N 
ATOM     11  N   UNL     1      33.777 -23.864 -14.626  0.00  0.00    -0.211 N 
ATOM     12  N   UNL     1      37.514 -22.467 -15.516  0.00  0.00    -0.240 NA
ATOM     13  C   UNL     1      35.363 -22.900 -16.074  0.00  0.00    +0.192 C 
ATOM     14  C   UNL     1      36.312 -22.965 -15.091  0.00  0.00    +0.136 C 
ATOM     15  C   UNL     1      37.291 -22.100 -16.761  0.00  0.00    +0.203 C 
ATOM     16  C   UNL     1      34.014 -23.344 -15.926  0.00  0.00    +0.254 C 
ATOM     17  C   UNL     1      34.730 -23.961 -13.548  0.00  0.00    +0.318 C 
ATOM     18  C   UNL     1      37.073 -23.533 -12.813  0.00  0.00    +0.123 C 
ATOM     19  C   UNL     1      32.428 -24.351 -14.352  0.00  0.00    +0.124 C 
ENDBRANCH   6   9
ENDBRANCH   5   6
ENDBRANCH   4   5
ENDBRANCH   1   4
BRANCH   1  20
ATOM     20  C   UNL     1      35.749 -18.494 -21.736  0.00  0.00    -0.047 C 
BRANCH  20  21
ATOM     21  C   UNL     1      34.735 -17.448 -21.259  0.00  0.00    +0.112 C 
BRANCH  21  22
ATOM     22  C   UNL     1      34.291 -16.549 -22.393  0.00  0.00    +0.008 C 
ATOM     23  C   UNL     1      34.613 -16.895 -23.694  0.00  0.00    +0.035 C 
ATOM     24  C   UNL     1      33.573 -15.401 -22.104  0.00  0.00    +0.035 C 
ATOM     25  C   UNL     1      33.165 -14.573 -23.149  0.00  0.00    +0.136 C 
ATOM     26  C   UNL     1      34.204 -16.065 -24.739  0.00  0.00    +0.136 C 
ATOM     27  C   UNL     1      33.481 -14.905 -24.466  0.00  0.00    +0.073 C 
BRANCH  25  28
ATOM     28  O   UNL     1      32.457 -13.440 -22.883  0.00  0.00    -0.505 OA
ATOM     29  H   UNL     1      31.536 -13.414 -23.047  0.00  0.00    +0.292 HD
ENDBRANCH  25  28
BRANCH  26  30
ATOM     30  O   UNL     1      34.512 -16.389 -26.024  0.00  0.00    -0.505 OA
ATOM     31  H   UNL     1      34.575 -15.717 -26.674  0.00  0.00    +0.292 HD
ENDBRANCH  26  30
ENDBRANCH  21  22
BRANCH  21  32
ATOM     32  O   UNL     1      35.310 -16.629 -20.241  0.00  0.00    -0.382 OA
ATOM     33  H   UNL     1      36.144 -17.024 -19.943  0.00  0.00    +0.211 HD
ENDBRANCH  21  32
ENDBRANCH  20  21
ENDBRANCH   1  20
TORSDOF 10
ENDMDL
MODEL 4
REMARK VINA RESULT:      -9.4      6.998     10.405
REMARK  Name = 25654
REMARK  10 active torsions:
REMARK  status: ('A' for Active; 'I' for Inactive)
REMARK    1  A    between atoms: N_1  and  C_4
REMARK    2  A    between atoms: N_1  and  C_20
REMARK    3  A    between atoms: C_4  and  C_5
REMARK    4  A    between atoms: C_5  and  C_6
REMARK    5  A    between atoms: C_6  and  N_9
REMARK    6  A    between atoms: C_20  and  C_21
REMARK    7  A    between atoms: C_21  and  C_22
REMARK    8  A    between atoms: C_21  and  O_32
REMARK    9  A    between atoms: C_25  and  O_28
REMARK   10  A    between atoms: C_26  and  O_30
REMARK                            x       y       z     vdW  Elec       q    Type
REMARK                         _______ _______ _______ _____ _____    ______ ____
ROOT
ATOM      1  N   UNL     1      35.432 -19.530 -20.595  0.00  0.00    +0.386 N 
ATOM      2  H   UNL     1      34.872 -19.168 -19.824  0.00  0.00    -0.084 HD
ATOM      3  H   UNL     1      34.849 -20.066 -21.237  0.00  0.00    -0.084 HD
ENDROOT
BRANCH   1   4
ATOM      4  C   UNL     1      36.467 -20.409 -20.061  0.00  0.00    -0.080 C 
BRANCH   4   5
ATOM      5  C   UNL     1      35.844 -21.691 -19.514  0.00  0.00    -0.006 C 
BRANCH   5   6
ATOM      6  C   UNL     1      36.311 -21.962 -18.085  0.00  0.00    +0.072 C 
BRANCH   6   9
ATOM      7  O   UNL     1      37.563 -22.450 -15.353  0.00  0.00    -0.272 OA
ATOM      8  O   UNL     1      34.629 -24.447 -12.284  0.00  0.00    -0.252 OA
ATOM      9  N   UNL     1      35.280 -22.571 -17.281  0.00  0.00    -0.240 NA
ATOM     10  N   UNL     1      33.839 -24.000 -14.426  0.00  0.00    -0.228 N 
ATOM     11  N   UNL     1      36.112 -23.449 -13.798  0.00  0.00    -0.211 N 
ATOM     12  N   UNL     1      33.285 -23.414 -16.751  0.00  0.00    -0.240 NA
ATOM     13  C   UNL     1      35.368 -22.973 -15.980  0.00  0.00    +0.192 C 
ATOM     14  C   UNL     1      34.135 -23.484 -15.680  0.00  0.00    +0.136 C 
ATOM     15  C   UNL     1      34.007 -22.857 -17.702  0.00  0.00    +0.203 C 
ATOM     16  C   UNL     1      36.462 -22.912 -15.065  0.00  0.00    +0.254 C 
ATOM     17  C   UNL     1      34.835 -24.001 -13.418  0.00  0.00    +0.318 C 
ATOM     18  C   UNL     1      32.512 -24.536 -14.147  0.00  0.00    +0.123 C 
ATOM     19  C   UNL     1      37.152 -23.443 -12.774  0.00  0.00    +0.124 C 
ENDBRANCH   6   9
ENDBRANCH   5   6
ENDBRANCH   4   5
ENDBRANCH   1   4
BRANCH   1  20
ATOM     20  C   UNL     1      36.022 -18.414 -21.321  0.00  0.00    -0.047 C 
BRANCH  20  21
ATOM     21  C   UNL     1      35.704 -18.509 -22.818  0.00  0.00    +0.112 C 
BRANCH  21  22
ATOM     22  C   UNL     1      35.028 -17.252 -23.322  0.00  0.00    +0.008 C 
ATOM     23  C   UNL     1      34.834 -16.195 -22.450  0.00  0.00    +0.035 C 
ATOM     24  C   UNL     1      34.621 -17.186 -24.643  0.00  0.00    +0.035 C 
ATOM     25  C   UNL     1      33.998 -16.028 -25.106  0.00  0.00    +0.136 C 
ATOM     26  C   UNL     1      34.210 -15.036 -22.914  0.00  0.00    +0.136 C 
ATOM     27  C   UNL     1      33.793 -14.953 -24.243  0.00  0.00    +0.073 C 
BRANCH  25  28
ATOM     28  O   UNL     1      33.591 -15.947 -26.404  0.00  0.00    -0.505 OA
ATOM     29  H   UNL     1      32.691 -16.086 -26.621  0.00  0.00    +0.292 HD
ENDBRANCH  25  28
BRANCH  26  30
ATOM     30  O   UNL     1      34.010 -13.986 -22.071  0.00  0.00    -0.505 OA
ATOM     31  H   UNL     1      33.952 -14.132 -21.147  0.00  0.00    +0.292 HD
ENDBRANCH  26  30
ENDBRANCH  21  22
BRANCH  21  32
ATOM     32  O   UNL     1      34.834 -19.613 -23.069  0.00  0.00    -0.382 OA
ATOM     33  H   UNL     1      34.013 -19.291 -23.472  0.00  0.00    +0.211 HD
ENDBRANCH  21  32
ENDBRANCH  20  21
ENDBRANCH   1  20
TORSDOF 10
ENDMDL
MODEL 5
REMARK VINA RESULT:      -9.3      7.069     10.601
REMARK  Name = 25654
REMARK  10 active torsions:
REMARK  status: ('A' for Active; 'I' for Inactive)
REMARK    1  A    between atoms: N_1  and  C_4
REMARK    2  A    between atoms: N_1  and  C_20
REMARK    3  A    between atoms: C_4  and  C_5
REMARK    4  A    between atoms: C_5  and  C_6
REMARK    5  A    between atoms: C_6  and  N_9
REMARK    6  A    between atoms: C_20  and  C_21
REMARK    7  A    between atoms: C_21  and  C_22
REMARK    8  A    between atoms: C_21  and  O_32
REMARK    9  A    between atoms: C_25  and  O_28
REMARK   10  A    between atoms: C_26  and  O_30
REMARK                            x       y       z     vdW  Elec       q    Type
REMARK                         _______ _______ _______ _____ _____    ______ ____
ROOT
ATOM      1  N   UNL     1      35.971 -19.409 -20.249  0.00  0.00    +0.386 N 
ATOM      2  H   UNL     1      36.211 -18.839 -19.438  0.00  0.00    -0.084 HD
ATOM      3  H   UNL     1      34.964 -19.559 -20.293  0.00  0.00    -0.084 HD
ENDROOT
BRANCH   1   4
ATOM      4  C   UNL     1      36.631 -20.704 -20.135  0.00  0.00    -0.080 C 
BRANCH   4   5
ATOM      5  C   UNL     1      35.719 -21.704 -19.429  0.00  0.00    -0.006 C 
BRANCH   5   6
ATOM      6  C   UNL     1      36.222 -22.006 -18.018  0.00  0.00    +0.072 C 
BRANCH   6   9
ATOM      7  O   UNL     1      37.508 -22.449 -15.294  0.00  0.00    -0.272 OA
ATOM      8  O   UNL     1      34.636 -24.463 -12.178  0.00  0.00    -0.252 OA
ATOM      9  N   UNL     1      35.208 -22.624 -17.199  0.00  0.00    -0.240 NA
ATOM     10  N   UNL     1      33.818 -24.049 -14.317  0.00  0.00    -0.228 N 
ATOM     11  N   UNL     1      36.088 -23.457 -13.716  0.00  0.00    -0.211 N 
ATOM     12  N   UNL     1      33.232 -23.493 -16.641  0.00  0.00    -0.240 NA
ATOM     13  C   UNL     1      35.316 -23.013 -15.895  0.00  0.00    +0.192 C 
ATOM     14  C   UNL     1      34.094 -23.540 -15.578  0.00  0.00    +0.136 C 
ATOM     15  C   UNL     1      33.936 -22.934 -17.604  0.00  0.00    +0.203 C 
ATOM     16  C   UNL     1      36.417 -22.926 -14.991  0.00  0.00    +0.254 C 
ATOM     17  C   UNL     1      34.824 -24.025 -13.318  0.00  0.00    +0.318 C 
ATOM     18  C   UNL     1      32.503 -24.604 -14.020  0.00  0.00    +0.123 C 
ATOM     19  C   UNL     1      37.138 -23.424 -12.702  0.00  0.00    +0.124 C 
ENDBRANCH   6   9
ENDBRANCH   5   6
ENDBRANCH   4   5
ENDBRANCH   1   4
BRANCH   1  20
ATOM     20  C   UNL     1      36.393 -18.716 -21.459  0.00  0.00    -0.047 C 
BRANCH  20  21
ATOM     21  C   UNL     1      35.355 -18.889 -22.574  0.00  0.00    +0.112 C 
BRANCH  21  22
ATOM     22  C   UNL     1      34.911 -17.553 -23.130  0.00  0.00    +0.008 C 
ATOM     23  C   UNL     1      34.546 -17.464 -24.462  0.00  0.00    +0.035 C 
ATOM     24  C   UNL     1      34.880 -16.449 -22.295  0.00  0.00    +0.035 C 
ATOM     25  C   UNL     1      34.473 -15.219 -22.807  0.00  0.00    +0.136 C 
ATOM     26  C   UNL     1      34.138 -16.232 -24.975  0.00  0.00    +0.136 C 
ATOM     27  C   UNL     1      34.101 -15.109 -24.147  0.00  0.00    +0.073 C 
BRANCH  25  28
ATOM     28  O   UNL     1      34.436 -14.123 -21.999  0.00  0.00    -0.505 OA
ATOM     29  H   UNL     1      35.233 -13.747 -21.685  0.00  0.00    +0.292 HD
ENDBRANCH  25  28
BRANCH  26  30
ATOM     30  O   UNL     1      33.775 -16.125 -26.282  0.00  0.00    -0.505 OA
ATOM     31  H   UNL     1      33.538 -16.891 -26.766  0.00  0.00    +0.292 HD
ENDBRANCH  26  30
ENDBRANCH  21  22
BRANCH  21  32
ATOM     32  O   UNL     1      34.203 -19.570 -22.078  0.00  0.00    -0.382 OA
ATOM     33  H   UNL     1      34.479 -20.248 -21.442  0.00  0.00    +0.211 HD
ENDBRANCH  21  32
ENDBRANCH  20  21
ENDBRANCH   1  20
TORSDOF 10
ENDMDL
MODEL 6
REMARK VINA RESULT:      -9.1      5.740     11.170
REMARK  Name = 25654
REMARK  10 active torsions:
REMARK  status: ('A' for Active; 'I' for Inactive)
REMARK    1  A    between atoms: N_1  and  C_4
REMARK    2  A    between atoms: N_1  and  C_20
REMARK    3  A    between atoms: C_4  and  C_5
REMARK    4  A    between atoms: C_5  and  C_6
REMARK    5  A    between atoms: C_6  and  N_9
REMARK    6  A    between atoms: C_20  and  C_21
REMARK    7  A    between atoms: C_21  and  C_22
REMARK    8  A    between atoms: C_21  and  O_32
REMARK    9  A    between atoms: C_25  and  O_28
REMARK   10  A    between atoms: C_26  and  O_30
REMARK                            x       y       z     vdW  Elec       q    Type
REMARK                         _______ _______ _______ _____ _____    ______ ____
ROOT
ATOM      1  N   UNL     1      35.560 -21.534 -18.694  0.00  0.00    +0.386 N 
ATOM      2  H   UNL     1      35.432 -20.647 -18.208  0.00  0.00    -0.084 HD
ATOM      3  H   UNL     1      36.297 -22.081 -18.250  0.00  0.00    -0.084 HD
ENDROOT
BRANCH   1   4
ATOM      4  C   UNL     1      35.944 -21.270 -20.076  0.00  0.00    -0.080 C 
BRANCH   4   5
ATOM      5  C   UNL     1      35.124 -20.115 -20.644  0.00  0.00    -0.006 C 
BRANCH   5   6
ATOM      6  C   UNL     1      36.030 -18.989 -21.140  0.00  0.00    +0.072 C 
BRANCH   6   9
ATOM      7  O   UNL     1      34.888 -16.324 -20.212  0.00  0.00    -0.272 OA
ATOM      8  O   UNL     1      33.019 -13.782 -23.684  0.00  0.00    -0.252 OA
ATOM      9  N   UNL     1      35.506 -18.351 -22.323  0.00  0.00    -0.240 NA
ATOM     10  N   UNL     1      33.941 -15.852 -24.213  0.00  0.00    -0.228 N 
ATOM     11  N   UNL     1      33.946 -15.032 -21.934  0.00  0.00    -0.211 N 
ATOM     12  N   UNL     1      34.982 -18.066 -24.472  0.00  0.00    -0.240 NA
ATOM     13  C   UNL     1      34.894 -17.134 -22.410  0.00  0.00    +0.192 C 
ATOM     14  C   UNL     1      34.584 -16.984 -23.734  0.00  0.00    +0.136 C 
ATOM     15  C   UNL     1      35.536 -18.874 -23.590  0.00  0.00    +0.203 C 
ATOM     16  C   UNL     1      34.602 -16.172 -21.397  0.00  0.00    +0.254 C 
ATOM     17  C   UNL     1      33.592 -14.813 -23.315  0.00  0.00    +0.318 C 
ATOM     18  C   UNL     1      33.627 -15.731 -25.632  0.00  0.00    +0.123 C 
ATOM     19  C   UNL     1      33.594 -13.974 -20.992  0.00  0.00    +0.124 C 
ENDBRANCH   6   9
ENDBRANCH   5   6
ENDBRANCH   4   5
ENDBRANCH   1   4
BRANCH   1  20
ATOM     20  C   UNL     1      34.318 -22.292 -18.636  0.00  0.00    -0.047 C 
BRANCH  20  21
ATOM     21  C   UNL     1      34.338 -23.283 -17.467  0.00  0.00    +0.112 C 
BRANCH  21  22
ATOM     22  C   UNL     1      33.111 -23.134 -16.593  0.00  0.00    +0.008 C 
ATOM     23  C   UNL     1      31.882 -22.910 -17.188  0.00  0.00    +0.035 C 
ATOM     24  C   UNL     1      33.244 -23.227 -15.218  0.00  0.00    +0.035 C 
ATOM     25  C   UNL     1      32.114 -23.089 -14.414  0.00  0.00    +0.136 C 
ATOM     26  C   UNL     1      30.751 -22.772 -16.382  0.00  0.00    +0.136 C 
ATOM     27  C   UNL     1      30.867 -22.862 -14.995  0.00  0.00    +0.073 C 
BRANCH  25  28
ATOM     28  O   UNL     1      32.228 -23.178 -13.059  0.00  0.00    -0.505 OA
ATOM     29  H   UNL     1      31.989 -22.450 -12.521  0.00  0.00    +0.292 HD
ENDBRANCH  25  28
BRANCH  26  30
ATOM     30  O   UNL     1      29.534 -22.550 -16.950  0.00  0.00    -0.505 OA
ATOM     31  H   UNL     1      29.055 -21.772 -16.741  0.00  0.00    +0.292 HD
ENDBRANCH  26  30
ENDBRANCH  21  22
BRANCH  21  32
ATOM     32  O   UNL     1      35.492 -23.066 -16.655  0.00  0.00    -0.382 OA
ATOM     33  H   UNL     1      35.564 -22.123 -16.442  0.00  0.00    +0.211 HD
ENDBRANCH  21  32
ENDBRANCH  20  21
ENDBRANCH   1  20
TORSDOF 10
ENDMDL
MODEL 7
REMARK VINA RESULT:      -9.0      5.218     11.006
REMARK  Name = 25654
REMARK  10 active torsions:
REMARK  status: ('A' for Active; 'I' for Inactive)
REMARK    1  A    between atoms: N_1  and  C_4
REMARK    2  A    between atoms: N_1  and  C_20
REMARK    3  A    between atoms: C_4  and  C_5
REMARK    4  A    between atoms: C_5  and  C_6
REMARK    5  A    between atoms: C_6  and  N_9
REMARK    6  A    between atoms: C_20  and  C_21
REMARK    7  A    between atoms: C_21  and  C_22
REMARK    8  A    between atoms: C_21  and  O_32
REMARK    9  A    between atoms: C_25  and  O_28
REMARK   10  A    between atoms: C_26  and  O_30
REMARK                            x       y       z     vdW  Elec       q    Type
REMARK                         _______ _______ _______ _____ _____    ______ ____
ROOT
ATOM      1  N   UNL     1      33.070 -20.693 -19.866  0.00  0.00    +0.386 N 
ATOM      2  H   UNL     1      32.371 -21.306 -20.286  0.00  0.00    -0.084 HD
ATOM      3  H   UNL     1      32.670 -20.188 -19.075  0.00  0.00    -0.084 HD
ENDROOT
BRANCH   1   4
ATOM      4  C   UNL     1      33.516 -19.725 -20.860  0.00  0.00    -0.080 C 
BRANCH   4   5
ATOM      5  C   UNL     1      35.013 -19.880 -21.118  0.00  0.00    -0.006 C 
BRANCH   5   6
ATOM      6  C   UNL     1      35.675 -18.522 -21.345  0.00  0.00    +0.072 C 
BRANCH   6   9
ATOM      7  O   UNL     1      34.271 -15.969 -20.462  0.00  0.00    -0.272 OA
ATOM      8  O   UNL     1      32.536 -13.462 -24.028  0.00  0.00    -0.252 OA
ATOM      9  N   UNL     1      35.212 -17.887 -22.556  0.00  0.00    -0.240 NA
ATOM     10  N   UNL     1      33.644 -15.448 -24.520  0.00  0.00    -0.228 N 
ATOM     11  N   UNL     1      33.394 -14.696 -22.232  0.00  0.00    -0.211 N 
ATOM     12  N   UNL     1      34.858 -17.577 -24.735  0.00  0.00    -0.240 NA
ATOM     13  C   UNL     1      34.525 -16.713 -22.668  0.00  0.00    +0.192 C 
ATOM     14  C   UNL     1      34.322 -16.547 -24.011  0.00  0.00    +0.136 C 
ATOM     15  C   UNL     1      35.389 -18.370 -23.826  0.00  0.00    +0.203 C 
ATOM     16  C   UNL     1      34.079 -15.802 -21.664  0.00  0.00    +0.254 C 
ATOM     17  C   UNL     1      33.146 -14.461 -23.633  0.00  0.00    +0.318 C 
ATOM     18  C   UNL     1      33.447 -15.308 -25.958  0.00  0.00    +0.123 C 
ATOM     19  C   UNL     1      32.887 -13.692 -21.301  0.00  0.00    +0.124 C 
ENDBRANCH   6   9
ENDBRANCH   5   6
ENDBRANCH   4   5
ENDBRANCH   1   4
BRANCH   1  20
ATOM     20  C   UNL     1      34.185 -21.499 -19.389  0.00  0.00    -0.047 C 
BRANCH  20  21
ATOM     21  C   UNL     1      33.681 -22.721 -18.611  0.00  0.00    +0.112 C 
BRANCH  21  22
ATOM     22  C   UNL     1      34.377 -22.852 -17.273  0.00  0.00    +0.008 C 
ATOM     23  C   UNL     1      35.695 -22.446 -17.156  0.00  0.00    +0.035 C 
ATOM     24  C   UNL     1      33.681 -23.375 -16.197  0.00  0.00    +0.035 C 
ATOM     25  C   UNL     1      34.323 -23.497 -14.966  0.00  0.00    +0.136 C 
ATOM     26  C   UNL     1      36.337 -22.568 -15.923  0.00  0.00    +0.136 C 
ATOM     27  C   UNL     1      35.651 -23.093 -14.828  0.00  0.00    +0.073 C 
BRANCH  25  28
ATOM     28  O   UNL     1      33.653 -24.009 -13.896  0.00  0.00    -0.505 OA
ATOM     29  H   UNL     1      32.811 -24.402 -14.015  0.00  0.00    +0.292 HD
ENDBRANCH  25  28
BRANCH  26  30
ATOM     30  O   UNL     1      37.633 -22.173 -15.789  0.00  0.00    -0.505 OA
ATOM     31  H   UNL     1      38.287 -22.510 -16.369  0.00  0.00    +0.292 HD
ENDBRANCH  26  30
ENDBRANCH  21  22
BRANCH  21  32
ATOM     32  O   UNL     1      33.919 -23.915 -19.356  0.00  0.00    -0.382 OA
ATOM     33  H   UNL     1      34.330 -24.578 -18.780  0.00  0.00    +0.211 HD
ENDBRANCH  21  32
ENDBRANCH  20  21
ENDBRANCH   1  20
TORSDOF 10
ENDMDL
MODEL 8
REMARK VINA RESULT:      -9.0      6.908     10.467
REMARK  Name = 25654
REMARK  10 active torsions:
REMARK  status: ('A' for Active; 'I' for Inactive)
REMARK    1  A    between atoms: N_1  and  C_4
REMARK    2  A    between atoms: N_1  and  C_20
REMARK    3  A    between atoms: C_4  and  C_5
REMARK    4  A    between atoms: C_5  and  C_6
REMARK    5  A    between atoms: C_6  and  N_9
REMARK    6  A    between atoms: C_20  and  C_21
REMARK    7  A    between atoms: C_21  and  C_22
REMARK    8  A    between atoms: C_21  and  O_32
REMARK    9  A    between atoms: C_25  and  O_28
REMARK   10  A    between atoms: C_26  and  O_30
REMARK                            x       y       z     vdW  Elec       q    Type
REMARK                         _______ _______ _______ _____ _____    ______ ____
ROOT
ATOM      1  N   UNL     1      35.480 -19.828 -20.330  0.00  0.00    +0.386 N 
ATOM      2  H   UNL     1      35.254 -19.575 -19.369  0.00  0.00    -0.084 HD
ATOM      3  H   UNL     1      34.657 -20.201 -20.803  0.00  0.00    -0.084 HD
ENDROOT
BRANCH   1   4
ATOM      4  C   UNL     1      36.518 -20.852 -20.323  0.00  0.00    -0.080 C 
BRANCH   4   5
ATOM      5  C   UNL     1      36.633 -21.481 -18.937  0.00  0.00    -0.006 C 
BRANCH   5   6
ATOM      6  C   UNL     1      35.299 -22.077 -18.492  0.00  0.00    +0.072 C 
BRANCH   6   9
ATOM      7  O   UNL     1      32.452 -22.911 -17.806  0.00  0.00    -0.272 OA
ATOM      8  O   UNL     1      31.999 -24.604 -13.453  0.00  0.00    -0.252 OA
ATOM      9  N   UNL     1      35.347 -22.567 -17.136  0.00  0.00    -0.240 NA
ATOM     10  N   UNL     1      34.111 -23.917 -14.149  0.00  0.00    -0.228 N 
ATOM     11  N   UNL     1      32.201 -23.763 -15.630  0.00  0.00    -0.211 N 
ATOM     12  N   UNL     1      36.210 -23.118 -15.155  0.00  0.00    -0.240 NA
ATOM     13  C   UNL     1      34.312 -23.053 -16.390  0.00  0.00    +0.192 C 
ATOM     14  C   UNL     1      34.867 -23.383 -15.184  0.00  0.00    +0.136 C 
ATOM     15  C   UNL     1      36.468 -22.626 -16.350  0.00  0.00    +0.203 C 
ATOM     16  C   UNL     1      32.932 -23.214 -16.717  0.00  0.00    +0.254 C 
ATOM     17  C   UNL     1      32.723 -24.132 -14.338  0.00  0.00    +0.318 C 
ATOM     18  C   UNL     1      34.740 -24.255 -12.878  0.00  0.00    +0.123 C 
ATOM     19  C   UNL     1      30.772 -23.976 -15.844  0.00  0.00    +0.124 C 
ENDBRANCH   6   9
ENDBRANCH   5   6
ENDBRANCH   4   5
ENDBRANCH   1   4
BRANCH   1  20
ATOM     20  C   UNL     1      35.927 -18.639 -21.043  0.00  0.00    -0.047 C 
BRANCH  20  21
ATOM     21  C   UNL     1      34.857 -17.542 -20.998  0.00  0.00    +0.112 C 
BRANCH  21  22
ATOM     22  C   UNL     1      34.629 -16.935 -22.366  0.00  0.00    +0.008 C 
ATOM     23  C   UNL     1      34.348 -15.583 -22.466  0.00  0.00    +0.035 C 
ATOM     24  C   UNL     1      34.705 -17.744 -23.486  0.00  0.00    +0.035 C 
ATOM     25  C   UNL     1      34.493 -17.184 -24.745  0.00  0.00    +0.136 C 
ATOM     26  C   UNL     1      34.136 -15.024 -23.726  0.00  0.00    +0.136 C 
ATOM     27  C   UNL     1      34.209 -15.824 -24.866  0.00  0.00    +0.073 C 
BRANCH  25  28
ATOM     28  O   UNL     1      34.565 -17.966 -25.859  0.00  0.00    -0.505 OA
ATOM     29  H   UNL     1      35.148 -18.698 -25.880  0.00  0.00    +0.292 HD
ENDBRANCH  25  28
BRANCH  26  30
ATOM     30  O   UNL     1      33.859 -13.696 -23.844  0.00  0.00    -0.505 OA
ATOM     31  H   UNL     1      33.525 -13.221 -23.109  0.00  0.00    +0.292 HD
ENDBRANCH  26  30
ENDBRANCH  21  22
BRANCH  21  32
ATOM     32  O   UNL     1      35.255 -16.499 -20.109  0.00  0.00    -0.382 OA
ATOM     33  H   UNL     1      36.176 -16.638 -19.840  0.00  0.00    +0.211 HD
ENDBRANCH  21  32
ENDBRANCH  20  21
ENDBRANCH   1  20
TORSDOF 10
ENDMDL
MODEL 9
REMARK VINA RESULT:      -8.9      2.952      9.441
REMARK  Name = 25654
REMARK  10 active torsions:
REMARK  status: ('A' for Active; 'I' for Inactive)
REMARK    1  A    between atoms: N_1  and  C_4
REMARK    2  A    between atoms: N_1  and  C_20
REMARK    3  A    between atoms: C_4  and  C_5
REMARK    4  A    between atoms: C_5  and  C_6
REMARK    5  A    between atoms: C_6  and  N_9
REMARK    6  A    between atoms: C_20  and  C_21
REMARK    7  A    between atoms: C_21  and  C_22
REMARK    8  A    between atoms: C_21  and  O_32
REMARK    9  A    between atoms: C_25  and  O_28
REMARK   10  A    between atoms: C_26  and  O_30
REMARK                            x       y       z     vdW  Elec       q    Type
REMARK                         _______ _______ _______ _____ _____    ______ ____
ROOT
ATOM      1  N   UNL     1      34.582 -16.194 -21.214  0.00  0.00    +0.386 N 
ATOM      2  H   UNL     1      34.051 -16.331 -20.355  0.00  0.00    -0.084 HD
ATOM      3  H   UNL     1      35.268 -15.449 -21.093  0.00  0.00    -0.084 HD
ENDROOT
BRANCH   1   4
ATOM      4  C   UNL     1      33.669 -15.817 -22.286  0.00  0.00    -0.080 C 
BRANCH   4   5
ATOM      5  C   UNL     1      34.293 -14.730 -23.158  0.00  0.00    -0.006 C 
BRANCH   5   6
ATOM      6  C   UNL     1      33.241 -14.068 -24.047  0.00  0.00    +0.072 C 
BRANCH   6   9
ATOM      7  O   UNL     1      31.725 -13.034 -21.618  0.00  0.00    -0.272 OA
ATOM      8  O   UNL     1      31.832  -8.362 -21.199  0.00  0.00    -0.252 OA
ATOM      9  N   UNL     1      33.380 -12.632 -24.077  0.00  0.00    -0.240 NA
ATOM     10  N   UNL     1      32.941  -9.327 -23.002  0.00  0.00    -0.228 N 
ATOM     11  N   UNL     1      31.765 -10.696 -21.387  0.00  0.00    -0.211 N 
ATOM     12  N   UNL     1      34.018 -10.621 -24.797  0.00  0.00    -0.240 NA
ATOM     13  C   UNL     1      32.870 -11.729 -23.190  0.00  0.00    +0.192 C 
ATOM     14  C   UNL     1      33.275 -10.507 -23.653  0.00  0.00    +0.136 C 
ATOM     15  C   UNL     1      34.064 -11.917 -25.027  0.00  0.00    +0.203 C 
ATOM     16  C   UNL     1      32.080 -11.928 -22.018  0.00  0.00    +0.254 C 
ATOM     17  C   UNL     1      32.160  -9.378 -21.821  0.00  0.00    +0.318 C 
ATOM     18  C   UNL     1      33.392  -8.045 -23.528  0.00  0.00    +0.123 C 
ATOM     19  C   UNL     1      30.958 -10.770 -20.173  0.00  0.00    +0.124 C 
ENDBRANCH   6   9
ENDBRANCH   5   6
ENDBRANCH   4   5
ENDBRANCH   1   4
BRANCH   1  20
ATOM     20  C   UNL     1      35.286 -17.426 -21.541  0.00  0.00    -0.047 C 
BRANCH  20  21
ATOM     21  C   UNL     1      34.294 -18.557 -21.840  0.00  0.00    +0.112 C 
BRANCH  21  22
ATOM     22  C   UNL     1      34.472 -19.717 -20.884  0.00  0.00    +0.008 C 
ATOM     23  C   UNL     1      35.750 -20.164 -20.596  0.00  0.00    +0.035 C 
ATOM     24  C   UNL     1      33.354 -20.305 -20.319  0.00  0.00    +0.035 C 
ATOM     25  C   UNL     1      33.517 -21.374 -19.439  0.00  0.00    +0.136 C 
ATOM     26  C   UNL     1      35.913 -21.234 -19.715  0.00  0.00    +0.136 C 
ATOM     27  C   UNL     1      34.797 -21.839 -19.137  0.00  0.00    +0.073 C 
BRANCH  25  28
ATOM     28  O   UNL     1      32.428 -21.964 -18.874  0.00  0.00    -0.505 OA
ATOM     29  H   UNL     1      32.150 -22.809 -19.164  0.00  0.00    +0.292 HD
ENDBRANCH  25  28
BRANCH  26  30
ATOM     30  O   UNL     1      37.162 -21.689 -19.421  0.00  0.00    -0.505 OA
ATOM     31  H   UNL     1      37.883 -21.472 -19.978  0.00  0.00    +0.292 HD
ENDBRANCH  26  30
ENDBRANCH  21  22
BRANCH  21  32
ATOM     32  O   UNL     1      34.483 -19.042 -23.169  0.00  0.00    -0.382 OA
ATOM     33  H   UNL     1      33.662 -19.451 -23.482  0.00  0.00    +0.211 HD
ENDBRANCH  21  32
ENDBRANCH  20  21
ENDBRANCH   1  20
TORSDOF 10
ENDMDL
