MODEL 1
REMARK VINA RESULT:      -8.8      0.000      0.000
REMARK  Name = 11812557
REMARK  9 active torsions:
REMARK  status: ('A' for Active; 'I' for Inactive)
REMARK    1  A    between atoms: C_2  and  C_21
REMARK    2  A    between atoms: C_3  and  O_13
REMARK    3  A    between atoms: O_13  and  C_15
REMARK    4  A    between atoms: C_15  and  C_16
REMARK    5  A    between atoms: C_16  and  C_19
REMARK    6  A    between atoms: C_21  and  C_22
REMARK    7  A    between atoms: C_22  and  C_25
REMARK    8  A    between atoms: C_27  and  O_30
REMARK    9  A    between atoms: O_30  and  C_32
REMARK                            x       y       z     vdW  Elec       q    Type
REMARK                         _______ _______ _______ _____ _____    ______ ____
ROOT
ATOM      1  C   UNL     1      32.690  -9.679 -24.105  0.00  0.00    +0.062 C 
ATOM      2  C   UNL     1      33.429 -11.013 -23.787  0.00  0.00    +0.012 C 
ATOM      3  C   UNL     1      31.440  -9.446 -23.226  0.00  0.00    +0.173 C 
ATOM      4  C   UNL     1      34.666 -11.208 -24.711  0.00  0.00    +0.022 C 
ATOM      5  C   UNL     1      33.656  -8.500 -24.041  0.00  0.00    -0.024 C 
ATOM      6  C   UNL     1      30.866  -8.042 -23.440  0.00  0.00    +0.048 C 
ATOM      7  C   UNL     1      31.885  -6.919 -23.177  0.00  0.00    +0.025 C 
ATOM      8  C   UNL     1      33.277  -7.278 -23.623  0.00  0.00    -0.030 C 
ATOM      9  C   UNL     1      35.492  -9.951 -24.781  0.00  0.00    -0.027 C 
ATOM     10  C   UNL     1      35.026  -8.737 -24.459  0.00  0.00    -0.009 C 
ATOM     11  C   UNL     1      34.331 -11.665 -26.135  0.00  0.00    +0.005 C 
ATOM     12  C   UNL     1      31.902  -6.487 -21.708  0.00  0.00    +0.005 C 
ENDROOT
BRANCH   3  13
ATOM     13  O   UNL     1      31.752  -9.649 -21.852  0.00  0.00    -0.452 OA
BRANCH  13  15
ATOM     14  O   UNL     1      30.065 -11.204 -21.696  0.00  0.00    -0.250 OA
ATOM     15  C   UNL     1      30.995 -10.583 -21.196  0.00  0.00    +0.316 C 
BRANCH  15  16
ATOM     16  C   UNL     1      31.463 -10.743 -19.744  0.00  0.00    +0.090 C 
ATOM     17  C   UNL     1      30.245 -10.545 -18.821  0.00  0.00    +0.011 C 
ATOM     18  C   UNL     1      31.998 -12.170 -19.531  0.00  0.00    +0.011 C 
BRANCH  16  19
ATOM     19  C   UNL     1      32.545  -9.692 -19.394  0.00  0.00    +0.011 C 
ATOM     20  C   UNL     1      32.017  -8.282 -19.155  0.00  0.00    +0.001 C 
ENDBRANCH  16  19
ENDBRANCH  15  16
ENDBRANCH  13  15
ENDBRANCH   3  13
BRANCH   2  21
ATOM     21  C   UNL     1      32.499 -12.231 -23.822  0.00  0.00    +0.004 C 
BRANCH  21  22
ATOM     22  C   UNL     1      32.735 -13.135 -22.619  0.00  0.00    +0.044 C 
BRANCH  22  25
ATOM     23  O   UNL     1      33.048 -14.587 -24.496  0.00  0.00    -0.452 OA
ATOM     24  O   UNL     1      33.319 -15.770 -26.391  0.00  0.00    -0.250 OA
ATOM     25  C   UNL     1      33.170 -14.527 -23.058  0.00  0.00    +0.172 C 
ATOM     26  C   UNL     1      34.582 -14.837 -22.584  0.00  0.00    +0.088 C 
ATOM     27  C   UNL     1      35.030 -16.164 -23.171  0.00  0.00    +0.184 C 
ATOM     28  C   UNL     1      34.952 -16.118 -24.684  0.00  0.00    +0.153 C 
ATOM     29  C   UNL     1      33.688 -15.513 -25.247  0.00  0.00    +0.321 C 
BRANCH  27  30
ATOM     30  O   UNL     1      34.208 -17.226 -22.695  0.00  0.00    -0.452 OA
BRANCH  30  32
ATOM     31  O   UNL     1      35.354 -17.590 -20.723  0.00  0.00    -0.250 OA
ATOM     32  C   UNL     1      34.749 -17.997 -21.705  0.00  0.00    +0.317 C 
ATOM     33  C   UNL     1      34.493 -19.445 -21.993  0.00  0.00    +0.121 C 
ENDBRANCH  30  32
ENDBRANCH  27  30
ENDBRANCH  22  25
ENDBRANCH  21  22
ENDBRANCH   2  21
TORSDOF 9
ENDMDL
MODEL 2
REMARK VINA RESULT:      -7.9      1.916      7.354
REMARK  Name = 11812557
REMARK  9 active torsions:
REMARK  status: ('A' for Active; 'I' for Inactive)
REMARK    1  A    between atoms: C_2  and  C_21
REMARK    2  A    between atoms: C_3  and  O_13
REMARK    3  A    between atoms: O_13  and  C_15
REMARK    4  A    between atoms: C_15  and  C_16
REMARK    5  A    between atoms: C_16  and  C_19
REMARK    6  A    between atoms: C_21  and  C_22
REMARK    7  A    between atoms: C_22  and  C_25
REMARK    8  A    between atoms: C_27  and  O_30
REMARK    9  A    between atoms: O_30  and  C_32
REMARK                            x       y       z     vdW  Elec       q    Type
REMARK                         _______ _______ _______ _____ _____    ______ ____
ROOT
ATOM      1  C   UNL     1      34.467 -15.345 -24.616  0.00  0.00    +0.062 C 
ATOM      2  C   UNL     1      33.427 -14.188 -24.537  0.00  0.00    +0.012 C 
ATOM      3  C   UNL     1      35.019 -15.768 -23.235  0.00  0.00    +0.173 C 
ATOM      4  C   UNL     1      32.919 -13.788 -25.953  0.00  0.00    +0.022 C 
ATOM      5  C   UNL     1      33.895 -16.532 -25.386  0.00  0.00    -0.024 C 
ATOM      6  C   UNL     1      35.882 -17.028 -23.346  0.00  0.00    +0.048 C 
ATOM      7  C   UNL     1      35.146 -18.220 -23.982  0.00  0.00    +0.025 C 
ATOM      8  C   UNL     1      34.210 -17.806 -25.087  0.00  0.00    -0.030 C 
ATOM      9  C   UNL     1      32.550 -15.006 -26.760  0.00  0.00    -0.027 C 
ATOM     10  C   UNL     1      32.987 -16.242 -26.480  0.00  0.00    -0.009 C 
ATOM     11  C   UNL     1      33.897 -12.931 -26.762  0.00  0.00    +0.005 C 
ATOM     12  C   UNL     1      34.390 -19.053 -22.943  0.00  0.00    +0.005 C 
ENDROOT
BRANCH   3  13
ATOM     13  O   UNL     1      33.952 -15.978 -22.316  0.00  0.00    -0.452 OA
BRANCH  13  15
ATOM     14  O   UNL     1      35.075 -14.950 -20.592  0.00  0.00    -0.250 OA
ATOM     15  C   UNL     1      34.030 -15.285 -21.137  0.00  0.00    +0.316 C 
BRANCH  15  16
ATOM     16  C   UNL     1      32.631 -14.989 -20.584  0.00  0.00    +0.090 C 
ATOM     17  C   UNL     1      31.794 -16.279 -20.677  0.00  0.00    +0.011 C 
ATOM     18  C   UNL     1      32.737 -14.594 -19.100  0.00  0.00    +0.011 C 
BRANCH  16  19
ATOM     19  C   UNL     1      31.938 -13.872 -21.402  0.00  0.00    +0.011 C 
ATOM     20  C   UNL     1      31.808 -12.534 -20.682  0.00  0.00    +0.001 C 
ENDBRANCH  16  19
ENDBRANCH  15  16
ENDBRANCH  13  15
ENDBRANCH   3  13
BRANCH   2  21
ATOM     21  C   UNL     1      33.944 -12.974 -23.758  0.00  0.00    +0.004 C 
BRANCH  21  22
ATOM     22  C   UNL     1      33.502 -11.673 -24.415  0.00  0.00    +0.044 C 
BRANCH  22  25
ATOM     23  O   UNL     1      34.292  -9.459 -23.969  0.00  0.00    -0.452 OA
ATOM     24  O   UNL     1      35.097  -7.367 -23.765  0.00  0.00    -0.250 OA
ATOM     25  C   UNL     1      33.496 -10.528 -23.411  0.00  0.00    +0.172 C 
ATOM     26  C   UNL     1      32.076 -10.084 -23.091  0.00  0.00    +0.088 C 
ATOM     27  C   UNL     1      32.123  -8.848 -22.211  0.00  0.00    +0.184 C 
ATOM     28  C   UNL     1      32.903  -7.746 -22.900  0.00  0.00    +0.153 C 
ATOM     29  C   UNL     1      34.201  -8.179 -23.540  0.00  0.00    +0.321 C 
BRANCH  27  30
ATOM     30  O   UNL     1      32.740  -9.143 -20.962  0.00  0.00    -0.452 OA
BRANCH  30  32
ATOM     31  O   UNL     1      32.138  -7.493 -19.462  0.00  0.00    -0.250 OA
ATOM     32  C   UNL     1      32.106  -8.650 -19.856  0.00  0.00    +0.317 C 
ATOM     33  C   UNL     1      31.347  -9.748 -19.174  0.00  0.00    +0.121 C 
ENDBRANCH  30  32
ENDBRANCH  27  30
ENDBRANCH  22  25
ENDBRANCH  21  22
ENDBRANCH   2  21
TORSDOF 9
ENDMDL
MODEL 3
REMARK VINA RESULT:      -7.5      8.135     13.222
REMARK  Name = 11812557
REMARK  9 active torsions:
REMARK  status: ('A' for Active; 'I' for Inactive)
REMARK    1  A    between atoms: C_2  and  C_21
REMARK    2  A    between atoms: C_3  and  O_13
REMARK    3  A    between atoms: O_13  and  C_15
REMARK    4  A    between atoms: C_15  and  C_16
REMARK    5  A    between atoms: C_16  and  C_19
REMARK    6  A    between atoms: C_21  and  C_22
REMARK    7  A    between atoms: C_22  and  C_25
REMARK    8  A    between atoms: C_27  and  O_30
REMARK    9  A    between atoms: O_30  and  C_32
REMARK                            x       y       z     vdW  Elec       q    Type
REMARK                         _______ _______ _______ _____ _____    ______ ____
ROOT
ATOM      1  C   UNL     1      33.642 -22.926 -15.206  0.00  0.00    +0.062 C 
ATOM      2  C   UNL     1      34.192 -23.318 -16.610  0.00  0.00    +0.012 C 
ATOM      3  C   UNL     1      32.135 -22.580 -15.215  0.00  0.00    +0.173 C 
ATOM      4  C   UNL     1      35.715 -23.637 -16.550  0.00  0.00    +0.022 C 
ATOM      5  C   UNL     1      33.970 -24.004 -14.178  0.00  0.00    -0.024 C 
ATOM      6  C   UNL     1      31.601 -22.393 -13.791  0.00  0.00    +0.048 C 
ATOM      7  C   UNL     1      31.833 -23.615 -12.886  0.00  0.00    +0.025 C 
ATOM      8  C   UNL     1      33.150 -24.297 -13.151  0.00  0.00    -0.030 C 
ATOM      9  C   UNL     1      36.031 -24.550 -15.393  0.00  0.00    -0.027 C 
ATOM     10  C   UNL     1      35.224 -24.717 -14.337  0.00  0.00    -0.009 C 
ATOM     11  C   UNL     1      36.621 -22.404 -16.473  0.00  0.00    +0.005 C 
ATOM     12  C   UNL     1      30.692 -24.631 -12.982  0.00  0.00    +0.005 C 
ENDROOT
BRANCH   3  13
ATOM     13  O   UNL     1      31.395 -23.590 -15.892  0.00  0.00    -0.452 OA
BRANCH  13  15
ATOM     14  O   UNL     1      30.320 -22.291 -17.455  0.00  0.00    -0.250 OA
ATOM     15  C   UNL     1      30.301 -23.164 -16.596  0.00  0.00    +0.316 C 
BRANCH  15  16
ATOM     16  C   UNL     1      29.041 -23.922 -16.159  0.00  0.00    +0.090 C 
ATOM     17  C   UNL     1      28.183 -24.192 -17.409  0.00  0.00    +0.011 C 
ATOM     18  C   UNL     1      29.442 -25.279 -15.553  0.00  0.00    +0.011 C 
BRANCH  16  19
ATOM     19  C   UNL     1      28.219 -23.089 -15.145  0.00  0.00    +0.011 C 
ATOM     20  C   UNL     1      27.116 -22.235 -15.761  0.00  0.00    +0.001 C 
ENDBRANCH  16  19
ENDBRANCH  15  16
ENDBRANCH  13  15
ENDBRANCH   3  13
BRANCH   2  21
ATOM     21  C   UNL     1      33.876 -22.275 -17.687  0.00  0.00    +0.004 C 
BRANCH  21  22
ATOM     22  C   UNL     1      34.186 -22.813 -19.077  0.00  0.00    +0.044 C 
BRANCH  22  25
ATOM     23  O   UNL     1      32.926 -20.967 -19.934  0.00  0.00    -0.452 OA
ATOM     24  O   UNL     1      31.612 -19.249 -20.556  0.00  0.00    -0.250 OA
ATOM     25  C   UNL     1      34.160 -21.696 -20.114  0.00  0.00    +0.172 C 
ATOM     26  C   UNL     1      35.384 -20.801 -19.989  0.00  0.00    +0.088 C 
ATOM     27  C   UNL     1      35.242 -19.621 -20.932  0.00  0.00    +0.184 C 
ATOM     28  C   UNL     1      33.967 -18.859 -20.627  0.00  0.00    +0.153 C 
ATOM     29  C   UNL     1      32.741 -19.714 -20.411  0.00  0.00    +0.321 C 
BRANCH  27  30
ATOM     30  O   UNL     1      35.206 -20.061 -22.286  0.00  0.00    -0.452 OA
BRANCH  30  32
ATOM     31  O   UNL     1      36.079 -18.102 -23.144  0.00  0.00    -0.250 OA
ATOM     32  C   UNL     1      35.358 -19.086 -23.231  0.00  0.00    +0.317 C 
ATOM     33  C   UNL     1      34.499 -19.394 -24.420  0.00  0.00    +0.121 C 
ENDBRANCH  30  32
ENDBRANCH  27  30
ENDBRANCH  22  25
ENDBRANCH  21  22
ENDBRANCH   2  21
TORSDOF 9
ENDMDL
MODEL 4
REMARK VINA RESULT:      -7.4      1.333      2.080
REMARK  Name = 11812557
REMARK  9 active torsions:
REMARK  status: ('A' for Active; 'I' for Inactive)
REMARK    1  A    between atoms: C_2  and  C_21
REMARK    2  A    between atoms: C_3  and  O_13
REMARK    3  A    between atoms: O_13  and  C_15
REMARK    4  A    between atoms: C_15  and  C_16
REMARK    5  A    between atoms: C_16  and  C_19
REMARK    6  A    between atoms: C_21  and  C_22
REMARK    7  A    between atoms: C_22  and  C_25
REMARK    8  A    between atoms: C_27  and  O_30
REMARK    9  A    between atoms: O_30  and  C_32
REMARK                            x       y       z     vdW  Elec       q    Type
REMARK                         _______ _______ _______ _____ _____    ______ ____
ROOT
ATOM      1  C   UNL     1      32.657  -9.022 -24.015  0.00  0.00    +0.062 C 
ATOM      2  C   UNL     1      33.628 -10.146 -23.546  0.00  0.00    +0.012 C 
ATOM      3  C   UNL     1      31.264  -9.099 -23.348  0.00  0.00    +0.173 C 
ATOM      4  C   UNL     1      35.007 -10.035 -24.260  0.00  0.00    +0.022 C 
ATOM      5  C   UNL     1      33.296  -7.648 -23.836  0.00  0.00    -0.024 C 
ATOM      6  C   UNL     1      30.417  -7.869 -23.690  0.00  0.00    +0.048 C 
ATOM      7  C   UNL     1      31.089  -6.539 -23.305  0.00  0.00    +0.025 C 
ATOM      8  C   UNL     1      32.579  -6.554 -23.518  0.00  0.00    -0.030 C 
ATOM      9  C   UNL     1      35.515  -8.617 -24.238  0.00  0.00    -0.027 C 
ATOM     10  C   UNL     1      34.731  -7.551 -24.028  0.00  0.00    -0.009 C 
ATOM     11  C   UNL     1      35.018 -10.546 -25.705  0.00  0.00    +0.005 C 
ATOM     12  C   UNL     1      30.772  -6.127 -21.865  0.00  0.00    +0.005 C 
ENDROOT
BRANCH   3  13
ATOM     13  O   UNL     1      31.394  -9.234 -21.937  0.00  0.00    -0.452 OA
BRANCH  13  15
ATOM     14  O   UNL     1      30.156 -11.171 -21.958  0.00  0.00    -0.250 OA
ATOM     15  C   UNL     1      30.934 -10.407 -21.401  0.00  0.00    +0.316 C 
BRANCH  15  16
ATOM     16  C   UNL     1      31.519 -10.634 -20.001  0.00  0.00    +0.090 C 
ATOM     17  C   UNL     1      30.375 -10.515 -18.976  0.00  0.00    +0.011 C 
ATOM     18  C   UNL     1      32.098 -12.057 -19.910  0.00  0.00    +0.011 C 
BRANCH  16  19
ATOM     19  C   UNL     1      32.604  -9.577 -19.679  0.00  0.00    +0.011 C 
ATOM     20  C   UNL     1      32.070  -8.193 -19.329  0.00  0.00    +0.001 C 
ENDBRANCH  16  19
ENDBRANCH  15  16
ENDBRANCH  13  15
ENDBRANCH   3  13
BRANCH   2  21
ATOM     21  C   UNL     1      33.029 -11.549 -23.689  0.00  0.00    +0.004 C 
BRANCH  21  22
ATOM     22  C   UNL     1      33.868 -12.410 -24.625  0.00  0.00    +0.044 C 
BRANCH  22  25
ATOM     23  O   UNL     1      34.380 -13.473 -22.544  0.00  0.00    -0.452 OA
ATOM     24  O   UNL     1      34.782 -14.289 -20.485  0.00  0.00    -0.250 OA
ATOM     25  C   UNL     1      34.253 -13.725 -23.960  0.00  0.00    +0.172 C 
ATOM     26  C   UNL     1      33.236 -14.814 -24.265  0.00  0.00    +0.088 C 
ATOM     27  C   UNL     1      33.575 -16.057 -23.462  0.00  0.00    +0.184 C 
ATOM     28  C   UNL     1      33.607 -15.730 -21.983  0.00  0.00    +0.153 C 
ATOM     29  C   UNL     1      34.339 -14.461 -21.619  0.00  0.00    +0.321 C 
BRANCH  27  30
ATOM     30  O   UNL     1      34.843 -16.576 -23.851  0.00  0.00    -0.452 OA
BRANCH  30  32
ATOM     31  O   UNL     1      34.596 -17.645 -25.884  0.00  0.00    -0.250 OA
ATOM     32  C   UNL     1      34.812 -17.662 -24.680  0.00  0.00    +0.317 C 
ATOM     33  C   UNL     1      35.085 -18.909 -23.894  0.00  0.00    +0.121 C 
ENDBRANCH  30  32
ENDBRANCH  27  30
ENDBRANCH  22  25
ENDBRANCH  21  22
ENDBRANCH   2  21
TORSDOF 9
ENDMDL
MODEL 5
REMARK VINA RESULT:      -7.2      2.362      7.424
REMARK  Name = 11812557
REMARK  9 active torsions:
REMARK  status: ('A' for Active; 'I' for Inactive)
REMARK    1  A    between atoms: C_2  and  C_21
REMARK    2  A    between atoms: C_3  and  O_13
REMARK    3  A    between atoms: O_13  and  C_15
REMARK    4  A    between atoms: C_15  and  C_16
REMARK    5  A    between atoms: C_16  and  C_19
REMARK    6  A    between atoms: C_21  and  C_22
REMARK    7  A    between atoms: C_22  and  C_25
REMARK    8  A    between atoms: C_27  and  O_30
REMARK    9  A    between atoms: O_30  and  C_32
REMARK                            x       y       z     vdW  Elec       q    Type
REMARK                         _______ _______ _______ _____ _____    ______ ____
ROOT
ATOM      1  C   UNL     1      33.943 -12.857 -23.619  0.00  0.00    +0.062 C 
ATOM      2  C   UNL     1      33.185 -11.735 -24.389  0.00  0.00    +0.012 C 
ATOM      3  C   UNL     1      33.716 -12.812 -22.090  0.00  0.00    +0.173 C 
ATOM      4  C   UNL     1      33.463 -11.814 -25.919  0.00  0.00    +0.022 C 
ATOM      5  C   UNL     1      33.612 -14.229 -24.200  0.00  0.00    -0.024 C 
ATOM      6  C   UNL     1      34.319 -14.041 -21.403  0.00  0.00    +0.048 C 
ATOM      7  C   UNL     1      33.781 -15.374 -21.954  0.00  0.00    +0.025 C 
ATOM      8  C   UNL     1      33.544 -15.338 -23.441  0.00  0.00    -0.030 C 
ATOM      9  C   UNL     1      33.321 -13.227 -26.422  0.00  0.00    -0.027 C 
ATOM     10  C   UNL     1      33.375 -14.306 -25.630  0.00  0.00    -0.009 C 
ATOM     11  C   UNL     1      34.828 -11.267 -26.347  0.00  0.00    +0.005 C 
ATOM     12  C   UNL     1      32.507 -15.825 -21.234  0.00  0.00    +0.005 C 
ENDROOT
BRANCH   3  13
ATOM     13  O   UNL     1      32.327 -12.711 -21.796  0.00  0.00    -0.452 OA
BRANCH  13  15
ATOM     14  O   UNL     1      32.209 -13.056 -19.526  0.00  0.00    -0.250 OA
ATOM     15  C   UNL     1      32.009 -12.357 -20.511  0.00  0.00    +0.316 C 
BRANCH  15  16
ATOM     16  C   UNL     1      31.361 -10.967 -20.473  0.00  0.00    +0.090 C 
ATOM     17  C   UNL     1      30.410 -10.846 -21.678  0.00  0.00    +0.011 C 
ATOM     18  C   UNL     1      30.526 -10.826 -19.188  0.00  0.00    +0.011 C 
BRANCH  16  19
ATOM     19  C   UNL     1      32.435  -9.855 -20.555  0.00  0.00    +0.011 C 
ATOM     20  C   UNL     1      32.006  -8.504 -19.993  0.00  0.00    +0.001 C 
ENDBRANCH  16  19
ENDBRANCH  15  16
ENDBRANCH  13  15
ENDBRANCH   3  13
BRANCH   2  21
ATOM     21  C   UNL     1      33.470 -10.335 -23.834  0.00  0.00    +0.004 C 
BRANCH  21  22
ATOM     22  C   UNL     1      32.187  -9.524 -23.712  0.00  0.00    +0.044 C 
BRANCH  22  25
ATOM     23  O   UNL     1      33.719  -7.824 -24.412  0.00  0.00    -0.452 OA
ATOM     24  O   UNL     1      35.252  -6.380 -25.206  0.00  0.00    -0.250 OA
ATOM     25  C   UNL     1      32.485  -8.030 -23.692  0.00  0.00    +0.172 C 
ATOM     26  C   UNL     1      31.331  -7.232 -24.281  0.00  0.00    +0.088 C 
ATOM     27  C   UNL     1      31.731  -5.771 -24.382  0.00  0.00    +0.184 C 
ATOM     28  C   UNL     1      32.985  -5.630 -25.221  0.00  0.00    +0.153 C 
ATOM     29  C   UNL     1      34.083  -6.619 -24.910  0.00  0.00    +0.321 C 
BRANCH  27  30
ATOM     30  O   UNL     1      31.973  -5.226 -23.089  0.00  0.00    -0.452 OA
BRANCH  30  32
ATOM     31  O   UNL     1      30.462  -3.492 -22.874  0.00  0.00    -0.250 OA
ATOM     32  C   UNL     1      30.922  -4.567 -22.516  0.00  0.00    +0.317 C 
ATOM     33  C   UNL     1      30.394  -5.362 -21.360  0.00  0.00    +0.121 C 
ENDBRANCH  30  32
ENDBRANCH  27  30
ENDBRANCH  22  25
ENDBRANCH  21  22
ENDBRANCH   2  21
TORSDOF 9
ENDMDL
MODEL 6
REMARK VINA RESULT:      -7.0      1.742      4.221
REMARK  Name = 11812557
REMARK  9 active torsions:
REMARK  status: ('A' for Active; 'I' for Inactive)
REMARK    1  A    between atoms: C_2  and  C_21
REMARK    2  A    between atoms: C_3  and  O_13
REMARK    3  A    between atoms: O_13  and  C_15
REMARK    4  A    between atoms: C_15  and  C_16
REMARK    5  A    between atoms: C_16  and  C_19
REMARK    6  A    between atoms: C_21  and  C_22
REMARK    7  A    between atoms: C_22  and  C_25
REMARK    8  A    between atoms: C_27  and  O_30
REMARK    9  A    between atoms: O_30  and  C_32
REMARK                            x       y       z     vdW  Elec       q    Type
REMARK                         _______ _______ _______ _____ _____    ______ ____
ROOT
ATOM      1  C   UNL     1      32.713  -9.795 -21.286  0.00  0.00    +0.062 C 
ATOM      2  C   UNL     1      32.202 -10.861 -22.301  0.00  0.00    +0.012 C 
ATOM      3  C   UNL     1      33.365  -8.567 -21.963  0.00  0.00    +0.173 C 
ATOM      4  C   UNL     1      31.575 -12.082 -21.570  0.00  0.00    +0.022 C 
ATOM      5  C   UNL     1      31.599  -9.388 -20.326  0.00  0.00    -0.024 C 
ATOM      6  C   UNL     1      33.671  -7.468 -20.940  0.00  0.00    +0.048 C 
ATOM      7  C   UNL     1      32.434  -7.010 -20.146  0.00  0.00    +0.025 C 
ATOM      8  C   UNL     1      31.492  -8.142 -19.830  0.00  0.00    -0.030 C 
ATOM      9  C   UNL     1      30.626 -11.636 -20.488  0.00  0.00    -0.027 C 
ATOM     10  C   UNL     1      30.639 -10.410 -19.948  0.00  0.00    -0.009 C 
ATOM     11  C   UNL     1      32.593 -13.057 -20.969  0.00  0.00    +0.005 C 
ATOM     12  C   UNL     1      31.678  -5.884 -20.854  0.00  0.00    +0.005 C 
ENDROOT
BRANCH   3  13
ATOM     13  O   UNL     1      32.524  -8.063 -22.995  0.00  0.00    -0.452 OA
BRANCH  13  15
ATOM     14  O   UNL     1      34.305  -7.262 -24.209  0.00  0.00    -0.250 OA
ATOM     15  C   UNL     1      33.120  -7.225 -23.900  0.00  0.00    +0.316 C 
BRANCH  15  16
ATOM     16  C   UNL     1      32.105  -6.226 -24.470  0.00  0.00    +0.090 C 
ATOM     17  C   UNL     1      30.761  -6.956 -24.649  0.00  0.00    +0.011 C 
ATOM     18  C   UNL     1      31.897  -5.077 -23.468  0.00  0.00    +0.011 C 
BRANCH  16  19
ATOM     19  C   UNL     1      32.577  -5.682 -25.841  0.00  0.00    +0.011 C 
ATOM     20  C   UNL     1      32.321  -4.195 -26.064  0.00  0.00    +0.001 C 
ENDBRANCH  16  19
ENDBRANCH  15  16
ENDBRANCH  13  15
ENDBRANCH   3  13
BRANCH   2  21
ATOM     21  C   UNL     1      33.280 -11.294 -23.302  0.00  0.00    +0.004 C 
BRANCH  21  22
ATOM     22  C   UNL     1      32.689 -12.174 -24.395  0.00  0.00    +0.044 C 
BRANCH  22  25
ATOM     23  O   UNL     1      32.797 -14.354 -25.375  0.00  0.00    -0.452 OA
ATOM     24  O   UNL     1      32.886 -16.303 -26.498  0.00  0.00    -0.250 OA
ATOM     25  C   UNL     1      32.984 -13.645 -24.131  0.00  0.00    +0.172 C 
ATOM     26  C   UNL     1      34.383 -13.832 -23.563  0.00  0.00    +0.088 C 
ATOM     27  C   UNL     1      34.690 -15.315 -23.461  0.00  0.00    +0.184 C 
ATOM     28  C   UNL     1      34.553 -15.971 -24.820  0.00  0.00    +0.153 C 
ATOM     29  C   UNL     1      33.323 -15.580 -25.604  0.00  0.00    +0.321 C 
BRANCH  27  30
ATOM     30  O   UNL     1      33.801 -15.950 -22.547  0.00  0.00    -0.452 OA
BRANCH  30  32
ATOM     31  O   UNL     1      34.836 -15.803 -20.487  0.00  0.00    -0.250 OA
ATOM     32  C   UNL     1      34.375 -16.454 -21.414  0.00  0.00    +0.317 C 
ATOM     33  C   UNL     1      34.361 -17.952 -21.462  0.00  0.00    +0.121 C 
ENDBRANCH  30  32
ENDBRANCH  27  30
ENDBRANCH  22  25
ENDBRANCH  21  22
ENDBRANCH   2  21
TORSDOF 9
ENDMDL
MODEL 7
REMARK VINA RESULT:      -7.0     11.018     14.499
REMARK  Name = 11812557
REMARK  9 active torsions:
REMARK  status: ('A' for Active; 'I' for Inactive)
REMARK    1  A    between atoms: C_2  and  C_21
REMARK    2  A    between atoms: C_3  and  O_13
REMARK    3  A    between atoms: O_13  and  C_15
REMARK    4  A    between atoms: C_15  and  C_16
REMARK    5  A    between atoms: C_16  and  C_19
REMARK    6  A    between atoms: C_21  and  C_22
REMARK    7  A    between atoms: C_22  and  C_25
REMARK    8  A    between atoms: C_27  and  O_30
REMARK    9  A    between atoms: O_30  and  C_32
REMARK                            x       y       z     vdW  Elec       q    Type
REMARK                         _______ _______ _______ _____ _____    ______ ____
ROOT
ATOM      1  C   UNL     1      35.124 -22.246 -17.230  0.00  0.00    +0.062 C 
ATOM      2  C   UNL     1      34.313 -23.083 -18.264  0.00  0.00    +0.012 C 
ATOM      3  C   UNL     1      35.293 -22.955 -15.866  0.00  0.00    +0.173 C 
ATOM      4  C   UNL     1      34.156 -22.317 -19.610  0.00  0.00    +0.022 C 
ATOM      5  C   UNL     1      36.467 -21.819 -17.816  0.00  0.00    -0.024 C 
ATOM      6  C   UNL     1      36.256 -22.185 -14.957  0.00  0.00    +0.048 C 
ATOM      7  C   UNL     1      37.643 -21.962 -15.584  0.00  0.00    +0.025 C 
ATOM      8  C   UNL     1      37.578 -21.700 -17.066  0.00  0.00    -0.030 C 
ATOM      9  C   UNL     1      35.472 -21.736 -20.059  0.00  0.00    -0.027 C 
ATOM     10  C   UNL     1      36.512 -21.533 -19.238  0.00  0.00    -0.009 C 
ATOM     11  C   UNL     1      33.101 -21.207 -19.592  0.00  0.00    +0.005 C 
ATOM     12  C   UNL     1      38.599 -23.124 -15.302  0.00  0.00    +0.005 C 
ENDROOT
BRANCH   3  13
ATOM     13  O   UNL     1      35.749 -24.291 -16.052  0.00  0.00    -0.452 OA
BRANCH  13  15
ATOM     14  O   UNL     1      34.570 -25.124 -14.262  0.00  0.00    -0.250 OA
ATOM     15  C   UNL     1      35.546 -25.146 -15.002  0.00  0.00    +0.316 C 
BRANCH  15  16
ATOM     16  C   UNL     1      36.712 -26.134 -14.870  0.00  0.00    +0.090 C 
ATOM     17  C   UNL     1      36.415 -27.351 -15.766  0.00  0.00    +0.011 C 
ATOM     18  C   UNL     1      38.006 -25.472 -15.374  0.00  0.00    +0.011 C 
BRANCH  16  19
ATOM     19  C   UNL     1      36.871 -26.607 -13.404  0.00  0.00    +0.011 C 
ATOM     20  C   UNL     1      37.816 -25.764 -12.555  0.00  0.00    +0.001 C 
ENDBRANCH  16  19
ENDBRANCH  15  16
ENDBRANCH  13  15
ENDBRANCH   3  13
BRANCH   2  21
ATOM     21  C   UNL     1      32.960 -23.552 -17.719  0.00  0.00    +0.004 C 
BRANCH  21  22
ATOM     22  C   UNL     1      32.011 -22.377 -17.523  0.00  0.00    +0.044 C 
BRANCH  22  25
ATOM     23  O   UNL     1      29.689 -22.159 -16.991  0.00  0.00    -0.452 OA
ATOM     24  O   UNL     1      27.473 -21.884 -16.703  0.00  0.00    -0.250 OA
ATOM     25  C   UNL     1      30.930 -22.711 -16.503  0.00  0.00    +0.172 C 
ATOM     26  C   UNL     1      30.842 -24.212 -16.268  0.00  0.00    +0.088 C 
ATOM     27  C   UNL     1      29.657 -24.511 -15.368  0.00  0.00    +0.184 C 
ATOM     28  C   UNL     1      28.382 -23.973 -15.987  0.00  0.00    +0.153 C 
ATOM     29  C   UNL     1      28.479 -22.574 -16.549  0.00  0.00    +0.321 C 
BRANCH  27  30
ATOM     30  O   UNL     1      29.837 -23.916 -14.086  0.00  0.00    -0.452 OA
BRANCH  30  32
ATOM     31  O   UNL     1      31.362 -25.347 -13.105  0.00  0.00    -0.250 OA
ATOM     32  C   UNL     1      31.003 -24.228 -13.446  0.00  0.00    +0.317 C 
ATOM     33  C   UNL     1      31.803 -22.982 -13.213  0.00  0.00    +0.121 C 
ENDBRANCH  30  32
ENDBRANCH  27  30
ENDBRANCH  22  25
ENDBRANCH  21  22
ENDBRANCH   2  21
TORSDOF 9
ENDMDL
MODEL 8
REMARK VINA RESULT:      -7.0      8.018     12.748
REMARK  Name = 11812557
REMARK  9 active torsions:
REMARK  status: ('A' for Active; 'I' for Inactive)
REMARK    1  A    between atoms: C_2  and  C_21
REMARK    2  A    between atoms: C_3  and  O_13
REMARK    3  A    between atoms: O_13  and  C_15
REMARK    4  A    between atoms: C_15  and  C_16
REMARK    5  A    between atoms: C_16  and  C_19
REMARK    6  A    between atoms: C_21  and  C_22
REMARK    7  A    between atoms: C_22  and  C_25
REMARK    8  A    between atoms: C_27  and  O_30
REMARK    9  A    between atoms: O_30  and  C_32
REMARK                            x       y       z     vdW  Elec       q    Type
REMARK                         _______ _______ _______ _____ _____    ______ ____
ROOT
ATOM      1  C   UNL     1      35.265 -22.602 -18.146  0.00  0.00    +0.062 C 
ATOM      2  C   UNL     1      34.080 -22.507 -17.140  0.00  0.00    +0.012 C 
ATOM      3  C   UNL     1      34.910 -22.088 -19.561  0.00  0.00    +0.173 C 
ATOM      4  C   UNL     1      34.483 -23.054 -15.740  0.00  0.00    +0.022 C 
ATOM      5  C   UNL     1      36.505 -21.911 -17.587  0.00  0.00    -0.024 C 
ATOM      6  C   UNL     1      36.153 -22.021 -20.454  0.00  0.00    +0.048 C 
ATOM      7  C   UNL     1      37.280 -21.151 -19.869  0.00  0.00    +0.025 C 
ATOM      8  C   UNL     1      37.390 -21.269 -18.371  0.00  0.00    -0.030 C 
ATOM      9  C   UNL     1      35.816 -22.501 -15.306  0.00  0.00    -0.027 C 
ATOM     10  C   UNL     1      36.711 -21.973 -16.152  0.00  0.00    -0.009 C 
ATOM     11  C   UNL     1      34.521 -24.583 -15.640  0.00  0.00    +0.005 C 
ATOM     12  C   UNL     1      37.141 -19.680 -20.267  0.00  0.00    +0.005 C 
ENDROOT
BRANCH   3  13
ATOM     13  O   UNL     1      34.285 -20.811 -19.485  0.00  0.00    -0.452 OA
BRANCH  13  15
ATOM     14  O   UNL     1      32.373 -21.276 -20.673  0.00  0.00    -0.250 OA
ATOM     15  C   UNL     1      33.331 -20.552 -20.432  0.00  0.00    +0.316 C 
BRANCH  15  16
ATOM     16  C   UNL     1      33.626 -19.234 -21.158  0.00  0.00    +0.090 C 
ATOM     17  C   UNL     1      32.390 -18.323 -21.023  0.00  0.00    +0.011 C 
ATOM     18  C   UNL     1      34.815 -18.530 -20.481  0.00  0.00    +0.011 C 
BRANCH  16  19
ATOM     19  C   UNL     1      33.915 -19.483 -22.658  0.00  0.00    +0.011 C 
ATOM     20  C   UNL     1      35.140 -18.758 -23.206  0.00  0.00    +0.001 C 
ENDBRANCH  16  19
ENDBRANCH  15  16
ENDBRANCH  13  15
ENDBRANCH   3  13
BRANCH   2  21
ATOM     21  C   UNL     1      32.801 -23.173 -17.660  0.00  0.00    +0.004 C 
BRANCH  21  22
ATOM     22  C   UNL     1      31.603 -22.244 -17.516  0.00  0.00    +0.044 C 
BRANCH  22  25
ATOM     23  O   UNL     1      29.295 -22.433 -16.912  0.00  0.00    -0.452 OA
ATOM     24  O   UNL     1      27.076 -22.547 -16.554  0.00  0.00    -0.250 OA
ATOM     25  C   UNL     1      30.628 -22.767 -16.469  0.00  0.00    +0.172 C 
ATOM     26  C   UNL     1      30.807 -24.263 -16.250  0.00  0.00    +0.088 C 
ATOM     27  C   UNL     1      29.721 -24.768 -15.319  0.00  0.00    +0.184 C 
ATOM     28  C   UNL     1      28.354 -24.453 -15.892  0.00  0.00    +0.153 C 
ATOM     29  C   UNL     1      28.190 -23.055 -16.438  0.00  0.00    +0.321 C 
BRANCH  27  30
ATOM     30  O   UNL     1      29.837 -24.161 -14.035  0.00  0.00    -0.452 OA
BRANCH  30  32
ATOM     31  O   UNL     1      31.564 -25.373 -13.094  0.00  0.00    -0.250 OA
ATOM     32  C   UNL     1      31.045 -24.312 -13.415  0.00  0.00    +0.317 C 
ATOM     33  C   UNL     1      31.664 -22.969 -13.174  0.00  0.00    +0.121 C 
ENDBRANCH  30  32
ENDBRANCH  27  30
ENDBRANCH  22  25
ENDBRANCH  21  22
ENDBRANCH   2  21
TORSDOF 9
ENDMDL
MODEL 9
REMARK VINA RESULT:      -6.9      7.030     13.146
REMARK  Name = 11812557
REMARK  9 active torsions:
REMARK  status: ('A' for Active; 'I' for Inactive)
REMARK    1  A    between atoms: C_2  and  C_21
REMARK    2  A    between atoms: C_3  and  O_13
REMARK    3  A    between atoms: O_13  and  C_15
REMARK    4  A    between atoms: C_15  and  C_16
REMARK    5  A    between atoms: C_16  and  C_19
REMARK    6  A    between atoms: C_21  and  C_22
REMARK    7  A    between atoms: C_22  and  C_25
REMARK    8  A    between atoms: C_27  and  O_30
REMARK    9  A    between atoms: O_30  and  C_32
REMARK                            x       y       z     vdW  Elec       q    Type
REMARK                         _______ _______ _______ _____ _____    ______ ____
ROOT
ATOM      1  C   UNL     1      33.390 -23.014 -15.219  0.00  0.00    +0.062 C 
ATOM      2  C   UNL     1      33.883 -23.178 -16.687  0.00  0.00    +0.012 C 
ATOM      3  C   UNL     1      31.895 -22.631 -15.113  0.00  0.00    +0.173 C 
ATOM      4  C   UNL     1      35.395 -23.543 -16.737  0.00  0.00    +0.022 C 
ATOM      5  C   UNL     1      33.715 -24.259 -14.399  0.00  0.00    -0.024 C 
ATOM      6  C   UNL     1      31.413 -22.674 -13.660  0.00  0.00    +0.048 C 
ATOM      7  C   UNL     1      31.634 -24.038 -12.983  0.00  0.00    +0.025 C 
ATOM      8  C   UNL     1      32.919 -24.699 -13.407  0.00  0.00    -0.030 C 
ATOM      9  C   UNL     1      35.718 -24.646 -15.764  0.00  0.00    -0.027 C 
ATOM     10  C   UNL     1      34.939 -24.968 -14.722  0.00  0.00    -0.009 C 
ATOM     11  C   UNL     1      36.344 -22.365 -16.488  0.00  0.00    +0.005 C 
ATOM     12  C   UNL     1      30.458 -24.991 -13.207  0.00  0.00    +0.005 C 
ENDROOT
BRANCH   3  13
ATOM     13  O   UNL     1      31.103 -23.493 -15.924  0.00  0.00    -0.452 OA
BRANCH  13  15
ATOM     14  O   UNL     1      30.393 -22.037 -17.556  0.00  0.00    -0.250 OA
ATOM     15  C   UNL     1      30.155 -22.882 -16.701  0.00  0.00    +0.316 C 
BRANCH  15  16
ATOM     16  C   UNL     1      28.751 -23.393 -16.354  0.00  0.00    +0.090 C 
ATOM     17  C   UNL     1      28.856 -24.889 -16.005  0.00  0.00    +0.011 C 
ATOM     18  C   UNL     1      28.226 -22.648 -15.114  0.00  0.00    +0.011 C 
BRANCH  16  19
ATOM     19  C   UNL     1      27.787 -23.215 -17.552  0.00  0.00    +0.011 C 
ATOM     20  C   UNL     1      26.852 -22.014 -17.452  0.00  0.00    +0.001 C 
ENDBRANCH  16  19
ENDBRANCH  15  16
ENDBRANCH  13  15
ENDBRANCH   3  13
BRANCH   2  21
ATOM     21  C   UNL     1      33.567 -21.959 -17.561  0.00  0.00    +0.004 C 
BRANCH  21  22
ATOM     22  C   UNL     1      34.135 -22.129 -18.964  0.00  0.00    +0.044 C 
BRANCH  22  25
ATOM     23  O   UNL     1      35.869 -20.699 -19.782  0.00  0.00    -0.452 OA
ATOM     24  O   UNL     1      37.639 -19.532 -20.541  0.00  0.00    -0.250 OA
ATOM     25  C   UNL     1      34.440 -20.778 -19.598  0.00  0.00    +0.172 C 
ATOM     26  C   UNL     1      33.678 -20.599 -20.903  0.00  0.00    +0.088 C 
ATOM     27  C   UNL     1      34.126 -19.313 -21.574  0.00  0.00    +0.184 C 
ATOM     28  C   UNL     1      35.623 -19.342 -21.808  0.00  0.00    +0.153 C 
ATOM     29  C   UNL     1      36.449 -19.828 -20.641  0.00  0.00    +0.321 C 
BRANCH  27  30
ATOM     30  O   UNL     1      33.804 -18.186 -20.766  0.00  0.00    -0.452 OA
BRANCH  30  32
ATOM     31  O   UNL     1      35.169 -16.369 -20.355  0.00  0.00    -0.250 OA
ATOM     32  C   UNL     1      34.442 -17.022 -21.090  0.00  0.00    +0.317 C 
ATOM     33  C   UNL     1      34.122 -16.644 -22.505  0.00  0.00    +0.121 C 
ENDBRANCH  30  32
ENDBRANCH  27  30
ENDBRANCH  22  25
ENDBRANCH  21  22
ENDBRANCH   2  21
TORSDOF 9
ENDMDL
