MODEL 1
REMARK VINA RESULT:     -10.3      0.000      0.000
REMARK  Name = 1116191
REMARK  3 active torsions:
REMARK  status: ('A' for Active; 'I' for Inactive)
REMARK    1  A    between atoms: N_2  and  C_7
REMARK    2  A    between atoms: C_4  and  C_15
REMARK    3  A    between atoms: N_14  and  C_18
REMARK                            x       y       z     vdW  Elec       q    Type
REMARK                         _______ _______ _______ _____ _____    ______ ____
ROOT
ATOM      1  O   UNL     1      32.630  -8.703 -19.770  0.00  0.00    -0.275 OA
ATOM      2  N   UNL     1      31.824  -8.959 -21.964  0.00  0.00    -0.281 N 
ATOM      3  C   UNL     1      31.038  -9.923 -22.699  0.00  0.00    +0.103 C 
ATOM      4  C   UNL     1      31.132 -11.184 -21.858  0.00  0.00    +0.106 C 
ATOM      5  C   UNL     1      31.415 -10.689 -20.441  0.00  0.00    +0.096 C 
ATOM      6  C   UNL     1      32.054  -9.335 -20.646  0.00  0.00    +0.226 C 
ENDROOT
BRANCH   2   7
ATOM      7  C   UNL     1      32.193  -7.692 -22.545  0.00  0.00    +0.075 C 
ATOM      8  C   UNL     1      33.280  -7.877 -23.608  0.00  0.00    +0.020 C 
ATOM      9  C   UNL     1      30.962  -6.988 -23.124  0.00  0.00    +0.020 C 
ATOM     10  C   UNL     1      33.646  -6.554 -24.275  0.00  0.00    +0.002 C 
ATOM     11  C   UNL     1      31.332  -5.666 -23.793  0.00  0.00    +0.002 C 
ATOM     12  C   UNL     1      32.418  -5.854 -24.849  0.00  0.00    +0.000 C 
ENDBRANCH   2   7
BRANCH   4  15
ATOM     13  O   UNL     1      32.968 -11.754 -23.256  0.00  0.00    -0.275 OA
ATOM     14  N   UNL     1      32.247 -13.279 -21.615  0.00  0.00    -0.284 N 
ATOM     15  C   UNL     1      32.229 -12.092 -22.337  0.00  0.00    +0.228 C 
ATOM     16  H   UNL     1      31.566 -13.370 -20.910  0.00  0.00    +0.155 HD
BRANCH  14  18
ATOM     17 BR   UNL     1      34.499 -16.712 -24.914  0.00  0.00    -0.049 Br
ATOM     18  C   UNL     1      33.133 -14.371 -21.776  0.00  0.00    +0.051 C 
ATOM     19  C   UNL     1      33.334 -14.899 -23.040  0.00  0.00    +0.021 C 
ATOM     20  C   UNL     1      33.780 -14.887 -20.665  0.00  0.00    +0.015 C 
ATOM     21  C   UNL     1      34.208 -15.975 -23.197  0.00  0.00    +0.036 C 
ATOM     22  C   UNL     1      34.653 -15.963 -20.823  0.00  0.00    +0.002 C 
ATOM     23  C   UNL     1      34.867 -16.507 -22.090  0.00  0.00    +0.007 C 
ENDBRANCH  14  18
ENDBRANCH   4  15
TORSDOF 3
ENDMDL
MODEL 2
REMARK VINA RESULT:     -10.2      1.432      1.899
REMARK  Name = 1116191
REMARK  3 active torsions:
REMARK  status: ('A' for Active; 'I' for Inactive)
REMARK    1  A    between atoms: N_2  and  C_7
REMARK    2  A    between atoms: C_4  and  C_15
REMARK    3  A    between atoms: N_14  and  C_18
REMARK                            x       y       z     vdW  Elec       q    Type
REMARK                         _______ _______ _______ _____ _____    ______ ____
ROOT
ATOM      1  O   UNL     1      32.321  -8.943 -19.180  0.00  0.00    -0.275 OA
ATOM      2  N   UNL     1      32.045  -9.421 -21.465  0.00  0.00    -0.281 N 
ATOM      3  C   UNL     1      31.276 -10.341 -22.271  0.00  0.00    +0.103 C 
ATOM      4  C   UNL     1      30.885 -11.437 -21.295  0.00  0.00    +0.106 C 
ATOM      5  C   UNL     1      30.909 -10.766 -19.923  0.00  0.00    +0.096 C 
ATOM      6  C   UNL     1      31.857  -9.601 -20.100  0.00  0.00    +0.226 C 
ENDROOT
BRANCH   2   7
ATOM      7  C   UNL     1      32.811  -8.356 -22.066  0.00  0.00    +0.075 C 
ATOM      8  C   UNL     1      33.734  -8.902 -23.160  0.00  0.00    +0.020 C 
ATOM      9  C   UNL     1      31.882  -7.269 -22.612  0.00  0.00    +0.020 C 
ATOM     10  C   UNL     1      34.514  -7.784 -23.846  0.00  0.00    +0.002 C 
ATOM     11  C   UNL     1      32.665  -6.153 -23.301  0.00  0.00    +0.002 C 
ATOM     12  C   UNL     1      33.587  -6.701 -24.388  0.00  0.00    +0.000 C 
ENDBRANCH   2   7
BRANCH   4  15
ATOM     13  O   UNL     1      32.377 -13.010 -20.321  0.00  0.00    -0.275 OA
ATOM     14  N   UNL     1      32.002 -13.057 -22.643  0.00  0.00    -0.284 N 
ATOM     15  C   UNL     1      31.843 -12.592 -21.343  0.00  0.00    +0.228 C 
ATOM     16  H   UNL     1      31.486 -12.588 -23.338  0.00  0.00    +0.155 HD
BRANCH  14  18
ATOM     17 BR   UNL     1      34.980 -17.194 -21.318  0.00  0.00    -0.049 Br
ATOM     18  C   UNL     1      32.818 -14.126 -23.082  0.00  0.00    +0.051 C 
ATOM     19  C   UNL     1      33.388 -14.972 -22.145  0.00  0.00    +0.021 C 
ATOM     20  C   UNL     1      33.028 -14.304 -24.440  0.00  0.00    +0.015 C 
ATOM     21  C   UNL     1      34.192 -16.026 -22.579  0.00  0.00    +0.036 C 
ATOM     22  C   UNL     1      33.832 -15.358 -24.873  0.00  0.00    +0.002 C 
ATOM     23  C   UNL     1      34.414 -16.220 -23.942  0.00  0.00    +0.007 C 
ENDBRANCH  14  18
ENDBRANCH   4  15
TORSDOF 3
ENDMDL
MODEL 3
REMARK VINA RESULT:     -10.0      4.392      6.786
REMARK  Name = 1116191
REMARK  3 active torsions:
REMARK  status: ('A' for Active; 'I' for Inactive)
REMARK    1  A    between atoms: N_2  and  C_7
REMARK    2  A    between atoms: C_4  and  C_15
REMARK    3  A    between atoms: N_14  and  C_18
REMARK                            x       y       z     vdW  Elec       q    Type
REMARK                         _______ _______ _______ _____ _____    ______ ____
ROOT
ATOM      1  O   UNL     1      32.683 -15.359 -25.981  0.00  0.00    -0.275 OA
ATOM      2  N   UNL     1      33.693 -15.160 -23.867  0.00  0.00    -0.281 N 
ATOM      3  C   UNL     1      34.903 -15.616 -23.223  0.00  0.00    +0.103 C 
ATOM      4  C   UNL     1      35.358 -16.780 -24.086  0.00  0.00    +0.106 C 
ATOM      5  C   UNL     1      34.754 -16.504 -25.463  0.00  0.00    +0.096 C 
ATOM      6  C   UNL     1      33.562 -15.622 -25.172  0.00  0.00    +0.226 C 
ENDROOT
BRANCH   2   7
ATOM      7  C   UNL     1      32.810 -14.217 -23.225  0.00  0.00    +0.075 C 
ATOM      8  C   UNL     1      32.796 -14.432 -21.709  0.00  0.00    +0.020 C 
ATOM      9  C   UNL     1      33.208 -12.782 -23.580  0.00  0.00    +0.020 C 
ATOM     10  C   UNL     1      31.910 -13.409 -21.004  0.00  0.00    +0.002 C 
ATOM     11  C   UNL     1      32.322 -11.760 -22.871  0.00  0.00    +0.002 C 
ATOM     12  C   UNL     1      32.307 -11.980 -21.361  0.00  0.00    +0.000 C 
ENDBRANCH   2   7
BRANCH   4  15
ATOM     13  O   UNL     1      34.523 -18.995 -24.299  0.00  0.00    -0.275 OA
ATOM     14  N   UNL     1      34.900 -18.101 -22.154  0.00  0.00    -0.284 N 
ATOM     15  C   UNL     1      34.876 -18.095 -23.544  0.00  0.00    +0.228 C 
ATOM     16  H   UNL     1      35.216 -17.277 -21.721  0.00  0.00    +0.155 HD
BRANCH  14  18
ATOM     17 BR   UNL     1      36.434 -21.780 -18.711  0.00  0.00    -0.049 Br
ATOM     18  C   UNL     1      34.522 -19.158 -21.292  0.00  0.00    +0.051 C 
ATOM     19  C   UNL     1      35.496 -19.820 -20.564  0.00  0.00    +0.021 C 
ATOM     20  C   UNL     1      33.184 -19.505 -21.194  0.00  0.00    +0.015 C 
ATOM     21  C   UNL     1      35.122 -20.861 -19.714  0.00  0.00    +0.036 C 
ATOM     22  C   UNL     1      32.811 -20.546 -20.344  0.00  0.00    +0.002 C 
ATOM     23  C   UNL     1      33.780 -21.225 -19.604  0.00  0.00    +0.007 C 
ENDBRANCH  14  18
ENDBRANCH   4  15
TORSDOF 3
ENDMDL
MODEL 4
REMARK VINA RESULT:      -9.6      5.748      8.351
REMARK  Name = 1116191
REMARK  3 active torsions:
REMARK  status: ('A' for Active; 'I' for Inactive)
REMARK    1  A    between atoms: N_2  and  C_7
REMARK    2  A    between atoms: C_4  and  C_15
REMARK    3  A    between atoms: N_14  and  C_18
REMARK                            x       y       z     vdW  Elec       q    Type
REMARK                         _______ _______ _______ _____ _____    ______ ____
ROOT
ATOM      1  O   UNL     1      33.766 -18.563 -25.216  0.00  0.00    -0.275 OA
ATOM      2  N   UNL     1      34.574 -16.944 -23.715  0.00  0.00    -0.281 N 
ATOM      3  C   UNL     1      35.649 -16.830 -22.756  0.00  0.00    +0.103 C 
ATOM      4  C   UNL     1      36.041 -18.271 -22.478  0.00  0.00    +0.106 C 
ATOM      5  C   UNL     1      35.617 -19.039 -23.729  0.00  0.00    +0.096 C 
ATOM      6  C   UNL     1      34.520 -18.190 -24.328  0.00  0.00    +0.226 C 
ENDROOT
BRANCH   2   7
ATOM      7  C   UNL     1      33.754 -15.809 -24.062  0.00  0.00    +0.075 C 
ATOM      8  C   UNL     1      34.210 -14.558 -23.305  0.00  0.00    +0.020 C 
ATOM      9  C   UNL     1      33.767 -15.580 -25.575  0.00  0.00    +0.020 C 
ATOM     10  C   UNL     1      33.390 -13.333 -23.699  0.00  0.00    +0.002 C 
ATOM     11  C   UNL     1      32.948 -14.352 -25.966  0.00  0.00    +0.002 C 
ATOM     12  C   UNL     1      33.402 -13.108 -25.207  0.00  0.00    +0.000 C 
ENDBRANCH   2   7
BRANCH   4  15
ATOM     13  O   UNL     1      34.505 -18.143 -20.669  0.00  0.00    -0.275 OA
ATOM     14  N   UNL     1      35.804 -20.086 -20.948  0.00  0.00    -0.284 N 
ATOM     15  C   UNL     1      35.349 -18.810 -21.258  0.00  0.00    +0.228 C 
ATOM     16  H   UNL     1      36.493 -20.458 -21.544  0.00  0.00    +0.155 HD
BRANCH  14  18
ATOM     17 BR   UNL     1      37.090 -22.467 -16.429  0.00  0.00    -0.049 Br
ATOM     18  C   UNL     1      35.389 -20.911 -19.876  0.00  0.00    +0.051 C 
ATOM     19  C   UNL     1      36.289 -21.220 -18.870  0.00  0.00    +0.021 C 
ATOM     20  C   UNL     1      34.089 -21.390 -19.856  0.00  0.00    +0.015 C 
ATOM     21  C   UNL     1      35.878 -22.032 -17.813  0.00  0.00    +0.036 C 
ATOM     22  C   UNL     1      33.679 -22.202 -18.799  0.00  0.00    +0.002 C 
ATOM     23  C   UNL     1      34.574 -22.524 -17.778  0.00  0.00    +0.007 C 
ENDBRANCH  14  18
ENDBRANCH   4  15
TORSDOF 3
ENDMDL
MODEL 5
REMARK VINA RESULT:      -9.3      3.368      8.361
REMARK  Name = 1116191
REMARK  3 active torsions:
REMARK  status: ('A' for Active; 'I' for Inactive)
REMARK    1  A    between atoms: N_2  and  C_7
REMARK    2  A    between atoms: C_4  and  C_15
REMARK    3  A    between atoms: N_14  and  C_18
REMARK                            x       y       z     vdW  Elec       q    Type
REMARK                         _______ _______ _______ _____ _____    ______ ____
ROOT
ATOM      1  O   UNL     1      34.316 -16.091 -26.123  0.00  0.00    -0.275 OA
ATOM      2  N   UNL     1      33.932 -15.437 -23.898  0.00  0.00    -0.281 N 
ATOM      3  C   UNL     1      33.038 -14.547 -23.193  0.00  0.00    +0.103 C 
ATOM      4  C   UNL     1      32.537 -13.606 -24.274  0.00  0.00    +0.106 C 
ATOM      5  C   UNL     1      32.675 -14.395 -25.575  0.00  0.00    +0.096 C 
ATOM      6  C   UNL     1      33.754 -15.411 -25.276  0.00  0.00    +0.226 C 
ENDROOT
BRANCH   2   7
ATOM      7  C   UNL     1      34.809 -16.336 -23.188  0.00  0.00    +0.075 C 
ATOM      8  C   UNL     1      34.414 -16.427 -21.711  0.00  0.00    +0.020 C 
ATOM      9  C   UNL     1      34.812 -17.716 -23.850  0.00  0.00    +0.020 C 
ATOM     10  C   UNL     1      35.296 -17.416 -20.953  0.00  0.00    +0.002 C 
ATOM     11  C   UNL     1      35.692 -18.704 -23.088  0.00  0.00    +0.002 C 
ATOM     12  C   UNL     1      35.299 -18.790 -21.616  0.00  0.00    +0.000 C 
ENDBRANCH   2   7
BRANCH   4  15
ATOM     13  O   UNL     1      34.362 -12.273 -25.009  0.00  0.00    -0.275 OA
ATOM     14  N   UNL     1      32.779 -11.352 -23.531  0.00  0.00    -0.284 N 
ATOM     15  C   UNL     1      33.345 -12.340 -24.328  0.00  0.00    +0.228 C 
ATOM     16  H   UNL     1      31.954 -11.597 -23.054  0.00  0.00    +0.155 HD
BRANCH  14  18
ATOM     17 BR   UNL     1      32.168  -6.754 -21.036  0.00  0.00    -0.049 Br
ATOM     18  C   UNL     1      33.252 -10.033 -23.330  0.00  0.00    +0.051 C 
ATOM     19  C   UNL     1      32.589  -9.203 -22.442  0.00  0.00    +0.021 C 
ATOM     20  C   UNL     1      34.370  -9.602 -24.026  0.00  0.00    +0.015 C 
ATOM     21  C   UNL     1      33.057  -7.904 -22.244  0.00  0.00    +0.036 C 
ATOM     22  C   UNL     1      34.837  -8.304 -23.828  0.00  0.00    +0.002 C 
ATOM     23  C   UNL     1      34.180  -7.454 -22.936  0.00  0.00    +0.007 C 
ENDBRANCH  14  18
ENDBRANCH   4  15
TORSDOF 3
ENDMDL
MODEL 6
REMARK VINA RESULT:      -9.3      1.102      1.260
REMARK  Name = 1116191
REMARK  3 active torsions:
REMARK  status: ('A' for Active; 'I' for Inactive)
REMARK    1  A    between atoms: N_2  and  C_7
REMARK    2  A    between atoms: C_4  and  C_15
REMARK    3  A    between atoms: N_14  and  C_18
REMARK                            x       y       z     vdW  Elec       q    Type
REMARK                         _______ _______ _______ _____ _____    ______ ____
ROOT
ATOM      1  O   UNL     1      33.060  -7.659 -20.063  0.00  0.00    -0.275 OA
ATOM      2  N   UNL     1      31.970  -7.944 -22.126  0.00  0.00    -0.281 N 
ATOM      3  C   UNL     1      31.091  -8.916 -22.736  0.00  0.00    +0.103 C 
ATOM      4  C   UNL     1      31.291 -10.164 -21.894  0.00  0.00    +0.106 C 
ATOM      5  C   UNL     1      31.761  -9.648 -20.535  0.00  0.00    +0.096 C 
ATOM      6  C   UNL     1      32.372  -8.300 -20.844  0.00  0.00    +0.226 C 
ENDROOT
BRANCH   2   7
ATOM      7  C   UNL     1      32.263  -6.688 -22.772  0.00  0.00    +0.075 C 
ATOM      8  C   UNL     1      32.379  -6.870 -24.288  0.00  0.00    +0.020 C 
ATOM      9  C   UNL     1      31.203  -5.642 -22.416  0.00  0.00    +0.020 C 
ATOM     10  C   UNL     1      32.634  -5.543 -24.996  0.00  0.00    +0.002 C 
ATOM     11  C   UNL     1      31.460  -4.316 -23.128  0.00  0.00    +0.002 C 
ATOM     12  C   UNL     1      31.578  -4.502 -24.639  0.00  0.00    +0.000 C 
ENDBRANCH   2   7
BRANCH   4  15
ATOM     13  O   UNL     1      33.164 -10.658 -23.272  0.00  0.00    -0.275 OA
ATOM     14  N   UNL     1      32.128 -12.391 -22.063  0.00  0.00    -0.284 N 
ATOM     15  C   UNL     1      32.312 -11.085 -22.499  0.00  0.00    +0.228 C 
ATOM     16  H   UNL     1      31.382 -12.541 -21.439  0.00  0.00    +0.155 HD
BRANCH  14  18
ATOM     17 BR   UNL     1      33.578 -15.768 -25.837  0.00  0.00    -0.049 Br
ATOM     18  C   UNL     1      32.890 -13.531 -22.414  0.00  0.00    +0.051 C 
ATOM     19  C   UNL     1      32.856 -13.995 -23.718  0.00  0.00    +0.021 C 
ATOM     20  C   UNL     1      33.656 -14.157 -21.443  0.00  0.00    +0.015 C 
ATOM     21  C   UNL     1      33.609 -15.118 -24.062  0.00  0.00    +0.036 C 
ATOM     22  C   UNL     1      34.408 -15.280 -21.788  0.00  0.00    +0.002 C 
ATOM     23  C   UNL     1      34.384 -15.761 -23.098  0.00  0.00    +0.007 C 
ENDBRANCH  14  18
ENDBRANCH   4  15
TORSDOF 3
ENDMDL
MODEL 7
REMARK VINA RESULT:      -9.2      7.233     12.282
REMARK  Name = 1116191
REMARK  3 active torsions:
REMARK  status: ('A' for Active; 'I' for Inactive)
REMARK    1  A    between atoms: N_2  and  C_7
REMARK    2  A    between atoms: C_4  and  C_15
REMARK    3  A    between atoms: N_14  and  C_18
REMARK                            x       y       z     vdW  Elec       q    Type
REMARK                         _______ _______ _______ _____ _____    ______ ____
ROOT
ATOM      1  O   UNL     1      36.186 -21.710 -16.566  0.00  0.00    -0.275 OA
ATOM      2  N   UNL     1      34.598 -22.639 -18.029  0.00  0.00    -0.281 N 
ATOM      3  C   UNL     1      34.438 -22.804 -19.455  0.00  0.00    +0.103 C 
ATOM      4  C   UNL     1      35.389 -21.777 -20.047  0.00  0.00    +0.106 C 
ATOM      5  C   UNL     1      36.450 -21.560 -18.970  0.00  0.00    +0.096 C 
ATOM      6  C   UNL     1      35.754 -21.949 -17.685  0.00  0.00    +0.226 C 
ENDROOT
BRANCH   2   7
ATOM      7  C   UNL     1      33.691 -23.262 -17.096  0.00  0.00    +0.075 C 
ATOM      8  C   UNL     1      34.201 -23.110 -15.659  0.00  0.00    +0.020 C 
ATOM      9  C   UNL     1      32.282 -22.684 -17.250  0.00  0.00    +0.020 C 
ATOM     10  C   UNL     1      33.229 -23.714 -14.650  0.00  0.00    +0.002 C 
ATOM     11  C   UNL     1      31.312 -23.288 -16.237  0.00  0.00    +0.002 C 
ATOM     12  C   UNL     1      31.825 -23.139 -14.807  0.00  0.00    +0.000 C 
ENDBRANCH   2   7
BRANCH   4  15
ATOM     13  O   UNL     1      33.546 -20.279 -19.972  0.00  0.00    -0.275 OA
ATOM     14  N   UNL     1      35.490 -19.663 -21.147  0.00  0.00    -0.284 N 
ATOM     15  C   UNL     1      34.685 -20.491 -20.373  0.00  0.00    +0.228 C 
ATOM     16  H   UNL     1      36.382 -20.011 -21.372  0.00  0.00    +0.155 HD
BRANCH  14  18
ATOM     17 BR   UNL     1      34.415 -16.676 -25.350  0.00  0.00    -0.049 Br
ATOM     18  C   UNL     1      35.173 -18.377 -21.645  0.00  0.00    +0.051 C 
ATOM     19  C   UNL     1      34.987 -18.204 -23.006  0.00  0.00    +0.021 C 
ATOM     20  C   UNL     1      35.056 -17.318 -20.758  0.00  0.00    +0.015 C 
ATOM     21  C   UNL     1      34.674 -16.936 -23.495  0.00  0.00    +0.036 C 
ATOM     22  C   UNL     1      34.744 -16.050 -21.248  0.00  0.00    +0.002 C 
ATOM     23  C   UNL     1      34.553 -15.859 -22.618  0.00  0.00    +0.007 C 
ENDBRANCH  14  18
ENDBRANCH   4  15
TORSDOF 3
ENDMDL
MODEL 8
REMARK VINA RESULT:      -9.1      7.585     12.670
REMARK  Name = 1116191
REMARK  3 active torsions:
REMARK  status: ('A' for Active; 'I' for Inactive)
REMARK    1  A    between atoms: N_2  and  C_7
REMARK    2  A    between atoms: C_4  and  C_15
REMARK    3  A    between atoms: N_14  and  C_18
REMARK                            x       y       z     vdW  Elec       q    Type
REMARK                         _______ _______ _______ _____ _____    ______ ____
ROOT
ATOM      1  O   UNL     1      37.169 -21.288 -16.946  0.00  0.00    -0.275 OA
ATOM      2  N   UNL     1      35.166 -22.285 -17.667  0.00  0.00    -0.281 N 
ATOM      3  C   UNL     1      34.586 -22.717 -18.918  0.00  0.00    +0.103 C 
ATOM      4  C   UNL     1      35.388 -21.966 -19.967  0.00  0.00    +0.106 C 
ATOM      5  C   UNL     1      36.729 -21.672 -19.297  0.00  0.00    +0.096 C 
ATOM      6  C   UNL     1      36.415 -21.694 -17.819  0.00  0.00    +0.226 C 
ENDROOT
BRANCH   2   7
ATOM      7  C   UNL     1      34.532 -22.579 -16.405  0.00  0.00    +0.075 C 
ATOM      8  C   UNL     1      33.123 -23.140 -16.622  0.00  0.00    +0.020 C 
ATOM      9  C   UNL     1      35.394 -23.541 -15.583  0.00  0.00    +0.020 C 
ATOM     10  C   UNL     1      32.455 -23.510 -15.301  0.00  0.00    +0.002 C 
ATOM     11  C   UNL     1      34.721 -23.912 -14.263  0.00  0.00    +0.002 C 
ATOM     12  C   UNL     1      33.316 -24.467 -14.483  0.00  0.00    +0.000 C 
ENDBRANCH   2   7
BRANCH   4  15
ATOM     13  O   UNL     1      33.606 -20.395 -19.931  0.00  0.00    -0.275 OA
ATOM     14  N   UNL     1      35.481 -19.986 -21.294  0.00  0.00    -0.284 N 
ATOM     15  C   UNL     1      34.706 -20.694 -20.383  0.00  0.00    +0.228 C 
ATOM     16  H   UNL     1      36.343 -20.393 -21.540  0.00  0.00    +0.155 HD
BRANCH  14  18
ATOM     17 BR   UNL     1      34.298 -14.894 -20.653  0.00  0.00    -0.049 Br
ATOM     18  C   UNL     1      35.173 -18.748 -21.907  0.00  0.00    +0.051 C 
ATOM     19  C   UNL     1      34.932 -17.640 -21.113  0.00  0.00    +0.021 C 
ATOM     20  C   UNL     1      35.120 -18.673 -23.289  0.00  0.00    +0.015 C 
ATOM     21  C   UNL     1      34.630 -16.420 -21.718  0.00  0.00    +0.036 C 
ATOM     22  C   UNL     1      34.817 -17.453 -23.894  0.00  0.00    +0.002 C 
ATOM     23  C   UNL     1      34.571 -16.327 -23.108  0.00  0.00    +0.007 C 
ENDBRANCH  14  18
ENDBRANCH   4  15
TORSDOF 3
ENDMDL
MODEL 9
REMARK VINA RESULT:      -8.9      2.946      8.236
REMARK  Name = 1116191
REMARK  3 active torsions:
REMARK  status: ('A' for Active; 'I' for Inactive)
REMARK    1  A    between atoms: N_2  and  C_7
REMARK    2  A    between atoms: C_4  and  C_15
REMARK    3  A    between atoms: N_14  and  C_18
REMARK                            x       y       z     vdW  Elec       q    Type
REMARK                         _______ _______ _______ _____ _____    ______ ____
ROOT
ATOM      1  O   UNL     1      34.298 -15.706 -25.950  0.00  0.00    -0.275 OA
ATOM      2  N   UNL     1      33.856 -15.553 -23.646  0.00  0.00    -0.281 N 
ATOM      3  C   UNL     1      32.899 -14.888 -22.791  0.00  0.00    +0.103 C 
ATOM      4  C   UNL     1      32.342 -13.778 -23.666  0.00  0.00    +0.106 C 
ATOM      5  C   UNL     1      32.542 -14.271 -25.098  0.00  0.00    +0.096 C 
ATOM      6  C   UNL     1      33.685 -15.254 -24.993  0.00  0.00    +0.226 C 
ENDROOT
BRANCH   2   7
ATOM      7  C   UNL     1      34.788 -16.520 -23.119  0.00  0.00    +0.075 C 
ATOM      8  C   UNL     1      34.602 -16.686 -21.608  0.00  0.00    +0.020 C 
ATOM      9  C   UNL     1      34.641 -17.858 -23.848  0.00  0.00    +0.020 C 
ATOM     10  C   UNL     1      35.541 -17.745 -21.039  0.00  0.00    +0.002 C 
ATOM     11  C   UNL     1      35.580 -18.917 -23.275  0.00  0.00    +0.002 C 
ATOM     12  C   UNL     1      35.395 -19.077 -21.768  0.00  0.00    +0.000 C 
ENDBRANCH   2   7
BRANCH   4  15
ATOM     13  O   UNL     1      34.258 -12.372 -23.694  0.00  0.00    -0.275 OA
ATOM     14  N   UNL     1      32.203 -11.511 -22.935  0.00  0.00    -0.284 N 
ATOM     15  C   UNL     1      33.063 -12.479 -23.441  0.00  0.00    +0.228 C 
ATOM     16  H   UNL     1      31.270 -11.790 -22.795  0.00  0.00    +0.155 HD
BRANCH  14  18
ATOM     17 BR   UNL     1      34.468  -6.988 -24.400  0.00  0.00    -0.049 Br
ATOM     18  C   UNL     1      32.516 -10.172 -22.600  0.00  0.00    +0.051 C 
ATOM     19  C   UNL     1      33.212  -9.392 -23.508  0.00  0.00    +0.021 C 
ATOM     20  C   UNL     1      32.118  -9.672 -21.371  0.00  0.00    +0.015 C 
ATOM     21  C   UNL     1      33.519  -8.072 -23.176  0.00  0.00    +0.036 C 
ATOM     22  C   UNL     1      32.425  -8.353 -21.041  0.00  0.00    +0.002 C 
ATOM     23  C   UNL     1      33.127  -7.552 -21.944  0.00  0.00    +0.007 C 
ENDBRANCH  14  18
ENDBRANCH   4  15
TORSDOF 3
ENDMDL
