MODEL 1
REMARK VINA RESULT:      -7.7      0.000      0.000
REMARK  Name = 65592
REMARK  1 active torsions:
REMARK  status: ('A' for Active; 'I' for Inactive)
REMARK    1  A    between atoms: C_6  and  O_13
REMARK                            x       y       z     vdW  Elec       q    Type
REMARK                         _______ _______ _______ _____ _____    ______ ____
ROOT
ATOM      1 BR   UNL     1      32.994 -14.247 -26.301  0.00  0.00    -0.046 Br
ATOM      2  N   UNL     1      35.466 -17.949 -23.518  0.00  0.00    -0.241 NA
ATOM      3  C   UNL     1      34.354 -16.213 -22.271  0.00  0.00    +0.017 C 
ATOM      4  C   UNL     1      33.583 -15.037 -22.274  0.00  0.00    -0.020 C 
ATOM      5  C   UNL     1      34.730 -16.822 -23.487  0.00  0.00    +0.115 C 
ATOM      6  C   UNL     1      34.316 -16.224 -24.674  0.00  0.00    +0.157 C 
ATOM      7  C   UNL     1      33.184 -14.461 -23.477  0.00  0.00    +0.006 C 
ATOM      8  C   UNL     1      34.769 -16.814 -21.075  0.00  0.00    +0.003 C 
ATOM      9  C   UNL     1      33.551 -15.055 -24.678  0.00  0.00    +0.069 C 
ATOM     10  C   UNL     1      33.165 -14.358 -21.008  0.00  0.00    +0.031 C 
ATOM     11  C   UNL     1      35.528 -17.976 -21.105  0.00  0.00    +0.021 C 
ATOM     12  C   UNL     1      35.847 -18.497 -22.342  0.00  0.00    +0.099 C 
ENDROOT
BRANCH   6  13
ATOM     13  O   UNL     1      34.675 -16.805 -25.861  0.00  0.00    -0.504 OA
ATOM     14  H   UNL     1      35.086 -17.647 -25.865  0.00  0.00    +0.292 HD
ENDBRANCH   6  13
TORSDOF 1
ENDMDL
MODEL 2
REMARK VINA RESULT:      -7.4      1.323      1.576
REMARK  Name = 65592
REMARK  1 active torsions:
REMARK  status: ('A' for Active; 'I' for Inactive)
REMARK    1  A    between atoms: C_6  and  O_13
REMARK                            x       y       z     vdW  Elec       q    Type
REMARK                         _______ _______ _______ _____ _____    ______ ____
ROOT
ATOM      1 BR   UNL     1      33.455 -12.827 -24.975  0.00  0.00    -0.046 Br
ATOM      2  N   UNL     1      34.448 -17.982 -24.969  0.00  0.00    -0.241 NA
ATOM      3  C   UNL     1      34.554 -16.853 -22.843  0.00  0.00    +0.017 C 
ATOM      4  C   UNL     1      34.434 -15.660 -22.110  0.00  0.00    -0.020 C 
ATOM      5  C   UNL     1      34.342 -16.856 -24.239  0.00  0.00    +0.115 C 
ATOM      6  C   UNL     1      34.016 -15.651 -24.854  0.00  0.00    +0.157 C 
ATOM      7  C   UNL     1      34.107 -14.469 -22.752  0.00  0.00    +0.006 C 
ATOM      8  C   UNL     1      34.882 -18.065 -22.222  0.00  0.00    +0.003 C 
ATOM      9  C   UNL     1      33.897 -14.465 -24.126  0.00  0.00    +0.069 C 
ATOM     10  C   UNL     1      34.652 -15.611 -20.630  0.00  0.00    +0.031 C 
ATOM     11  C   UNL     1      34.991 -19.227 -22.974  0.00  0.00    +0.021 C 
ATOM     12  C   UNL     1      34.766 -19.131 -24.332  0.00  0.00    +0.099 C 
ENDROOT
BRANCH   6  13
ATOM     13  O   UNL     1      33.808 -15.641 -26.208  0.00  0.00    -0.504 OA
ATOM     14  H   UNL     1      34.301 -15.059 -26.753  0.00  0.00    +0.292 HD
ENDBRANCH   6  13
TORSDOF 1
ENDMDL
MODEL 3
REMARK VINA RESULT:      -7.3      2.427      3.794
REMARK  Name = 65592
REMARK  1 active torsions:
REMARK  status: ('A' for Active; 'I' for Inactive)
REMARK    1  A    between atoms: C_6  and  O_13
REMARK                            x       y       z     vdW  Elec       q    Type
REMARK                         _______ _______ _______ _____ _____    ______ ____
ROOT
ATOM      1 BR   UNL     1      35.928 -18.847 -21.265  0.00  0.00    -0.046 Br
ATOM      2  N   UNL     1      34.102 -16.274 -25.460  0.00  0.00    -0.241 NA
ATOM      3  C   UNL     1      33.713 -15.259 -23.309  0.00  0.00    +0.017 C 
ATOM      4  C   UNL     1      33.864 -15.310 -21.913  0.00  0.00    -0.020 C 
ATOM      5  C   UNL     1      34.229 -16.293 -24.120  0.00  0.00    +0.115 C 
ATOM      6  C   UNL     1      34.885 -17.350 -23.495  0.00  0.00    +0.157 C 
ATOM      7  C   UNL     1      34.525 -16.380 -21.314  0.00  0.00    +0.006 C 
ATOM      8  C   UNL     1      33.053 -14.195 -23.937  0.00  0.00    +0.003 C 
ATOM      9  C   UNL     1      35.036 -17.400 -22.107  0.00  0.00    +0.069 C 
ATOM     10  C   UNL     1      33.331 -14.237 -21.016  0.00  0.00    +0.031 C 
ATOM     11  C   UNL     1      32.920 -14.173 -25.319  0.00  0.00    +0.021 C 
ATOM     12  C   UNL     1      33.458 -15.228 -26.027  0.00  0.00    +0.099 C 
ENDROOT
BRANCH   6  13
ATOM     13  O   UNL     1      35.391 -18.359 -24.271  0.00  0.00    -0.504 OA
ATOM     14  H   UNL     1      36.255 -18.289 -24.625  0.00  0.00    +0.292 HD
ENDBRANCH   6  13
TORSDOF 1
ENDMDL
MODEL 4
REMARK VINA RESULT:      -7.1      3.108      4.719
REMARK  Name = 65592
REMARK  1 active torsions:
REMARK  status: ('A' for Active; 'I' for Inactive)
REMARK    1  A    between atoms: C_6  and  O_13
REMARK                            x       y       z     vdW  Elec       q    Type
REMARK                         _______ _______ _______ _____ _____    ______ ____
ROOT
ATOM      1 BR   UNL     1      36.100 -19.403 -20.692  0.00  0.00    -0.046 Br
ATOM      2  N   UNL     1      34.209 -14.646 -21.852  0.00  0.00    -0.241 NA
ATOM      3  C   UNL     1      34.328 -16.238 -23.657  0.00  0.00    +0.017 C 
ATOM      4  C   UNL     1      34.663 -17.529 -24.099  0.00  0.00    -0.020 C 
ATOM      5  C   UNL     1      34.520 -15.874 -22.307  0.00  0.00    +0.115 C 
ATOM      6  C   UNL     1      35.047 -16.827 -21.441  0.00  0.00    +0.157 C 
ATOM      7  C   UNL     1      35.189 -18.463 -23.211  0.00  0.00    +0.006 C 
ATOM      8  C   UNL     1      33.797 -15.279 -24.530  0.00  0.00    +0.003 C 
ATOM      9  C   UNL     1      35.381 -18.112 -21.880  0.00  0.00    +0.069 C 
ATOM     10  C   UNL     1      34.477 -17.956 -25.522  0.00  0.00    +0.031 C 
ATOM     11  C   UNL     1      33.475 -14.012 -24.063  0.00  0.00    +0.021 C 
ATOM     12  C   UNL     1      33.699 -13.750 -22.727  0.00  0.00    +0.099 C 
ENDROOT
BRANCH   6  13
ATOM     13  O   UNL     1      35.239 -16.487 -20.129  0.00  0.00    -0.504 OA
ATOM     14  H   UNL     1      36.068 -16.643 -19.721  0.00  0.00    +0.292 HD
ENDBRANCH   6  13
TORSDOF 1
ENDMDL
MODEL 5
REMARK VINA RESULT:      -7.1      1.956      2.977
REMARK  Name = 65592
REMARK  1 active torsions:
REMARK  status: ('A' for Active; 'I' for Inactive)
REMARK    1  A    between atoms: C_6  and  O_13
REMARK                            x       y       z     vdW  Elec       q    Type
REMARK                         _______ _______ _______ _____ _____    ______ ____
ROOT
ATOM      1 BR   UNL     1      33.061 -13.710 -26.776  0.00  0.00    -0.046 Br
ATOM      2  N   UNL     1      34.167 -14.504 -21.706  0.00  0.00    -0.241 NA
ATOM      3  C   UNL     1      34.424 -16.391 -23.183  0.00  0.00    +0.017 C 
ATOM      4  C   UNL     1      34.341 -16.919 -24.483  0.00  0.00    -0.020 C 
ATOM      5  C   UNL     1      34.097 -15.040 -22.940  0.00  0.00    +0.115 C 
ATOM      6  C   UNL     1      33.695 -14.259 -24.019  0.00  0.00    +0.157 C 
ATOM      7  C   UNL     1      33.935 -16.114 -25.544  0.00  0.00    +0.006 C 
ATOM      8  C   UNL     1      34.829 -17.179 -22.097  0.00  0.00    +0.003 C 
ATOM      9  C   UNL     1      33.613 -14.783 -25.312  0.00  0.00    +0.069 C 
ATOM     10  C   UNL     1      34.675 -18.346 -24.785  0.00  0.00    +0.031 C 
ATOM     11  C   UNL     1      34.901 -16.628 -20.824  0.00  0.00    +0.021 C 
ATOM     12  C   UNL     1      34.562 -15.298 -20.685  0.00  0.00    +0.099 C 
ENDROOT
BRANCH   6  13
ATOM     13  O   UNL     1      33.376 -12.946 -23.796  0.00  0.00    -0.504 OA
ATOM     14  H   UNL     1      33.248 -12.637 -22.921  0.00  0.00    +0.292 HD
ENDBRANCH   6  13
TORSDOF 1
ENDMDL
MODEL 6
REMARK VINA RESULT:      -7.0     10.502     12.110
REMARK  Name = 65592
REMARK  1 active torsions:
REMARK  status: ('A' for Active; 'I' for Inactive)
REMARK    1  A    between atoms: C_6  and  O_13
REMARK                            x       y       z     vdW  Elec       q    Type
REMARK                         _______ _______ _______ _____ _____    ______ ____
ROOT
ATOM      1 BR   UNL     1      36.873 -24.443 -14.221  0.00  0.00    -0.046 Br
ATOM      2  N   UNL     1      31.718 -24.110 -13.292  0.00  0.00    -0.241 NA
ATOM      3  C   UNL     1      32.467 -23.488 -15.496  0.00  0.00    +0.017 C 
ATOM      4  C   UNL     1      33.529 -23.326 -16.402  0.00  0.00    -0.020 C 
ATOM      5  C   UNL     1      32.713 -23.944 -14.183  0.00  0.00    +0.115 C 
ATOM      6  C   UNL     1      34.028 -24.223 -13.822  0.00  0.00    +0.157 C 
ATOM      7  C   UNL     1      34.835 -23.613 -16.014  0.00  0.00    +0.006 C 
ATOM      8  C   UNL     1      31.143 -23.207 -15.860  0.00  0.00    +0.003 C 
ATOM      9  C   UNL     1      35.084 -24.062 -14.723  0.00  0.00    +0.069 C 
ATOM     10  C   UNL     1      33.313 -22.844 -17.802  0.00  0.00    +0.031 C 
ATOM     11  C   UNL     1      30.115 -23.378 -14.943  0.00  0.00    +0.021 C 
ATOM     12  C   UNL     1      30.454 -23.828 -13.683  0.00  0.00    +0.099 C 
ENDROOT
BRANCH   6  13
ATOM     13  O   UNL     1      34.280 -24.665 -12.551  0.00  0.00    -0.504 OA
ATOM     14  H   UNL     1      33.832 -24.281 -11.824  0.00  0.00    +0.292 HD
ENDBRANCH   6  13
TORSDOF 1
ENDMDL
MODEL 7
REMARK VINA RESULT:      -7.0      2.936      4.503
REMARK  Name = 65592
REMARK  1 active torsions:
REMARK  status: ('A' for Active; 'I' for Inactive)
REMARK    1  A    between atoms: C_6  and  O_13
REMARK                            x       y       z     vdW  Elec       q    Type
REMARK                         _______ _______ _______ _____ _____    ______ ____
ROOT
ATOM      1 BR   UNL     1      36.279 -18.395 -22.292  0.00  0.00    -0.046 Br
ATOM      2  N   UNL     1      33.349 -14.301 -20.806  0.00  0.00    -0.241 NA
ATOM      3  C   UNL     1      33.405 -14.798 -23.164  0.00  0.00    +0.017 C 
ATOM      4  C   UNL     1      33.880 -15.608 -24.209  0.00  0.00    -0.020 C 
ATOM      5  C   UNL     1      33.787 -15.057 -21.830  0.00  0.00    +0.115 C 
ATOM      6  C   UNL     1      34.641 -16.130 -21.590  0.00  0.00    +0.157 C 
ATOM      7  C   UNL     1      34.734 -16.675 -23.940  0.00  0.00    +0.006 C 
ATOM      8  C   UNL     1      32.545 -13.718 -23.406  0.00  0.00    +0.003 C 
ATOM      9  C   UNL     1      35.114 -16.936 -22.629  0.00  0.00    +0.069 C 
ATOM     10  C   UNL     1      33.502 -15.367 -25.637  0.00  0.00    +0.031 C 
ATOM     11  C   UNL     1      32.092 -12.936 -22.352  0.00  0.00    +0.021 C 
ATOM     12  C   UNL     1      32.521 -13.268 -21.083  0.00  0.00    +0.099 C 
ENDROOT
BRANCH   6  13
ATOM     13  O   UNL     1      35.019 -16.393 -20.301  0.00  0.00    -0.504 OA
ATOM     14  H   UNL     1      35.781 -16.911 -20.133  0.00  0.00    +0.292 HD
ENDBRANCH   6  13
TORSDOF 1
ENDMDL
MODEL 8
REMARK VINA RESULT:      -6.9     10.519     12.004
REMARK  Name = 65592
REMARK  1 active torsions:
REMARK  status: ('A' for Active; 'I' for Inactive)
REMARK    1  A    between atoms: C_6  and  O_13
REMARK                            x       y       z     vdW  Elec       q    Type
REMARK                         _______ _______ _______ _____ _____    ______ ____
ROOT
ATOM      1 BR   UNL     1      28.878 -24.440 -15.332  0.00  0.00    -0.046 Br
ATOM      2  N   UNL     1      33.519 -24.352 -12.879  0.00  0.00    -0.241 NA
ATOM      3  C   UNL     1      33.490 -23.624 -15.176  0.00  0.00    +0.017 C 
ATOM      4  C   UNL     1      32.756 -23.385 -16.351  0.00  0.00    -0.020 C 
ATOM      5  C   UNL     1      32.845 -24.114 -14.021  0.00  0.00    +0.115 C 
ATOM      6  C   UNL     1      31.475 -24.350 -14.085  0.00  0.00    +0.157 C 
ATOM      7  C   UNL     1      31.386 -23.630 -16.387  0.00  0.00    +0.006 C 
ATOM      8  C   UNL     1      34.869 -23.386 -15.112  0.00  0.00    +0.003 C 
ATOM      9  C   UNL     1      30.745 -24.113 -15.253  0.00  0.00    +0.069 C 
ATOM     10  C   UNL     1      33.400 -22.868 -17.599  0.00  0.00    +0.031 C 
ATOM     11  C   UNL     1      35.566 -23.630 -13.937  0.00  0.00    +0.021 C 
ATOM     12  C   UNL     1      34.849 -24.109 -12.859  0.00  0.00    +0.099 C 
ENDROOT
BRANCH   6  13
ATOM     13  O   UNL     1      30.837 -24.826 -12.970  0.00  0.00    -0.504 OA
ATOM     14  H   UNL     1      31.196 -25.552 -12.500  0.00  0.00    +0.292 HD
ENDBRANCH   6  13
TORSDOF 1
ENDMDL
MODEL 9
REMARK VINA RESULT:      -6.9      2.284      3.127
REMARK  Name = 65592
REMARK  1 active torsions:
REMARK  status: ('A' for Active; 'I' for Inactive)
REMARK    1  A    between atoms: C_6  and  O_13
REMARK                            x       y       z     vdW  Elec       q    Type
REMARK                         _______ _______ _______ _____ _____    ______ ____
ROOT
ATOM      1 BR   UNL     1      32.268 -13.007 -22.281  0.00  0.00    -0.046 Br
ATOM      2  N   UNL     1      35.068 -17.170 -20.738  0.00  0.00    -0.241 NA
ATOM      3  C   UNL     1      34.744 -16.897 -23.111  0.00  0.00    +0.017 C 
ATOM      4  C   UNL     1      34.197 -16.153 -24.170  0.00  0.00    -0.020 C 
ATOM      5  C   UNL     1      34.556 -16.481 -21.775  0.00  0.00    +0.115 C 
ATOM      6  C   UNL     1      33.818 -15.323 -21.548  0.00  0.00    +0.157 C 
ATOM      7  C   UNL     1      33.463 -14.998 -23.914  0.00  0.00    +0.006 C 
ATOM      8  C   UNL     1      35.487 -18.063 -23.340  0.00  0.00    +0.003 C 
ATOM      9  C   UNL     1      33.274 -14.582 -22.601  0.00  0.00    +0.069 C 
ATOM     10  C   UNL     1      34.371 -16.559 -25.600  0.00  0.00    +0.031 C 
ATOM     11  C   UNL     1      36.016 -18.776 -22.273  0.00  0.00    +0.021 C 
ATOM     12  C   UNL     1      35.778 -18.290 -21.003  0.00  0.00    +0.099 C 
ENDROOT
BRANCH   6  13
ATOM     13  O   UNL     1      33.628 -14.908 -20.257  0.00  0.00    -0.504 OA
ATOM     14  H   UNL     1      34.261 -14.352 -19.846  0.00  0.00    +0.292 HD
ENDBRANCH   6  13
TORSDOF 1
ENDMDL
