MODEL 1
REMARK VINA RESULT:      -8.4      0.000      0.000
REMARK  Name = 5288147
REMARK  12 active torsions:
REMARK  status: ('A' for Active; 'I' for Inactive)
REMARK    1  A    between atoms: C_1  and  C_4
REMARK    2  A    between atoms: C_1  and  N_12
REMARK    3  A    between atoms: C_1  and  C_23
REMARK    4  A    between atoms: N_3  and  C_6
REMARK    5  A    between atoms: C_6  and  C_7
REMARK    6  A    between atoms: C_7  and  C_8
REMARK    7  A    between atoms: C_13  and  C_15
REMARK    8  A    between atoms: C_15  and  O_16
REMARK    9  A    between atoms: C_15  and  C_18
REMARK   10  A    between atoms: C_18  and  C_20
REMARK   11  A    between atoms: C_20  and  O_21
REMARK   12  A    between atoms: C_23  and  C_24
REMARK                            x       y       z     vdW  Elec       q    Type
REMARK                         _______ _______ _______ _____ _____    ______ ____
ROOT
ATOM      1  C   UNL     1      35.582 -23.612 -15.800  0.00  0.00    +0.149 C 
ENDROOT
BRANCH   1   4
ATOM      2  O   UNL     1      37.359 -21.980 -16.044  0.00  0.00    -0.273 OA
ATOM      3  N   UNL     1      35.844 -22.255 -17.783  0.00  0.00    -0.303 N 
ATOM      4  C   UNL     1      36.362 -22.519 -16.522  0.00  0.00    +0.240 C 
ATOM      5  H   UNL     1      35.039 -22.745 -18.069  0.00  0.00    +0.149 HD
BRANCH   3   6
ATOM      6  C   UNL     1      36.427 -21.297 -18.695  0.00  0.00    +0.089 C 
BRANCH   6   7
ATOM      7  C   UNL     1      35.764 -21.322 -20.070  0.00  0.00    +0.021 C 
BRANCH   7   8
ATOM      8  C   UNL     1      34.701 -20.230 -20.301  0.00  0.00    +0.002 C 
ATOM      9  C   UNL     1      33.302 -20.815 -20.086  0.00  0.00    +0.000 C 
ATOM     10  C   UNL     1      34.792 -19.612 -21.697  0.00  0.00    +0.000 C 
ENDBRANCH   7   8
ENDBRANCH   6   7
ENDBRANCH   3   6
ENDBRANCH   1   4
BRANCH   1  12
ATOM     11  O   UNL     1      36.021 -26.459 -15.803  0.00  0.00    -0.272 OA
ATOM     12  N   UNL     1      36.524 -24.342 -14.992  0.00  0.00    -0.296 N 
ATOM     13  C   UNL     1      36.666 -25.722 -15.061  0.00  0.00    +0.250 C 
ATOM     14  H   UNL     1      37.092 -23.841 -14.363  0.00  0.00    +0.150 HD
BRANCH  13  15
ATOM     15  C   UNL     1      37.716 -26.253 -14.093  0.00  0.00    +0.198 C 
BRANCH  15  16
ATOM     16  O   UNL     1      38.374 -27.357 -14.697  0.00  0.00    -0.375 OA
ATOM     17  H   UNL     1      38.231 -28.152 -14.160  0.00  0.00    +0.211 HD
ENDBRANCH  15  16
BRANCH  15  18
ATOM     18  C   UNL     1      38.738 -25.173 -13.729  0.00  0.00    +0.148 C 
BRANCH  18  20
ATOM     19  O   UNL     1      40.864 -25.669 -14.816  0.00  0.00    -0.250 OA
ATOM     20  C   UNL     1      39.819 -25.032 -14.780  0.00  0.00    +0.317 C 
BRANCH  20  21
ATOM     21  O   UNL     1      39.489 -24.099 -15.710  0.00  0.00    -0.480 OA
ATOM     22  H   UNL     1      39.144 -24.366 -16.540  0.00  0.00    +0.295 HD
ENDBRANCH  20  21
ENDBRANCH  18  20
ENDBRANCH  15  18
ENDBRANCH  13  15
ENDBRANCH   1  12
BRANCH   1  23
ATOM     23  C   UNL     1      34.455 -22.995 -14.963  0.00  0.00    +0.029 C 
BRANCH  23  24
ATOM     24  C   UNL     1      33.049 -23.557 -15.257  0.00  0.00    +0.002 C 
ATOM     25  C   UNL     1      31.976 -22.942 -14.358  0.00  0.00    +0.000 C 
ATOM     26  C   UNL     1      32.692 -23.313 -16.726  0.00  0.00    +0.000 C 
ENDBRANCH  23  24
ENDBRANCH   1  23
TORSDOF 12
ENDMDL
MODEL 2
REMARK VINA RESULT:      -7.9      1.371      1.763
REMARK  Name = 5288147
REMARK  12 active torsions:
REMARK  status: ('A' for Active; 'I' for Inactive)
REMARK    1  A    between atoms: C_1  and  C_4
REMARK    2  A    between atoms: C_1  and  N_12
REMARK    3  A    between atoms: C_1  and  C_23
REMARK    4  A    between atoms: N_3  and  C_6
REMARK    5  A    between atoms: C_6  and  C_7
REMARK    6  A    between atoms: C_7  and  C_8
REMARK    7  A    between atoms: C_13  and  C_15
REMARK    8  A    between atoms: C_15  and  O_16
REMARK    9  A    between atoms: C_15  and  C_18
REMARK   10  A    between atoms: C_18  and  C_20
REMARK   11  A    between atoms: C_20  and  O_21
REMARK   12  A    between atoms: C_23  and  C_24
REMARK                            x       y       z     vdW  Elec       q    Type
REMARK                         _______ _______ _______ _____ _____    ______ ____
ROOT
ATOM      1  C   UNL     1      35.807 -23.444 -16.115  0.00  0.00    +0.149 C 
ENDROOT
BRANCH   1   4
ATOM      2  O   UNL     1      37.364 -21.598 -16.338  0.00  0.00    -0.273 OA
ATOM      3  N   UNL     1      35.951 -22.093 -18.113  0.00  0.00    -0.303 N 
ATOM      4  C   UNL     1      36.461 -22.269 -16.835  0.00  0.00    +0.240 C 
ATOM      5  H   UNL     1      35.225 -22.686 -18.414  0.00  0.00    +0.149 HD
BRANCH   3   6
ATOM      6  C   UNL     1      36.433 -21.080 -19.026  0.00  0.00    +0.089 C 
BRANCH   6   7
ATOM      7  C   UNL     1      35.695 -21.100 -20.363  0.00  0.00    +0.021 C 
BRANCH   7   8
ATOM      8  C   UNL     1      34.609 -20.019 -20.524  0.00  0.00    +0.002 C 
ATOM      9  C   UNL     1      33.240 -20.601 -20.159  0.00  0.00    +0.000 C 
ATOM     10  C   UNL     1      34.563 -19.444 -21.941  0.00  0.00    +0.000 C 
ENDBRANCH   7   8
ENDBRANCH   6   7
ENDBRANCH   3   6
ENDBRANCH   1   4
BRANCH   1  12
ATOM     11  O   UNL     1      35.945 -26.270 -15.576  0.00  0.00    -0.272 OA
ATOM     12  N   UNL     1      36.848 -24.138 -15.402  0.00  0.00    -0.296 N 
ATOM     13  C   UNL     1      36.830 -25.510 -15.190  0.00  0.00    +0.250 C 
ATOM     14  H   UNL     1      37.606 -23.616 -15.051  0.00  0.00    +0.150 HD
BRANCH  13  15
ATOM     15  C   UNL     1      38.036 -25.997 -14.396  0.00  0.00    +0.198 C 
BRANCH  15  16
ATOM     16  O   UNL     1      39.116 -26.205 -15.293  0.00  0.00    -0.375 OA
ATOM     17  H   UNL     1      39.878 -25.676 -15.011  0.00  0.00    +0.211 HD
ENDBRANCH  15  16
BRANCH  15  18
ATOM     18  C   UNL     1      38.440 -24.986 -13.319  0.00  0.00    +0.148 C 
BRANCH  18  20
ATOM     19  O   UNL     1      37.546 -24.344 -11.143  0.00  0.00    -0.250 OA
ATOM     20  C   UNL     1      37.657 -25.172 -12.037  0.00  0.00    +0.317 C 
BRANCH  20  21
ATOM     21  O   UNL     1      37.068 -26.395 -11.990  0.00  0.00    -0.480 OA
ATOM     22  H   UNL     1      37.549 -27.158 -12.246  0.00  0.00    +0.295 HD
ENDBRANCH  20  21
ENDBRANCH  18  20
ENDBRANCH  15  18
ENDBRANCH  13  15
ENDBRANCH   1  12
BRANCH   1  23
ATOM     23  C   UNL     1      34.698 -22.944 -15.181  0.00  0.00    +0.029 C 
BRANCH  23  24
ATOM     24  C   UNL     1      33.309 -23.561 -15.436  0.00  0.00    +0.002 C 
ATOM     25  C   UNL     1      32.258 -23.065 -14.442  0.00  0.00    +0.000 C 
ATOM     26  C   UNL     1      32.857 -23.244 -16.864  0.00  0.00    +0.000 C 
ENDBRANCH  23  24
ENDBRANCH   1  23
TORSDOF 12
ENDMDL
MODEL 3
REMARK VINA RESULT:      -7.9      2.738      3.227
REMARK  Name = 5288147
REMARK  12 active torsions:
REMARK  status: ('A' for Active; 'I' for Inactive)
REMARK    1  A    between atoms: C_1  and  C_4
REMARK    2  A    between atoms: C_1  and  N_12
REMARK    3  A    between atoms: C_1  and  C_23
REMARK    4  A    between atoms: N_3  and  C_6
REMARK    5  A    between atoms: C_6  and  C_7
REMARK    6  A    between atoms: C_7  and  C_8
REMARK    7  A    between atoms: C_13  and  C_15
REMARK    8  A    between atoms: C_15  and  O_16
REMARK    9  A    between atoms: C_15  and  C_18
REMARK   10  A    between atoms: C_18  and  C_20
REMARK   11  A    between atoms: C_20  and  O_21
REMARK   12  A    between atoms: C_23  and  C_24
REMARK                            x       y       z     vdW  Elec       q    Type
REMARK                         _______ _______ _______ _____ _____    ______ ____
ROOT
ATOM      1  C   UNL     1      33.263 -23.608 -15.676  0.00  0.00    +0.149 C 
ENDROOT
BRANCH   1   4
ATOM      2  O   UNL     1      35.274 -22.947 -16.859  0.00  0.00    -0.273 OA
ATOM      3  N   UNL     1      33.260 -22.996 -18.014  0.00  0.00    -0.303 N 
ATOM      4  C   UNL     1      34.059 -23.134 -16.888  0.00  0.00    +0.240 C 
ATOM      5  H   UNL     1      32.295 -23.170 -17.927  0.00  0.00    +0.149 HD
BRANCH   3   6
ATOM      6  C   UNL     1      33.774 -22.608 -19.309  0.00  0.00    +0.089 C 
BRANCH   6   7
ATOM      7  C   UNL     1      33.314 -21.213 -19.725  0.00  0.00    +0.021 C 
BRANCH   7   8
ATOM      8  C   UNL     1      34.443 -20.258 -20.163  0.00  0.00    +0.002 C 
ATOM      9  C   UNL     1      34.106 -19.649 -21.527  0.00  0.00    +0.000 C 
ATOM     10  C   UNL     1      35.803 -20.955 -20.232  0.00  0.00    +0.000 C 
ENDBRANCH   7   8
ENDBRANCH   6   7
ENDBRANCH   3   6
ENDBRANCH   1   4
BRANCH   1  12
ATOM     11  O   UNL     1      32.953 -24.934 -13.138  0.00  0.00    -0.272 OA
ATOM     12  N   UNL     1      34.127 -23.492 -14.530  0.00  0.00    -0.296 N 
ATOM     13  C   UNL     1      33.897 -24.173 -13.341  0.00  0.00    +0.250 C 
ATOM     14  H   UNL     1      34.914 -22.904 -14.591  0.00  0.00    +0.150 HD
BRANCH  13  15
ATOM     15  C   UNL     1      34.944 -23.867 -12.278  0.00  0.00    +0.198 C 
BRANCH  15  16
ATOM     16  O   UNL     1      35.118 -25.020 -11.467  0.00  0.00    -0.375 OA
ATOM     17  H   UNL     1      34.284 -25.512 -11.421  0.00  0.00    +0.211 HD
ENDBRANCH  15  16
BRANCH  15  18
ATOM     18  C   UNL     1      36.280 -23.467 -12.909  0.00  0.00    +0.148 C 
BRANCH  18  20
ATOM     19  O   UNL     1      37.828 -24.334 -11.235  0.00  0.00    -0.250 OA
ATOM     20  C   UNL     1      37.395 -23.392 -11.887  0.00  0.00    +0.317 C 
BRANCH  20  21
ATOM     21  O   UNL     1      37.881 -22.129 -11.775  0.00  0.00    -0.480 OA
ATOM     22  H   UNL     1      38.411 -21.894 -11.038  0.00  0.00    +0.295 HD
ENDBRANCH  20  21
ENDBRANCH  18  20
ENDBRANCH  15  18
ENDBRANCH  13  15
ENDBRANCH   1  12
BRANCH   1  23
ATOM     23  C   UNL     1      31.982 -22.778 -15.525  0.00  0.00    +0.029 C 
BRANCH  23  24
ATOM     24  C   UNL     1      30.672 -23.577 -15.668  0.00  0.00    +0.002 C 
ATOM     25  C   UNL     1      30.007 -23.854 -14.319  0.00  0.00    +0.000 C 
ATOM     26  C   UNL     1      29.700 -22.817 -16.575  0.00  0.00    +0.000 C 
ENDBRANCH  23  24
ENDBRANCH   1  23
TORSDOF 12
ENDMDL
MODEL 4
REMARK VINA RESULT:      -7.8      2.170      2.835
REMARK  Name = 5288147
REMARK  12 active torsions:
REMARK  status: ('A' for Active; 'I' for Inactive)
REMARK    1  A    between atoms: C_1  and  C_4
REMARK    2  A    between atoms: C_1  and  N_12
REMARK    3  A    between atoms: C_1  and  C_23
REMARK    4  A    between atoms: N_3  and  C_6
REMARK    5  A    between atoms: C_6  and  C_7
REMARK    6  A    between atoms: C_7  and  C_8
REMARK    7  A    between atoms: C_13  and  C_15
REMARK    8  A    between atoms: C_15  and  O_16
REMARK    9  A    between atoms: C_15  and  C_18
REMARK   10  A    between atoms: C_18  and  C_20
REMARK   11  A    between atoms: C_20  and  O_21
REMARK   12  A    between atoms: C_23  and  C_24
REMARK                            x       y       z     vdW  Elec       q    Type
REMARK                         _______ _______ _______ _____ _____    ______ ____
ROOT
ATOM      1  C   UNL     1      34.194 -23.838 -15.722  0.00  0.00    +0.149 C 
ENDROOT
BRANCH   1   4
ATOM      2  O   UNL     1      35.697 -22.533 -17.107  0.00  0.00    -0.273 OA
ATOM      3  N   UNL     1      33.696 -23.279 -18.020  0.00  0.00    -0.303 N 
ATOM      4  C   UNL     1      34.625 -23.127 -17.000  0.00  0.00    +0.240 C 
ATOM      5  H   UNL     1      32.867 -23.775 -17.827  0.00  0.00    +0.149 HD
BRANCH   3   6
ATOM      6  C   UNL     1      33.884 -22.746 -19.350  0.00  0.00    +0.089 C 
BRANCH   6   7
ATOM      7  C   UNL     1      33.359 -21.320 -19.487  0.00  0.00    +0.021 C 
BRANCH   7   8
ATOM      8  C   UNL     1      34.367 -20.307 -20.067  0.00  0.00    +0.002 C 
ATOM      9  C   UNL     1      33.805 -19.697 -21.355  0.00  0.00    +0.000 C 
ATOM     10  C   UNL     1      35.732 -20.937 -20.348  0.00  0.00    +0.000 C 
ENDBRANCH   7   8
ENDBRANCH   6   7
ENDBRANCH   3   6
ENDBRANCH   1   4
BRANCH   1  12
ATOM     11  O   UNL     1      36.066 -26.023 -15.583  0.00  0.00    -0.272 OA
ATOM     12  N   UNL     1      35.355 -23.929 -14.874  0.00  0.00    -0.296 N 
ATOM     13  C   UNL     1      36.204 -25.028 -14.876  0.00  0.00    +0.250 C 
ATOM     14  H   UNL     1      35.554 -23.180 -14.268  0.00  0.00    +0.150 HD
BRANCH  13  15
ATOM     15  C   UNL     1      37.347 -24.887 -13.878  0.00  0.00    +0.198 C 
BRANCH  15  16
ATOM     16  O   UNL     1      37.544 -23.508 -13.605  0.00  0.00    -0.375 OA
ATOM     17  H   UNL     1      37.712 -23.035 -14.435  0.00  0.00    +0.211 HD
ENDBRANCH  15  16
BRANCH  15  18
ATOM     18  C   UNL     1      37.048 -25.638 -12.577  0.00  0.00    +0.148 C 
BRANCH  18  20
ATOM     19  O   UNL     1      36.702 -24.069 -10.742  0.00  0.00    -0.250 OA
ATOM     20  C   UNL     1      36.240 -24.802 -11.607  0.00  0.00    +0.317 C 
BRANCH  20  21
ATOM     21  O   UNL     1      34.906 -24.952 -11.814  0.00  0.00    -0.480 OA
ATOM     22  H   UNL     1      34.598 -25.388 -12.585  0.00  0.00    +0.295 HD
ENDBRANCH  20  21
ENDBRANCH  18  20
ENDBRANCH  15  18
ENDBRANCH  13  15
ENDBRANCH   1  12
BRANCH   1  23
ATOM     23  C   UNL     1      33.044 -23.075 -15.052  0.00  0.00    +0.029 C 
BRANCH  23  24
ATOM     24  C   UNL     1      31.710 -23.845 -14.981  0.00  0.00    +0.002 C 
ATOM     25  C   UNL     1      31.682 -24.858 -13.837  0.00  0.00    +0.000 C 
ATOM     26  C   UNL     1      30.552 -22.856 -14.822  0.00  0.00    +0.000 C 
ENDBRANCH  23  24
ENDBRANCH   1  23
TORSDOF 12
ENDMDL
MODEL 5
REMARK VINA RESULT:      -7.7      2.184      4.544
REMARK  Name = 5288147
REMARK  12 active torsions:
REMARK  status: ('A' for Active; 'I' for Inactive)
REMARK    1  A    between atoms: C_1  and  C_4
REMARK    2  A    between atoms: C_1  and  N_12
REMARK    3  A    between atoms: C_1  and  C_23
REMARK    4  A    between atoms: N_3  and  C_6
REMARK    5  A    between atoms: C_6  and  C_7
REMARK    6  A    between atoms: C_7  and  C_8
REMARK    7  A    between atoms: C_13  and  C_15
REMARK    8  A    between atoms: C_15  and  O_16
REMARK    9  A    between atoms: C_15  and  C_18
REMARK   10  A    between atoms: C_18  and  C_20
REMARK   11  A    between atoms: C_20  and  O_21
REMARK   12  A    between atoms: C_23  and  C_24
REMARK                            x       y       z     vdW  Elec       q    Type
REMARK                         _______ _______ _______ _____ _____    ______ ____
ROOT
ATOM      1  C   UNL     1      35.518 -23.344 -14.409  0.00  0.00    +0.149 C 
ENDROOT
BRANCH   1   4
ATOM      2  O   UNL     1      34.139 -24.295 -12.655  0.00  0.00    -0.273 OA
ATOM      3  N   UNL     1      33.171 -23.830 -14.714  0.00  0.00    -0.303 N 
ATOM      4  C   UNL     1      34.225 -23.892 -13.814  0.00  0.00    +0.240 C 
ATOM      5  H   UNL     1      33.349 -23.490 -15.620  0.00  0.00    +0.149 HD
BRANCH   3   6
ATOM      6  C   UNL     1      31.823 -24.239 -14.386  0.00  0.00    +0.089 C 
BRANCH   6   7
ATOM      7  C   UNL     1      30.796 -23.146 -14.667  0.00  0.00    +0.021 C 
BRANCH   7   8
ATOM      8  C   UNL     1      29.613 -23.576 -15.557  0.00  0.00    +0.002 C 
ATOM      9  C   UNL     1      28.574 -22.452 -15.616  0.00  0.00    +0.000 C 
ATOM     10  C   UNL     1      28.951 -24.864 -15.066  0.00  0.00    +0.000 C 
ENDBRANCH   7   8
ENDBRANCH   6   7
ENDBRANCH   3   6
ENDBRANCH   1   4
BRANCH   1  12
ATOM     11  O   UNL     1      36.153 -25.912 -15.549  0.00  0.00    -0.272 OA
ATOM     12  N   UNL     1      36.580 -24.230 -14.006  0.00  0.00    -0.296 N 
ATOM     13  C   UNL     1      36.812 -25.455 -14.617  0.00  0.00    +0.250 C 
ATOM     14  H   UNL     1      37.166 -23.954 -13.265  0.00  0.00    +0.150 HD
BRANCH  13  15
ATOM     15  C   UNL     1      37.981 -26.209 -13.996  0.00  0.00    +0.198 C 
BRANCH  15  16
ATOM     16  O   UNL     1      38.206 -27.394 -14.744  0.00  0.00    -0.375 OA
ATOM     17  H   UNL     1      38.290 -28.148 -14.140  0.00  0.00    +0.211 HD
ENDBRANCH  15  16
BRANCH  15  18
ATOM     18  C   UNL     1      39.251 -25.354 -13.979  0.00  0.00    +0.148 C 
BRANCH  18  20
ATOM     19  O   UNL     1      41.264 -26.726 -14.091  0.00  0.00    -0.250 OA
ATOM     20  C   UNL     1      40.415 -26.047 -14.654  0.00  0.00    +0.317 C 
BRANCH  20  21
ATOM     21  O   UNL     1      40.410 -25.832 -15.995  0.00  0.00    -0.480 OA
ATOM     22  H   UNL     1      41.200 -25.584 -16.433  0.00  0.00    +0.295 HD
ENDBRANCH  20  21
ENDBRANCH  18  20
ENDBRANCH  15  18
ENDBRANCH  13  15
ENDBRANCH   1  12
BRANCH   1  23
ATOM     23  C   UNL     1      35.397 -23.239 -15.934  0.00  0.00    +0.029 C 
BRANCH  23  24
ATOM     24  C   UNL     1      36.216 -22.098 -16.571  0.00  0.00    +0.002 C 
ATOM     25  C   UNL     1      37.723 -22.312 -16.429  0.00  0.00    +0.000 C 
ATOM     26  C   UNL     1      35.851 -21.966 -18.052  0.00  0.00    +0.000 C 
ENDBRANCH  23  24
ENDBRANCH   1  23
TORSDOF 12
ENDMDL
MODEL 6
REMARK VINA RESULT:      -7.6      5.529      9.153
REMARK  Name = 5288147
REMARK  12 active torsions:
REMARK  status: ('A' for Active; 'I' for Inactive)
REMARK    1  A    between atoms: C_1  and  C_4
REMARK    2  A    between atoms: C_1  and  N_12
REMARK    3  A    between atoms: C_1  and  C_23
REMARK    4  A    between atoms: N_3  and  C_6
REMARK    5  A    between atoms: C_6  and  C_7
REMARK    6  A    between atoms: C_7  and  C_8
REMARK    7  A    between atoms: C_13  and  C_15
REMARK    8  A    between atoms: C_15  and  O_16
REMARK    9  A    between atoms: C_15  and  C_18
REMARK   10  A    between atoms: C_18  and  C_20
REMARK   11  A    between atoms: C_20  and  O_21
REMARK   12  A    between atoms: C_23  and  C_24
REMARK                            x       y       z     vdW  Elec       q    Type
REMARK                         _______ _______ _______ _____ _____    ______ ____
ROOT
ATOM      1  C   UNL     1      35.022 -16.996 -21.810  0.00  0.00    +0.149 C 
ENDROOT
BRANCH   1   4
ATOM      2  O   UNL     1      34.962 -15.762 -19.724  0.00  0.00    -0.273 OA
ATOM      3  N   UNL     1      33.387 -15.275 -21.361  0.00  0.00    -0.303 N 
ATOM      4  C   UNL     1      34.467 -15.968 -20.831  0.00  0.00    +0.240 C 
ATOM      5  H   UNL     1      33.069 -15.520 -22.259  0.00  0.00    +0.149 HD
BRANCH   3   6
ATOM      6  C   UNL     1      32.707 -14.210 -20.658  0.00  0.00    +0.089 C 
BRANCH   6   7
ATOM      7  C   UNL     1      32.310 -13.061 -21.582  0.00  0.00    +0.021 C 
BRANCH   7   8
ATOM      8  C   UNL     1      31.281 -12.076 -20.991  0.00  0.00    +0.002 C 
ATOM      9  C   UNL     1      31.027 -10.937 -21.983  0.00  0.00    +0.000 C 
ATOM     10  C   UNL     1      31.729 -11.499 -19.648  0.00  0.00    +0.000 C 
ENDBRANCH   7   8
ENDBRANCH   6   7
ENDBRANCH   3   6
ENDBRANCH   1   4
BRANCH   1  12
ATOM     11  O   UNL     1      37.147 -18.913 -21.475  0.00  0.00    -0.272 OA
ATOM     12  N   UNL     1      34.932 -18.284 -21.170  0.00  0.00    -0.296 N 
ATOM     13  C   UNL     1      36.016 -19.145 -21.055  0.00  0.00    +0.250 C 
ATOM     14  H   UNL     1      34.065 -18.564 -20.799  0.00  0.00    +0.150 HD
BRANCH  13  15
ATOM     15  C   UNL     1      35.656 -20.449 -20.354  0.00  0.00    +0.198 C 
BRANCH  15  16
ATOM     16  O   UNL     1      36.345 -20.503 -19.113  0.00  0.00    -0.375 OA
ATOM     17  H   UNL     1      37.255 -20.191 -19.235  0.00  0.00    +0.211 HD
ENDBRANCH  15  16
BRANCH  15  18
ATOM     18  C   UNL     1      34.147 -20.558 -20.117  0.00  0.00    +0.148 C 
BRANCH  18  20
ATOM     19  O   UNL     1      32.706 -22.068 -18.856  0.00  0.00    -0.250 OA
ATOM     20  C   UNL     1      33.770 -21.848 -19.419  0.00  0.00    +0.317 C 
BRANCH  20  21
ATOM     21  O   UNL     1      34.770 -22.764 -19.496  0.00  0.00    -0.480 OA
ATOM     22  H   UNL     1      35.285 -22.961 -18.738  0.00  0.00    +0.295 HD
ENDBRANCH  20  21
ENDBRANCH  18  20
ENDBRANCH  15  18
ENDBRANCH  13  15
ENDBRANCH   1  12
BRANCH   1  23
ATOM     23  C   UNL     1      34.242 -16.948 -23.130  0.00  0.00    +0.029 C 
BRANCH  23  24
ATOM     24  C   UNL     1      34.966 -17.583 -24.334  0.00  0.00    +0.002 C 
ATOM     25  C   UNL     1      34.546 -19.035 -24.568  0.00  0.00    +0.000 C 
ATOM     26  C   UNL     1      34.694 -16.758 -25.594  0.00  0.00    +0.000 C 
ENDBRANCH  23  24
ENDBRANCH   1  23
TORSDOF 12
ENDMDL
MODEL 7
REMARK VINA RESULT:      -7.5      5.289      8.663
REMARK  Name = 5288147
REMARK  12 active torsions:
REMARK  status: ('A' for Active; 'I' for Inactive)
REMARK    1  A    between atoms: C_1  and  C_4
REMARK    2  A    between atoms: C_1  and  N_12
REMARK    3  A    between atoms: C_1  and  C_23
REMARK    4  A    between atoms: N_3  and  C_6
REMARK    5  A    between atoms: C_6  and  C_7
REMARK    6  A    between atoms: C_7  and  C_8
REMARK    7  A    between atoms: C_13  and  C_15
REMARK    8  A    between atoms: C_15  and  O_16
REMARK    9  A    between atoms: C_15  and  C_18
REMARK   10  A    between atoms: C_18  and  C_20
REMARK   11  A    between atoms: C_20  and  O_21
REMARK   12  A    between atoms: C_23  and  C_24
REMARK                            x       y       z     vdW  Elec       q    Type
REMARK                         _______ _______ _______ _____ _____    ______ ____
ROOT
ATOM      1  C   UNL     1      35.397 -17.472 -21.438  0.00  0.00    +0.149 C 
ENDROOT
BRANCH   1   4
ATOM      2  O   UNL     1      33.079 -17.071 -20.848  0.00  0.00    -0.273 OA
ATOM      3  N   UNL     1      34.384 -15.281 -21.548  0.00  0.00    -0.303 N 
ATOM      4  C   UNL     1      34.147 -16.617 -21.255  0.00  0.00    +0.240 C 
ATOM      5  H   UNL     1      35.279 -15.023 -21.868  0.00  0.00    +0.149 HD
BRANCH   3   6
ATOM      6  C   UNL     1      33.380 -14.249 -21.409  0.00  0.00    +0.089 C 
BRANCH   6   7
ATOM      7  C   UNL     1      32.632 -13.982 -22.712  0.00  0.00    +0.021 C 
BRANCH   7   8
ATOM      8  C   UNL     1      33.523 -13.579 -23.904  0.00  0.00    +0.002 C 
ATOM      9  C   UNL     1      33.663 -12.055 -23.953  0.00  0.00    +0.000 C 
ATOM     10  C   UNL     1      32.977 -14.089 -25.239  0.00  0.00    +0.000 C 
ENDBRANCH   7   8
ENDBRANCH   6   7
ENDBRANCH   3   6
ENDBRANCH   1   4
BRANCH   1  12
ATOM     11  O   UNL     1      37.304 -19.497 -20.690  0.00  0.00    -0.272 OA
ATOM     12  N   UNL     1      35.107 -18.770 -20.886  0.00  0.00    -0.296 N 
ATOM     13  C   UNL     1      36.097 -19.686 -20.554  0.00  0.00    +0.250 C 
ATOM     14  H   UNL     1      34.166 -19.019 -20.737  0.00  0.00    +0.150 HD
BRANCH  13  15
ATOM     15  C   UNL     1      35.531 -20.989 -20.005  0.00  0.00    +0.198 C 
BRANCH  15  16
ATOM     16  O   UNL     1      36.091 -21.223 -18.721  0.00  0.00    -0.375 OA
ATOM     17  H   UNL     1      35.748 -20.567 -18.094  0.00  0.00    +0.211 HD
ENDBRANCH  15  16
BRANCH  15  18
ATOM     18  C   UNL     1      34.004 -20.937 -19.905  0.00  0.00    +0.148 C 
BRANCH  18  20
ATOM     19  O   UNL     1      32.457 -22.166 -18.476  0.00  0.00    -0.250 OA
ATOM     20  C   UNL     1      33.434 -22.157 -19.213  0.00  0.00    +0.317 C 
BRANCH  20  21
ATOM     21  O   UNL     1      34.143 -23.275 -19.517  0.00  0.00    -0.480 OA
ATOM     22  H   UNL     1      34.264 -23.524 -20.412  0.00  0.00    +0.295 HD
ENDBRANCH  20  21
ENDBRANCH  18  20
ENDBRANCH  15  18
ENDBRANCH  13  15
ENDBRANCH   1  12
BRANCH   1  23
ATOM     23  C   UNL     1      35.777 -17.545 -22.922  0.00  0.00    +0.029 C 
BRANCH  23  24
ATOM     24  C   UNL     1      34.651 -18.033 -23.856  0.00  0.00    +0.002 C 
ATOM     25  C   UNL     1      34.568 -17.217 -25.147  0.00  0.00    +0.000 C 
ATOM     26  C   UNL     1      34.865 -19.511 -24.194  0.00  0.00    +0.000 C 
ENDBRANCH  23  24
ENDBRANCH   1  23
TORSDOF 12
ENDMDL
MODEL 8
REMARK VINA RESULT:      -7.5      2.489      3.399
REMARK  Name = 5288147
REMARK  12 active torsions:
REMARK  status: ('A' for Active; 'I' for Inactive)
REMARK    1  A    between atoms: C_1  and  C_4
REMARK    2  A    between atoms: C_1  and  N_12
REMARK    3  A    between atoms: C_1  and  C_23
REMARK    4  A    between atoms: N_3  and  C_6
REMARK    5  A    between atoms: C_6  and  C_7
REMARK    6  A    between atoms: C_7  and  C_8
REMARK    7  A    between atoms: C_13  and  C_15
REMARK    8  A    between atoms: C_15  and  O_16
REMARK    9  A    between atoms: C_15  and  C_18
REMARK   10  A    between atoms: C_18  and  C_20
REMARK   11  A    between atoms: C_20  and  O_21
REMARK   12  A    between atoms: C_23  and  C_24
REMARK                            x       y       z     vdW  Elec       q    Type
REMARK                         _______ _______ _______ _____ _____    ______ ____
ROOT
ATOM      1  C   UNL     1      32.472 -23.470 -15.564  0.00  0.00    +0.149 C 
ENDROOT
BRANCH   1   4
ATOM      2  O   UNL     1      31.513 -22.420 -17.527  0.00  0.00    -0.273 OA
ATOM      3  N   UNL     1      33.723 -23.129 -17.603  0.00  0.00    -0.303 N 
ATOM      4  C   UNL     1      32.484 -22.959 -17.001  0.00  0.00    +0.240 C 
ATOM      5  H   UNL     1      34.436 -23.575 -17.090  0.00  0.00    +0.149 HD
BRANCH   3   6
ATOM      6  C   UNL     1      34.018 -22.685 -18.947  0.00  0.00    +0.089 C 
BRANCH   6   7
ATOM      7  C   UNL     1      35.197 -21.716 -18.995  0.00  0.00    +0.021 C 
BRANCH   7   8
ATOM      8  C   UNL     1      35.333 -20.921 -20.309  0.00  0.00    +0.002 C 
ATOM      9  C   UNL     1      36.571 -20.022 -20.244  0.00  0.00    +0.000 C 
ATOM     10  C   UNL     1      34.096 -20.073 -20.610  0.00  0.00    +0.000 C 
ENDBRANCH   7   8
ENDBRANCH   6   7
ENDBRANCH   3   6
ENDBRANCH   1   4
BRANCH   1  12
ATOM     11  O   UNL     1      33.557 -24.549 -13.123  0.00  0.00    -0.272 OA
ATOM     12  N   UNL     1      33.778 -23.217 -15.012  0.00  0.00    -0.296 N 
ATOM     13  C   UNL     1      34.217 -23.784 -13.822  0.00  0.00    +0.250 C 
ATOM     14  H   UNL     1      34.386 -22.615 -15.500  0.00  0.00    +0.150 HD
BRANCH  13  15
ATOM     15  C   UNL     1      35.626 -23.344 -13.447  0.00  0.00    +0.198 C 
BRANCH  15  16
ATOM     16  O   UNL     1      35.741 -23.346 -12.032  0.00  0.00    -0.375 OA
ATOM     17  H   UNL     1      35.064 -22.766 -11.652  0.00  0.00    +0.211 HD
ENDBRANCH  15  16
BRANCH  15  18
ATOM     18  C   UNL     1      36.682 -24.271 -14.058  0.00  0.00    +0.148 C 
BRANCH  18  20
ATOM     19  O   UNL     1      36.555 -23.259 -16.273  0.00  0.00    -0.250 OA
ATOM     20  C   UNL     1      37.224 -23.735 -15.366  0.00  0.00    +0.317 C 
BRANCH  20  21
ATOM     21  O   UNL     1      38.578 -23.838 -15.420  0.00  0.00    -0.480 OA
ATOM     22  H   UNL     1      39.112 -23.277 -14.892  0.00  0.00    +0.295 HD
ENDBRANCH  20  21
ENDBRANCH  18  20
ENDBRANCH  15  18
ENDBRANCH  13  15
ENDBRANCH   1  12
BRANCH   1  23
ATOM     23  C   UNL     1      31.360 -22.781 -14.764  0.00  0.00    +0.029 C 
BRANCH  23  24
ATOM     24  C   UNL     1      30.110 -23.647 -14.513  0.00  0.00    +0.002 C 
ATOM     25  C   UNL     1      28.955 -23.290 -15.448  0.00  0.00    +0.000 C 
ATOM     26  C   UNL     1      30.467 -25.127 -14.677  0.00  0.00    +0.000 C 
ENDBRANCH  23  24
ENDBRANCH   1  23
TORSDOF 12
ENDMDL
MODEL 9
REMARK VINA RESULT:      -7.4      1.675      2.180
REMARK  Name = 5288147
REMARK  12 active torsions:
REMARK  status: ('A' for Active; 'I' for Inactive)
REMARK    1  A    between atoms: C_1  and  C_4
REMARK    2  A    between atoms: C_1  and  N_12
REMARK    3  A    between atoms: C_1  and  C_23
REMARK    4  A    between atoms: N_3  and  C_6
REMARK    5  A    between atoms: C_6  and  C_7
REMARK    6  A    between atoms: C_7  and  C_8
REMARK    7  A    between atoms: C_13  and  C_15
REMARK    8  A    between atoms: C_15  and  O_16
REMARK    9  A    between atoms: C_15  and  C_18
REMARK   10  A    between atoms: C_18  and  C_20
REMARK   11  A    between atoms: C_20  and  O_21
REMARK   12  A    between atoms: C_23  and  C_24
REMARK                            x       y       z     vdW  Elec       q    Type
REMARK                         _______ _______ _______ _____ _____    ______ ____
ROOT
ATOM      1  C   UNL     1      33.840 -23.570 -15.897  0.00  0.00    +0.149 C 
ENDROOT
BRANCH   1   4
ATOM      2  O   UNL     1      32.294 -22.988 -17.672  0.00  0.00    -0.273 OA
ATOM      3  N   UNL     1      34.576 -22.872 -18.090  0.00  0.00    -0.303 N 
ATOM      4  C   UNL     1      33.460 -23.131 -17.307  0.00  0.00    +0.240 C 
ATOM      5  H   UNL     1      35.467 -23.021 -17.699  0.00  0.00    +0.149 HD
BRANCH   3   6
ATOM      6  C   UNL     1      34.495 -22.393 -19.452  0.00  0.00    +0.089 C 
BRANCH   6   7
ATOM      7  C   UNL     1      35.230 -21.070 -19.651  0.00  0.00    +0.021 C 
BRANCH   7   8
ATOM      8  C   UNL     1      34.418 -19.976 -20.372  0.00  0.00    +0.002 C 
ATOM      9  C   UNL     1      32.942 -20.379 -20.429  0.00  0.00    +0.000 C 
ATOM     10  C   UNL     1      34.932 -19.705 -21.787  0.00  0.00    +0.000 C 
ENDBRANCH   7   8
ENDBRANCH   6   7
ENDBRANCH   3   6
ENDBRANCH   1   4
BRANCH   1  12
ATOM     11  O   UNL     1      35.623 -25.595 -14.889  0.00  0.00    -0.272 OA
ATOM     12  N   UNL     1      35.274 -23.487 -15.799  0.00  0.00    -0.296 N 
ATOM     13  C   UNL     1      36.056 -24.519 -15.297  0.00  0.00    +0.250 C 
ATOM     14  H   UNL     1      35.720 -22.662 -16.101  0.00  0.00    +0.150 HD
BRANCH  13  15
ATOM     15  C   UNL     1      37.541 -24.178 -15.283  0.00  0.00    +0.198 C 
BRANCH  15  16
ATOM     16  O   UNL     1      37.717 -22.949 -14.594  0.00  0.00    -0.375 OA
ATOM     17  H   UNL     1      38.655 -22.831 -14.377  0.00  0.00    +0.211 HD
ENDBRANCH  15  16
BRANCH  15  18
ATOM     18  C   UNL     1      38.361 -25.278 -14.603  0.00  0.00    +0.148 C 
BRANCH  18  20
ATOM     19  O   UNL     1      40.685 -24.637 -14.235  0.00  0.00    -0.250 OA
ATOM     20  C   UNL     1      39.836 -25.176 -14.932  0.00  0.00    +0.317 C 
BRANCH  20  21
ATOM     21  O   UNL     1      40.122 -25.775 -16.116  0.00  0.00    -0.480 OA
ATOM     22  H   UNL     1      40.383 -26.675 -16.136  0.00  0.00    +0.295 HD
ENDBRANCH  20  21
ENDBRANCH  18  20
ENDBRANCH  15  18
ENDBRANCH  13  15
ENDBRANCH   1  12
BRANCH   1  23
ATOM     23  C   UNL     1      33.135 -22.687 -14.859  0.00  0.00    +0.029 C 
BRANCH  23  24
ATOM     24  C   UNL     1      31.996 -23.381 -14.085  0.00  0.00    +0.002 C 
ATOM     25  C   UNL     1      30.620 -23.079 -14.678  0.00  0.00    +0.000 C 
ATOM     26  C   UNL     1      32.231 -24.894 -14.069  0.00  0.00    +0.000 C 
ENDBRANCH  23  24
ENDBRANCH   1  23
TORSDOF 12
ENDMDL
