MODEL 1
REMARK VINA RESULT:      -8.3      0.000      0.000
REMARK  Name = 7100107
REMARK  4 active torsions:
REMARK  status: ('A' for Active; 'I' for Inactive)
REMARK    1  A    between atoms: N_2  and  C_7
REMARK    2  A    between atoms: C_3  and  C_13
REMARK    3  A    between atoms: C_14  and  C_17
REMARK    4  A    between atoms: C_17  and  O_18
REMARK                            x       y       z     vdW  Elec       q    Type
REMARK                         _______ _______ _______ _____ _____    ______ ____
ROOT
ATOM      1  O   UNL     1      35.324 -16.747 -20.388  0.00  0.00    -0.275 OA
ATOM      2  N   UNL     1      34.193 -18.412 -21.608  0.00  0.00    -0.282 N 
ATOM      3  C   UNL     1      34.644 -17.118 -21.334  0.00  0.00    +0.226 C 
ATOM      4  H   UNL     1      33.652 -18.516 -22.425  0.00  0.00    +0.155 HD
ENDROOT
BRANCH   2   7
ATOM      5  F   UNL     1      32.087 -19.791 -20.435  0.00  0.00    -0.203 F 
ATOM      6  F   UNL     1      37.179 -21.690 -19.818  0.00  0.00    -0.204 F 
ATOM      7  C   UNL     1      34.413 -19.574 -20.869  0.00  0.00    +0.080 C 
ATOM      8  C   UNL     1      33.339 -20.250 -20.289  0.00  0.00    +0.154 C 
ATOM      9  C   UNL     1      35.710 -20.061 -20.710  0.00  0.00    +0.047 C 
ATOM     10  C   UNL     1      35.934 -21.223 -19.970  0.00  0.00    +0.142 C 
ATOM     11  C   UNL     1      33.562 -21.412 -19.550  0.00  0.00    +0.033 C 
ATOM     12  C   UNL     1      34.860 -21.898 -19.391  0.00  0.00    +0.032 C 
ENDBRANCH   2   7
BRANCH   3  13
ATOM     13  C   UNL     1      34.218 -16.102 -22.347  0.00  0.00    +0.088 C 
ATOM     14  C   UNL     1      33.046 -15.240 -22.031  0.00  0.00    +0.108 C 
ATOM     15  C   UNL     1      34.431 -14.663 -22.032  0.00  0.00    +0.021 C 
BRANCH  14  17
ATOM     16  O   UNL     1      32.460 -14.657 -19.814  0.00  0.00    -0.250 OA
ATOM     17  C   UNL     1      32.356 -15.440 -20.746  0.00  0.00    +0.314 C 
BRANCH  17  18
ATOM     18  O   UNL     1      31.609 -16.570 -20.732  0.00  0.00    -0.480 OA
ATOM     19  H   UNL     1      31.736 -17.222 -21.393  0.00  0.00    +0.295 HD
ENDBRANCH  17  18
ENDBRANCH  14  17
ENDBRANCH   3  13
TORSDOF 4
ENDMDL
MODEL 2
REMARK VINA RESULT:      -8.2      1.046      2.001
REMARK  Name = 7100107
REMARK  4 active torsions:
REMARK  status: ('A' for Active; 'I' for Inactive)
REMARK    1  A    between atoms: N_2  and  C_7
REMARK    2  A    between atoms: C_3  and  C_13
REMARK    3  A    between atoms: C_14  and  C_17
REMARK    4  A    between atoms: C_17  and  O_18
REMARK                            x       y       z     vdW  Elec       q    Type
REMARK                         _______ _______ _______ _____ _____    ______ ____
ROOT
ATOM      1  O   UNL     1      35.274 -16.630 -20.323  0.00  0.00    -0.275 OA
ATOM      2  N   UNL     1      34.434 -18.424 -21.596  0.00  0.00    -0.282 N 
ATOM      3  C   UNL     1      34.702 -17.083 -21.304  0.00  0.00    +0.226 C 
ATOM      4  H   UNL     1      33.960 -18.594 -22.442  0.00  0.00    +0.155 HD
ENDROOT
BRANCH   2   7
ATOM      5  F   UNL     1      37.078 -19.126 -21.116  0.00  0.00    -0.203 F 
ATOM      6  F   UNL     1      33.084 -22.235 -19.042  0.00  0.00    -0.204 F 
ATOM      7  C   UNL     1      34.757 -19.550 -20.839  0.00  0.00    +0.080 C 
ATOM      8  C   UNL     1      36.092 -19.883 -20.611  0.00  0.00    +0.154 C 
ATOM      9  C   UNL     1      33.741 -20.345 -20.309  0.00  0.00    +0.047 C 
ATOM     10  C   UNL     1      34.060 -21.472 -19.551  0.00  0.00    +0.142 C 
ATOM     11  C   UNL     1      36.412 -21.010 -19.853  0.00  0.00    +0.033 C 
ATOM     12  C   UNL     1      35.395 -21.804 -19.324  0.00  0.00    +0.032 C 
ENDBRANCH   2   7
BRANCH   3  13
ATOM     13  C   UNL     1      34.211 -16.128 -22.346  0.00  0.00    +0.088 C 
ATOM     14  C   UNL     1      33.006 -15.309 -22.039  0.00  0.00    +0.108 C 
ATOM     15  C   UNL     1      34.362 -14.670 -22.090  0.00  0.00    +0.021 C 
BRANCH  14  17
ATOM     16  O   UNL     1      32.521 -14.723 -19.799  0.00  0.00    -0.250 OA
ATOM     17  C   UNL     1      32.350 -15.490 -20.734  0.00  0.00    +0.314 C 
BRANCH  17  18
ATOM     18  O   UNL     1      31.553 -16.585 -20.704  0.00  0.00    -0.480 OA
ATOM     19  H   UNL     1      30.625 -16.491 -20.800  0.00  0.00    +0.295 HD
ENDBRANCH  17  18
ENDBRANCH  14  17
ENDBRANCH   3  13
TORSDOF 4
ENDMDL
MODEL 3
REMARK VINA RESULT:      -7.9      6.642      9.286
REMARK  Name = 7100107
REMARK  4 active torsions:
REMARK  status: ('A' for Active; 'I' for Inactive)
REMARK    1  A    between atoms: N_2  and  C_7
REMARK    2  A    between atoms: C_3  and  C_13
REMARK    3  A    between atoms: C_14  and  C_17
REMARK    4  A    between atoms: C_17  and  O_18
REMARK                            x       y       z     vdW  Elec       q    Type
REMARK                         _______ _______ _______ _____ _____    ______ ____
ROOT
ATOM      1  O   UNL     1      36.031 -25.680 -15.556  0.00  0.00    -0.275 OA
ATOM      2  N   UNL     1      35.890 -23.347 -15.274  0.00  0.00    -0.282 N 
ATOM      3  C   UNL     1      36.129 -24.666 -14.879  0.00  0.00    +0.226 C 
ATOM      4  H   UNL     1      36.024 -22.658 -14.583  0.00  0.00    +0.155 HD
ENDROOT
BRANCH   2   7
ATOM      5  F   UNL     1      33.305 -23.768 -16.198  0.00  0.00    -0.203 F 
ATOM      6  F   UNL     1      36.853 -21.074 -19.370  0.00  0.00    -0.204 F 
ATOM      7  C   UNL     1      35.485 -22.884 -16.527  0.00  0.00    +0.080 C 
ATOM      8  C   UNL     1      34.181 -23.108 -16.969  0.00  0.00    +0.154 C 
ATOM      9  C   UNL     1      36.388 -22.197 -17.339  0.00  0.00    +0.047 C 
ATOM     10  C   UNL     1      35.986 -21.734 -18.592  0.00  0.00    +0.142 C 
ATOM     11  C   UNL     1      33.780 -22.645 -18.222  0.00  0.00    +0.033 C 
ATOM     12  C   UNL     1      34.682 -21.958 -19.033  0.00  0.00    +0.032 C 
ENDBRANCH   2   7
BRANCH   3  13
ATOM     13  C   UNL     1      36.553 -24.801 -13.450  0.00  0.00    +0.088 C 
ATOM     14  C   UNL     1      37.965 -25.180 -13.168  0.00  0.00    +0.108 C 
ATOM     15  C   UNL     1      37.488 -23.784 -12.896  0.00  0.00    +0.021 C 
BRANCH  14  17
ATOM     16  O   UNL     1      39.565 -24.538 -14.787  0.00  0.00    -0.250 OA
ATOM     17  C   UNL     1      38.868 -25.417 -14.306  0.00  0.00    +0.314 C 
BRANCH  17  18
ATOM     18  O   UNL     1      38.828 -26.701 -14.737  0.00  0.00    -0.480 OA
ATOM     19  H   UNL     1      38.930 -27.403 -14.125  0.00  0.00    +0.295 HD
ENDBRANCH  17  18
ENDBRANCH  14  17
ENDBRANCH   3  13
TORSDOF 4
ENDMDL
MODEL 4
REMARK VINA RESULT:      -7.8      6.935      9.908
REMARK  Name = 7100107
REMARK  4 active torsions:
REMARK  status: ('A' for Active; 'I' for Inactive)
REMARK    1  A    between atoms: N_2  and  C_7
REMARK    2  A    between atoms: C_3  and  C_13
REMARK    3  A    between atoms: C_14  and  C_17
REMARK    4  A    between atoms: C_17  and  O_18
REMARK                            x       y       z     vdW  Elec       q    Type
REMARK                         _______ _______ _______ _____ _____    ______ ____
ROOT
ATOM      1  O   UNL     1      36.310 -25.976 -15.373  0.00  0.00    -0.275 OA
ATOM      2  N   UNL     1      36.212 -23.682 -14.851  0.00  0.00    -0.282 N 
ATOM      3  C   UNL     1      36.386 -25.043 -14.586  0.00  0.00    +0.226 C 
ATOM      4  H   UNL     1      36.314 -23.076 -14.082  0.00  0.00    +0.155 HD
ENDROOT
BRANCH   2   7
ATOM      5  F   UNL     1      38.122 -22.222 -16.242  0.00  0.00    -0.203 F 
ATOM      6  F   UNL     1      33.098 -22.709 -18.349  0.00  0.00    -0.204 F 
ATOM      7  C   UNL     1      35.911 -23.075 -16.071  0.00  0.00    +0.080 C 
ATOM      8  C   UNL     1      36.888 -22.347 -16.752  0.00  0.00    +0.154 C 
ATOM      9  C   UNL     1      34.631 -23.197 -16.612  0.00  0.00    +0.047 C 
ATOM     10  C   UNL     1      34.327 -22.591 -17.831  0.00  0.00    +0.142 C 
ATOM     11  C   UNL     1      36.584 -21.741 -17.971  0.00  0.00    +0.033 C 
ATOM     12  C   UNL     1      35.304 -21.863 -18.510  0.00  0.00    +0.032 C 
ENDBRANCH   2   7
BRANCH   3  13
ATOM     13  C   UNL     1      36.702 -25.344 -13.155  0.00  0.00    +0.088 C 
ATOM     14  C   UNL     1      38.121 -25.610 -12.788  0.00  0.00    +0.108 C 
ATOM     15  C   UNL     1      37.460 -24.328 -12.374  0.00  0.00    +0.021 C 
BRANCH  14  17
ATOM     16  O   UNL     1      39.873 -24.622 -14.032  0.00  0.00    -0.250 OA
ATOM     17  C   UNL     1      39.137 -25.580 -13.852  0.00  0.00    +0.314 C 
BRANCH  17  18
ATOM     18  O   UNL     1      39.152 -26.720 -14.584  0.00  0.00    -0.480 OA
ATOM     19  H   UNL     1      38.910 -26.697 -15.488  0.00  0.00    +0.295 HD
ENDBRANCH  17  18
ENDBRANCH  14  17
ENDBRANCH   3  13
TORSDOF 4
ENDMDL
MODEL 5
REMARK VINA RESULT:      -7.8      7.733     10.153
REMARK  Name = 7100107
REMARK  4 active torsions:
REMARK  status: ('A' for Active; 'I' for Inactive)
REMARK    1  A    between atoms: N_2  and  C_7
REMARK    2  A    between atoms: C_3  and  C_13
REMARK    3  A    between atoms: C_14  and  C_17
REMARK    4  A    between atoms: C_17  and  O_18
REMARK                            x       y       z     vdW  Elec       q    Type
REMARK                         _______ _______ _______ _____ _____    ______ ____
ROOT
ATOM      1  O   UNL     1      37.426 -22.724 -14.973  0.00  0.00    -0.275 OA
ATOM      2  N   UNL     1      36.104 -24.663 -14.791  0.00  0.00    -0.282 N 
ATOM      3  C   UNL     1      37.293 -23.931 -14.828  0.00  0.00    +0.226 C 
ATOM      4  H   UNL     1      36.199 -25.635 -14.664  0.00  0.00    +0.155 HD
ENDROOT
BRANCH   2   7
ATOM      5  F   UNL     1      34.386 -24.604 -12.609  0.00  0.00    -0.203 F 
ATOM      6  F   UNL     1      32.586 -22.820 -17.456  0.00  0.00    -0.204 F 
ATOM      7  C   UNL     1      34.797 -24.188 -14.912  0.00  0.00    +0.080 C 
ATOM      8  C   UNL     1      33.953 -24.168 -13.801  0.00  0.00    +0.154 C 
ATOM      9  C   UNL     1      34.335 -23.732 -16.147  0.00  0.00    +0.047 C 
ATOM     10  C   UNL     1      33.029 -23.258 -16.271  0.00  0.00    +0.142 C 
ATOM     11  C   UNL     1      32.647 -23.693 -13.925  0.00  0.00    +0.033 C 
ATOM     12  C   UNL     1      32.185 -23.238 -15.160  0.00  0.00    +0.032 C 
ENDBRANCH   2   7
BRANCH   3  13
ATOM     13  C   UNL     1      38.523 -24.768 -14.665  0.00  0.00    +0.088 C 
ATOM     14  C   UNL     1      38.982 -25.084 -13.284  0.00  0.00    +0.108 C 
ATOM     15  C   UNL     1      38.367 -26.152 -14.140  0.00  0.00    +0.021 C 
BRANCH  14  17
ATOM     16  O   UNL     1      37.241 -25.119 -11.683  0.00  0.00    -0.250 OA
ATOM     17  C   UNL     1      38.213 -24.546 -12.151  0.00  0.00    +0.314 C 
BRANCH  17  18
ATOM     18  O   UNL     1      38.710 -23.367 -11.703  0.00  0.00    -0.480 OA
ATOM     19  H   UNL     1      39.584 -23.115 -11.924  0.00  0.00    +0.295 HD
ENDBRANCH  17  18
ENDBRANCH  14  17
ENDBRANCH   3  13
TORSDOF 4
ENDMDL
MODEL 6
REMARK VINA RESULT:      -7.7      7.935     10.139
REMARK  Name = 7100107
REMARK  4 active torsions:
REMARK  status: ('A' for Active; 'I' for Inactive)
REMARK    1  A    between atoms: N_2  and  C_7
REMARK    2  A    between atoms: C_3  and  C_13
REMARK    3  A    between atoms: C_14  and  C_17
REMARK    4  A    between atoms: C_17  and  O_18
REMARK                            x       y       z     vdW  Elec       q    Type
REMARK                         _______ _______ _______ _____ _____    ______ ____
ROOT
ATOM      1  O   UNL     1      35.874 -25.720 -15.652  0.00  0.00    -0.275 OA
ATOM      2  N   UNL     1      35.251 -23.621 -14.788  0.00  0.00    -0.282 N 
ATOM      3  C   UNL     1      36.127 -24.669 -15.081  0.00  0.00    +0.226 C 
ATOM      4  H   UNL     1      35.643 -22.848 -14.320  0.00  0.00    +0.155 HD
ENDROOT
BRANCH   2   7
ATOM      5  F   UNL     1      34.354 -23.160 -17.376  0.00  0.00    -0.203 F 
ATOM      6  F   UNL     1      30.689 -23.726 -13.356  0.00  0.00    -0.204 F 
ATOM      7  C   UNL     1      33.889 -23.532 -15.076  0.00  0.00    +0.080 C 
ATOM      8  C   UNL     1      33.463 -23.300 -16.384  0.00  0.00    +0.154 C 
ATOM      9  C   UNL     1      32.951 -23.676 -14.054  0.00  0.00    +0.047 C 
ATOM     10  C   UNL     1      31.588 -23.588 -14.339  0.00  0.00    +0.142 C 
ATOM     11  C   UNL     1      32.100 -23.212 -16.669  0.00  0.00    +0.033 C 
ATOM     12  C   UNL     1      31.163 -23.355 -15.646  0.00  0.00    +0.032 C 
ENDBRANCH   2   7
BRANCH   3  13
ATOM     13  C   UNL     1      37.532 -24.428 -14.624  0.00  0.00    +0.088 C 
ATOM     14  C   UNL     1      37.976 -25.061 -13.351  0.00  0.00    +0.108 C 
ATOM     15  C   UNL     1      38.490 -25.566 -14.667  0.00  0.00    +0.021 C 
BRANCH  14  17
ATOM     16  O   UNL     1      36.426 -25.462 -11.611  0.00  0.00    -0.250 OA
ATOM     17  C   UNL     1      37.010 -25.877 -12.600  0.00  0.00    +0.314 C 
BRANCH  17  18
ATOM     18  O   UNL     1      36.853 -27.113 -13.133  0.00  0.00    -0.480 OA
ATOM     19  H   UNL     1      36.562 -27.821 -12.594  0.00  0.00    +0.295 HD
ENDBRANCH  17  18
ENDBRANCH  14  17
ENDBRANCH   3  13
TORSDOF 4
ENDMDL
MODEL 7
REMARK VINA RESULT:      -7.7      7.676      9.299
REMARK  Name = 7100107
REMARK  4 active torsions:
REMARK  status: ('A' for Active; 'I' for Inactive)
REMARK    1  A    between atoms: N_2  and  C_7
REMARK    2  A    between atoms: C_3  and  C_13
REMARK    3  A    between atoms: C_14  and  C_17
REMARK    4  A    between atoms: C_17  and  O_18
REMARK                            x       y       z     vdW  Elec       q    Type
REMARK                         _______ _______ _______ _____ _____    ______ ____
ROOT
ATOM      1  O   UNL     1      34.245 -23.588 -16.939  0.00  0.00    -0.275 OA
ATOM      2  N   UNL     1      33.227 -23.156 -14.861  0.00  0.00    -0.282 N 
ATOM      3  C   UNL     1      34.274 -23.182 -15.786  0.00  0.00    +0.226 C 
ATOM      4  H   UNL     1      33.444 -22.787 -13.973  0.00  0.00    +0.155 HD
ENDROOT
BRANCH   2   7
ATOM      5  F   UNL     1      32.232 -25.345 -13.472  0.00  0.00    -0.203 F 
ATOM      6  F   UNL     1      28.953 -22.697 -16.958  0.00  0.00    -0.204 F 
ATOM      7  C   UNL     1      31.912 -23.587 -15.037  0.00  0.00    +0.080 C 
ATOM      8  C   UNL     1      31.434 -24.690 -14.328  0.00  0.00    +0.154 C 
ATOM      9  C   UNL     1      31.073 -22.914 -15.926  0.00  0.00    +0.047 C 
ATOM     10  C   UNL     1      29.758 -23.344 -16.105  0.00  0.00    +0.142 C 
ATOM     11  C   UNL     1      30.119 -25.119 -14.507  0.00  0.00    +0.033 C 
ATOM     12  C   UNL     1      29.282 -24.446 -15.396  0.00  0.00    +0.032 C 
ENDBRANCH   2   7
BRANCH   3  13
ATOM     13  C   UNL     1      35.562 -22.635 -15.256  0.00  0.00    +0.088 C 
ATOM     14  C   UNL     1      36.550 -23.591 -14.683  0.00  0.00    +0.108 C 
ATOM     15  C   UNL     1      36.813 -22.933 -16.005  0.00  0.00    +0.021 C 
BRANCH  14  17
ATOM     16  O   UNL     1      36.632 -25.819 -15.471  0.00  0.00    -0.250 OA
ATOM     17  C   UNL     1      36.204 -25.021 -14.652  0.00  0.00    +0.314 C 
BRANCH  17  18
ATOM     18  O   UNL     1      35.376 -25.329 -13.625  0.00  0.00    -0.480 OA
ATOM     19  H   UNL     1      35.494 -24.921 -12.790  0.00  0.00    +0.295 HD
ENDBRANCH  17  18
ENDBRANCH  14  17
ENDBRANCH   3  13
TORSDOF 4
ENDMDL
MODEL 8
REMARK VINA RESULT:      -7.6      2.270      3.434
REMARK  Name = 7100107
REMARK  4 active torsions:
REMARK  status: ('A' for Active; 'I' for Inactive)
REMARK    1  A    between atoms: N_2  and  C_7
REMARK    2  A    between atoms: C_3  and  C_13
REMARK    3  A    between atoms: C_14  and  C_17
REMARK    4  A    between atoms: C_17  and  O_18
REMARK                            x       y       z     vdW  Elec       q    Type
REMARK                         _______ _______ _______ _____ _____    ______ ____
ROOT
ATOM      1  O   UNL     1      33.503 -17.055 -21.557  0.00  0.00    -0.275 OA
ATOM      2  N   UNL     1      35.570 -18.155 -21.798  0.00  0.00    -0.282 N 
ATOM      3  C   UNL     1      34.631 -17.144 -22.020  0.00  0.00    +0.226 C 
ATOM      4  H   UNL     1      36.433 -18.052 -22.262  0.00  0.00    +0.155 HD
ENDROOT
BRANCH   2   7
ATOM      5  F   UNL     1      37.797 -19.461 -20.774  0.00  0.00    -0.203 F 
ATOM      6  F   UNL     1      32.816 -21.405 -19.625  0.00  0.00    -0.204 F 
ATOM      7  C   UNL     1      35.438 -19.292 -21.000  0.00  0.00    +0.080 C 
ATOM      8  C   UNL     1      36.572 -19.931 -20.497  0.00  0.00    +0.154 C 
ATOM      9  C   UNL     1      34.169 -19.791 -20.705  0.00  0.00    +0.047 C 
ATOM     10  C   UNL     1      34.034 -20.928 -19.908  0.00  0.00    +0.142 C 
ATOM     11  C   UNL     1      36.437 -21.068 -19.700  0.00  0.00    +0.033 C 
ATOM     12  C   UNL     1      35.168 -21.566 -19.406  0.00  0.00    +0.032 C 
ENDBRANCH   2   7
BRANCH   3  13
ATOM     13  C   UNL     1      35.110 -16.066 -22.940  0.00  0.00    +0.088 C 
ATOM     14  C   UNL     1      35.014 -16.297 -24.407  0.00  0.00    +0.108 C 
ATOM     15  C   UNL     1      34.097 -15.318 -23.734  0.00  0.00    +0.021 C 
BRANCH  14  17
ATOM     16  O   UNL     1      34.865 -18.657 -24.464  0.00  0.00    -0.250 OA
ATOM     17  C   UNL     1      34.467 -17.580 -24.880  0.00  0.00    +0.314 C 
BRANCH  17  18
ATOM     18  O   UNL     1      33.493 -17.416 -25.806  0.00  0.00    -0.480 OA
ATOM     19  H   UNL     1      32.854 -16.738 -25.698  0.00  0.00    +0.295 HD
ENDBRANCH  17  18
ENDBRANCH  14  17
ENDBRANCH   3  13
TORSDOF 4
ENDMDL
MODEL 9
REMARK VINA RESULT:      -7.5      3.498      6.293
REMARK  Name = 7100107
REMARK  4 active torsions:
REMARK  status: ('A' for Active; 'I' for Inactive)
REMARK    1  A    between atoms: N_2  and  C_7
REMARK    2  A    between atoms: C_3  and  C_13
REMARK    3  A    between atoms: C_14  and  C_17
REMARK    4  A    between atoms: C_17  and  O_18
REMARK                            x       y       z     vdW  Elec       q    Type
REMARK                         _______ _______ _______ _____ _____    ______ ____
ROOT
ATOM      1  O   UNL     1      33.580 -16.270 -21.012  0.00  0.00    -0.275 OA
ATOM      2  N   UNL     1      34.964 -16.392 -22.913  0.00  0.00    -0.282 N 
ATOM      3  C   UNL     1      34.565 -16.685 -21.606  0.00  0.00    +0.226 C 
ATOM      4  H   UNL     1      35.793 -16.827 -23.219  0.00  0.00    +0.155 HD
ENDROOT
BRANCH   2   7
ATOM      5  F   UNL     1      34.134 -17.353 -25.383  0.00  0.00    -0.203 F 
ATOM      6  F   UNL     1      33.270 -12.095 -24.151  0.00  0.00    -0.204 F 
ATOM      7  C   UNL     1      34.333 -15.559 -23.838  0.00  0.00    +0.080 C 
ATOM      8  C   UNL     1      33.925 -16.065 -25.072  0.00  0.00    +0.154 C 
ATOM      9  C   UNL     1      34.112 -14.217 -23.527  0.00  0.00    +0.047 C 
ATOM     10  C   UNL     1      33.483 -13.382 -24.450  0.00  0.00    +0.142 C 
ATOM     11  C   UNL     1      33.296 -15.230 -25.995  0.00  0.00    +0.033 C 
ATOM     12  C   UNL     1      33.075 -13.889 -25.684  0.00  0.00    +0.032 C 
ENDBRANCH   2   7
BRANCH   3  13
ATOM     13  C   UNL     1      35.484 -17.625 -20.890  0.00  0.00    +0.088 C 
ATOM     14  C   UNL     1      35.256 -19.088 -21.046  0.00  0.00    +0.108 C 
ATOM     15  C   UNL     1      36.435 -18.432 -21.702  0.00  0.00    +0.021 C 
BRANCH  14  17
ATOM     16  O   UNL     1      34.170 -19.519 -23.103  0.00  0.00    -0.250 OA
ATOM     17  C   UNL     1      34.131 -19.537 -21.882  0.00  0.00    +0.314 C 
BRANCH  17  18
ATOM     18  O   UNL     1      33.077 -19.962 -21.145  0.00  0.00    -0.480 OA
ATOM     19  H   UNL     1      32.230 -19.583 -21.277  0.00  0.00    +0.295 HD
ENDBRANCH  17  18
ENDBRANCH  14  17
ENDBRANCH   3  13
TORSDOF 4
ENDMDL
