MODEL 1
REMARK VINA RESULT:      -8.9      0.000      0.000
REMARK  Name = 15942661
REMARK  10 active torsions:
REMARK  status: ('A' for Active; 'I' for Inactive)
REMARK    1  A    between atoms: CA_1  and  C_4
REMARK    2  A    between atoms: CA_1  and  N_12
REMARK    3  A    between atoms: CA_1  and  CB_23
REMARK    4  A    between atoms: N_3  and  CA_6
REMARK    5  A    between atoms: CA_6  and  C_8
REMARK    6  A    between atoms: C_8  and  O_9
REMARK    7  A    between atoms: C_13  and  O_15
REMARK    8  A    between atoms: O_15  and  C_16
REMARK    9  A    between atoms: C_16  and  C_17
REMARK   10  A    between atoms: CB_23  and  SG_24
REMARK                            x       y       z     vdW  Elec       q    Type
REMARK                         _______ _______ _______ _____ _____    ______ ____
ROOT
ATOM      1  CA  UNL     1      35.756 -23.700 -14.863  0.00  0.00    +0.162 C 
ENDROOT
BRANCH   1   4
ATOM      2  O   UNL     1      36.253 -25.961 -15.590  0.00  0.00    -0.273 OA
ATOM      3  N   UNL     1      37.851 -24.806 -14.364  0.00  0.00    -0.294 N 
ATOM      4  C   UNL     1      36.625 -24.948 -15.000  0.00  0.00    +0.242 C 
ATOM      5  H   UNL     1      38.056 -23.953 -13.918  0.00  0.00    +0.150 HD
BRANCH   3   6
ATOM      6  CA  UNL     1      38.837 -25.860 -14.332  0.00  0.00    +0.200 C 
BRANCH   6   8
ATOM      7  OXT UNL     1      40.937 -24.683 -14.291  0.00  0.00    -0.248 OA
ATOM      8  C   UNL     1      40.171 -25.432 -14.886  0.00  0.00    +0.334 C 
BRANCH   8   9
ATOM      9  O   UNL     1      40.444 -25.953 -16.105  0.00  0.00    -0.479 OA
ATOM     10  H   UNL     1      40.959 -26.731 -16.177  0.00  0.00    +0.295 HD
ENDBRANCH   8   9
ENDBRANCH   6   8
ENDBRANCH   3   6
ENDBRANCH   1   4
BRANCH   1  12
ATOM     11  O   UNL     1      37.848 -22.062 -16.038  0.00  0.00    -0.226 OA
ATOM     12  N   UNL     1      35.732 -23.007 -16.127  0.00  0.00    -0.263 N 
ATOM     13  C   ACE A   0      36.778 -22.246 -16.609  0.00  0.00    +0.402 C 
ATOM     14  H   UNL     1      34.919 -23.081 -16.680  0.00  0.00    +0.153 HD
BRANCH  13  15
ATOM     15  O   UNL     1      36.449 -21.723 -17.827  0.00  0.00    -0.430 OA
BRANCH  15  16
ATOM     16  C   UNL     1      35.281 -22.271 -18.448  0.00  0.00    +0.237 C 
BRANCH  16  17
ATOM     17  C   UNL     1      34.780 -21.307 -19.484  0.00  0.00    +0.021 C 
ATOM     18  C   UNL     1      33.409 -21.111 -19.648  0.00  0.00    -0.001 C 
ATOM     19  C   UNL     1      35.686 -20.607 -20.281  0.00  0.00    -0.001 C 
ATOM     20  C   UNL     1      32.943 -20.216 -20.610  0.00  0.00    -0.000 C 
ATOM     21  C   UNL     1      35.220 -19.712 -21.244  0.00  0.00    -0.000 C 
ATOM     22  C   UNL     1      33.849 -19.515 -21.408  0.00  0.00    -0.000 C 
ENDBRANCH  16  17
ENDBRANCH  15  16
ENDBRANCH  13  15
ENDBRANCH   1  12
BRANCH   1  23
ATOM     23  CB  UNL     1      34.350 -23.992 -14.332  0.00  0.00    +0.082 C 
BRANCH  23  24
ATOM     24  SG  UNL     1      33.016 -23.436 -15.443  0.00  0.00    -0.166 S 
ATOM     25  HG  UNL     1      33.550 -22.721 -16.471  0.00  0.00    +0.102 HD
ENDBRANCH  23  24
ENDBRANCH   1  23
TORSDOF 10
ENDMDL
MODEL 2
REMARK VINA RESULT:      -8.5      4.612      6.942
REMARK  Name = 15942661
REMARK  10 active torsions:
REMARK  status: ('A' for Active; 'I' for Inactive)
REMARK    1  A    between atoms: CA_1  and  C_4
REMARK    2  A    between atoms: CA_1  and  N_12
REMARK    3  A    between atoms: CA_1  and  CB_23
REMARK    4  A    between atoms: N_3  and  CA_6
REMARK    5  A    between atoms: CA_6  and  C_8
REMARK    6  A    between atoms: C_8  and  O_9
REMARK    7  A    between atoms: C_13  and  O_15
REMARK    8  A    between atoms: O_15  and  C_16
REMARK    9  A    between atoms: C_16  and  C_17
REMARK   10  A    between atoms: CB_23  and  SG_24
REMARK                            x       y       z     vdW  Elec       q    Type
REMARK                         _______ _______ _______ _____ _____    ______ ____
ROOT
ATOM      1  CA  UNL     1      31.537 -23.742 -15.484  0.00  0.00    +0.162 C 
ENDROOT
BRANCH   1   4
ATOM      2  O   UNL     1      29.437 -24.738 -14.784  0.00  0.00    -0.273 OA
ATOM      3  N   UNL     1      29.396 -22.663 -15.820  0.00  0.00    -0.294 N 
ATOM      4  C   UNL     1      30.020 -23.790 -15.305  0.00  0.00    +0.242 C 
ATOM      5  H   UNL     1      29.952 -21.955 -16.219  0.00  0.00    +0.150 HD
BRANCH   3   6
ATOM      6  CA  UNL     1      27.963 -22.486 -15.793  0.00  0.00    +0.200 C 
BRANCH   6   8
ATOM      7  OXT UNL     1      27.497 -23.176 -18.052  0.00  0.00    -0.248 OA
ATOM      8  C   UNL     1      27.364 -22.339 -17.167  0.00  0.00    +0.334 C 
BRANCH   8   9
ATOM      9  O   UNL     1      26.664 -21.192 -17.333  0.00  0.00    -0.479 OA
ATOM     10  H   UNL     1      27.054 -20.466 -17.776  0.00  0.00    +0.295 HD
ENDBRANCH   8   9
ENDBRANCH   6   8
ENDBRANCH   3   6
ENDBRANCH   1   4
BRANCH   1  12
ATOM     11  O   UNL     1      33.991 -23.909 -17.029  0.00  0.00    -0.226 OA
ATOM     12  N   UNL     1      31.840 -23.092 -16.733  0.00  0.00    -0.263 N 
ATOM     13  C   ACE A   0      33.040 -23.229 -17.402  0.00  0.00    +0.402 C 
ATOM     14  H   UNL     1      31.149 -22.515 -17.135  0.00  0.00    +0.153 HD
BRANCH  13  15
ATOM     15  O   UNL     1      33.018 -22.491 -18.551  0.00  0.00    -0.430 OA
BRANCH  15  16
ATOM     16  C   UNL     1      34.259 -22.401 -19.260  0.00  0.00    +0.237 C 
BRANCH  16  17
ATOM     17  C   UNL     1      34.317 -21.086 -19.982  0.00  0.00    +0.021 C 
ATOM     18  C   UNL     1      35.547 -20.558 -20.370  0.00  0.00    -0.001 C 
ATOM     19  C   UNL     1      33.139 -20.394 -20.263  0.00  0.00    -0.001 C 
ATOM     20  C   UNL     1      35.601 -19.337 -21.041  0.00  0.00    -0.000 C 
ATOM     21  C   UNL     1      33.193 -19.172 -20.933  0.00  0.00    -0.000 C 
ATOM     22  C   UNL     1      34.424 -18.643 -21.323  0.00  0.00    -0.000 C 
ENDBRANCH  16  17
ENDBRANCH  15  16
ENDBRANCH  13  15
ENDBRANCH   1  12
BRANCH   1  23
ATOM     23  CB  UNL     1      32.268 -23.101 -14.301  0.00  0.00    +0.082 C 
BRANCH  23  24
ATOM     24  SG  UNL     1      33.584 -24.148 -13.597  0.00  0.00    -0.166 S 
ATOM     25  HG  UNL     1      33.202 -24.590 -12.368  0.00  0.00    +0.102 HD
ENDBRANCH  23  24
ENDBRANCH   1  23
TORSDOF 10
ENDMDL
MODEL 3
REMARK VINA RESULT:      -8.1      2.923      3.742
REMARK  Name = 15942661
REMARK  10 active torsions:
REMARK  status: ('A' for Active; 'I' for Inactive)
REMARK    1  A    between atoms: CA_1  and  C_4
REMARK    2  A    between atoms: CA_1  and  N_12
REMARK    3  A    between atoms: CA_1  and  CB_23
REMARK    4  A    between atoms: N_3  and  CA_6
REMARK    5  A    between atoms: CA_6  and  C_8
REMARK    6  A    between atoms: C_8  and  O_9
REMARK    7  A    between atoms: C_13  and  O_15
REMARK    8  A    between atoms: O_15  and  C_16
REMARK    9  A    between atoms: C_16  and  C_17
REMARK   10  A    between atoms: CB_23  and  SG_24
REMARK                            x       y       z     vdW  Elec       q    Type
REMARK                         _______ _______ _______ _____ _____    ______ ____
ROOT
ATOM      1  CA  UNL     1      33.132 -23.643 -14.781  0.00  0.00    +0.162 C 
ENDROOT
BRANCH   1   4
ATOM      2  O   UNL     1      35.419 -22.846 -14.624  0.00  0.00    -0.273 OA
ATOM      3  N   UNL     1      34.836 -24.791 -13.501  0.00  0.00    -0.294 N 
ATOM      4  C   UNL     1      34.582 -23.688 -14.304  0.00  0.00    +0.242 C 
ATOM      5  H   UNL     1      34.097 -25.410 -13.300  0.00  0.00    +0.150 HD
BRANCH   3   6
ATOM      6  CA  UNL     1      36.140 -25.067 -12.946  0.00  0.00    +0.200 C 
BRANCH   6   8
ATOM      7  OXT UNL     1      37.274 -24.325 -10.956  0.00  0.00    -0.248 OA
ATOM      8  C   UNL     1      36.241 -24.721 -11.483  0.00  0.00    +0.334 C 
BRANCH   8   9
ATOM      9  O   UNL     1      35.082 -24.890 -10.806  0.00  0.00    -0.479 OA
ATOM     10  H   UNL     1      34.347 -25.288 -11.228  0.00  0.00    +0.295 HD
ENDBRANCH   8   9
ENDBRANCH   6   8
ENDBRANCH   3   6
ENDBRANCH   1   4
BRANCH   1  12
ATOM     11  O   UNL     1      30.876 -22.716 -16.359  0.00  0.00    -0.226 OA
ATOM     12  N   UNL     1      33.112 -23.306 -16.182  0.00  0.00    -0.263 N 
ATOM     13  C   ACE A   0      31.987 -22.871 -16.854  0.00  0.00    +0.402 C 
ATOM     14  H   UNL     1      33.952 -23.392 -16.691  0.00  0.00    +0.153 HD
BRANCH  13  15
ATOM     15  O   UNL     1      32.291 -22.635 -18.165  0.00  0.00    -0.430 OA
BRANCH  15  16
ATOM     16  C   UNL     1      33.666 -22.803 -18.528  0.00  0.00    +0.237 C 
BRANCH  16  17
ATOM     17  C   UNL     1      34.081 -21.664 -19.413  0.00  0.00    +0.021 C 
ATOM     18  C   UNL     1      35.432 -21.441 -19.674  0.00  0.00    -0.001 C 
ATOM     19  C   UNL     1      33.114 -20.830 -19.974  0.00  0.00    -0.001 C 
ATOM     20  C   UNL     1      35.818 -20.383 -20.497  0.00  0.00    -0.000 C 
ATOM     21  C   UNL     1      33.500 -19.771 -20.797  0.00  0.00    -0.000 C 
ATOM     22  C   UNL     1      34.851 -19.548 -21.058  0.00  0.00    -0.000 C 
ENDBRANCH  16  17
ENDBRANCH  15  16
ENDBRANCH  13  15
ENDBRANCH   1  12
BRANCH   1  23
ATOM     23  CB  UNL     1      32.352 -24.925 -14.479  0.00  0.00    +0.082 C 
BRANCH  23  24
ATOM     24  SG  UNL     1      30.851 -24.653 -13.482  0.00  0.00    -0.166 S 
ATOM     25  HG  UNL     1      30.062 -23.728 -14.093  0.00  0.00    +0.102 HD
ENDBRANCH  23  24
ENDBRANCH   1  23
TORSDOF 10
ENDMDL
MODEL 4
REMARK VINA RESULT:      -8.1      1.796      2.391
REMARK  Name = 15942661
REMARK  10 active torsions:
REMARK  status: ('A' for Active; 'I' for Inactive)
REMARK    1  A    between atoms: CA_1  and  C_4
REMARK    2  A    between atoms: CA_1  and  N_12
REMARK    3  A    between atoms: CA_1  and  CB_23
REMARK    4  A    between atoms: N_3  and  CA_6
REMARK    5  A    between atoms: CA_6  and  C_8
REMARK    6  A    between atoms: C_8  and  O_9
REMARK    7  A    between atoms: C_13  and  O_15
REMARK    8  A    between atoms: O_15  and  C_16
REMARK    9  A    between atoms: C_16  and  C_17
REMARK   10  A    between atoms: CB_23  and  SG_24
REMARK                            x       y       z     vdW  Elec       q    Type
REMARK                         _______ _______ _______ _____ _____    ______ ____
ROOT
ATOM      1  CA  UNL     1      36.299 -23.363 -13.847  0.00  0.00    +0.162 C 
ENDROOT
BRANCH   1   4
ATOM      2  O   UNL     1      38.112 -23.137 -15.443  0.00  0.00    -0.273 OA
ATOM      3  N   UNL     1      37.862 -25.151 -14.317  0.00  0.00    -0.294 N 
ATOM      4  C   UNL     1      37.523 -23.841 -14.625  0.00  0.00    +0.242 C 
ATOM      5  H   UNL     1      37.327 -25.632 -13.646  0.00  0.00    +0.150 HD
BRANCH   3   6
ATOM      6  CA  UNL     1      38.969 -25.835 -14.942  0.00  0.00    +0.200 C 
BRANCH   6   8
ATOM      7  OXT UNL     1      40.553 -24.615 -13.600  0.00  0.00    -0.248 OA
ATOM      8  C   UNL     1      40.269 -25.642 -14.204  0.00  0.00    +0.334 C 
BRANCH   8   9
ATOM      9  O   UNL     1      41.095 -26.712 -14.275  0.00  0.00    -0.479 OA
ATOM     10  H   UNL     1      41.794 -26.724 -14.897  0.00  0.00    +0.295 HD
ENDBRANCH   8   9
ENDBRANCH   6   8
ENDBRANCH   3   6
ENDBRANCH   1   4
BRANCH   1  12
ATOM     11  O   UNL     1      35.083 -24.750 -16.091  0.00  0.00    -0.226 OA
ATOM     12  N   UNL     1      35.323 -22.854 -14.777  0.00  0.00    -0.263 N 
ATOM     13  C   ACE A   0      34.796 -23.588 -15.821  0.00  0.00    +0.402 C 
ATOM     14  H   UNL     1      35.013 -21.925 -14.661  0.00  0.00    +0.153 HD
BRANCH  13  15
ATOM     15  O   UNL     1      33.901 -22.829 -16.518  0.00  0.00    -0.430 OA
BRANCH  15  16
ATOM     16  C   UNL     1      33.630 -23.254 -17.858  0.00  0.00    +0.237 C 
BRANCH  16  17
ATOM     17  C   UNL     1      34.048 -22.170 -18.809  0.00  0.00    +0.021 C 
ATOM     18  C   UNL     1      35.402 -21.941 -19.053  0.00  0.00    -0.001 C 
ATOM     19  C   UNL     1      33.082 -21.393 -19.448  0.00  0.00    -0.001 C 
ATOM     20  C   UNL     1      35.790 -20.935 -19.937  0.00  0.00    -0.000 C 
ATOM     21  C   UNL     1      33.471 -20.386 -20.331  0.00  0.00    -0.000 C 
ATOM     22  C   UNL     1      34.825 -20.157 -20.576  0.00  0.00    -0.000 C 
ENDBRANCH  16  17
ENDBRANCH  15  16
ENDBRANCH  13  15
ENDBRANCH   1  12
BRANCH   1  23
ATOM     23  CB  UNL     1      35.715 -24.431 -12.917  0.00  0.00    +0.082 C 
BRANCH  23  24
ATOM     24  SG  UNL     1      36.020 -24.110 -11.149  0.00  0.00    -0.166 S 
ATOM     25  HG  UNL     1      36.746 -22.967 -11.014  0.00  0.00    +0.102 HD
ENDBRANCH  23  24
ENDBRANCH   1  23
TORSDOF 10
ENDMDL
MODEL 5
REMARK VINA RESULT:      -8.0      7.280     11.351
REMARK  Name = 15942661
REMARK  10 active torsions:
REMARK  status: ('A' for Active; 'I' for Inactive)
REMARK    1  A    between atoms: CA_1  and  C_4
REMARK    2  A    between atoms: CA_1  and  N_12
REMARK    3  A    between atoms: CA_1  and  CB_23
REMARK    4  A    between atoms: N_3  and  CA_6
REMARK    5  A    between atoms: CA_6  and  C_8
REMARK    6  A    between atoms: C_8  and  O_9
REMARK    7  A    between atoms: C_13  and  O_15
REMARK    8  A    between atoms: O_15  and  C_16
REMARK    9  A    between atoms: C_16  and  C_17
REMARK   10  A    between atoms: CB_23  and  SG_24
REMARK                            x       y       z     vdW  Elec       q    Type
REMARK                         _______ _______ _______ _____ _____    ______ ____
ROOT
ATOM      1  CA  UNL     1      34.029 -15.014 -23.021  0.00  0.00    +0.162 C 
ENDROOT
BRANCH   1   4
ATOM      2  O   UNL     1      32.027 -15.053 -21.650  0.00  0.00    -0.273 OA
ATOM      3  N   UNL     1      32.749 -13.023 -22.512  0.00  0.00    -0.294 N 
ATOM      4  C   UNL     1      32.830 -14.393 -22.307  0.00  0.00    +0.242 C 
ATOM      5  H   UNL     1      33.443 -12.585 -23.055  0.00  0.00    +0.150 HD
BRANCH   3   6
ATOM      6  CA  UNL     1      31.688 -12.215 -21.959  0.00  0.00    +0.200 C 
BRANCH   6   8
ATOM      7  OXT UNL     1      31.582  -9.912 -21.262  0.00  0.00    -0.248 OA
ATOM      8  C   UNL     1      31.946 -10.736 -22.093  0.00  0.00    +0.334 C 
BRANCH   8   9
ATOM      9  O   UNL     1      32.617 -10.404 -23.220  0.00  0.00    -0.479 OA
ATOM     10  H   UNL     1      33.292 -10.966 -23.546  0.00  0.00    +0.295 HD
ENDBRANCH   8   9
ENDBRANCH   6   8
ENDBRANCH   3   6
ENDBRANCH   1   4
BRANCH   1  12
ATOM     11  O   UNL     1      35.010 -15.275 -20.299  0.00  0.00    -0.226 OA
ATOM     12  N   UNL     1      34.410 -16.221 -22.331  0.00  0.00    -0.263 N 
ATOM     13  C   ACE A   0      34.869 -16.251 -21.029  0.00  0.00    +0.402 C 
ATOM     14  H   UNL     1      34.339 -17.075 -22.817  0.00  0.00    +0.153 HD
BRANCH  13  15
ATOM     15  O   UNL     1      35.145 -17.538 -20.664  0.00  0.00    -0.430 OA
BRANCH  15  16
ATOM     16  C   UNL     1      34.487 -18.558 -21.423  0.00  0.00    +0.237 C 
BRANCH  16  17
ATOM     17  C   UNL     1      34.498 -19.837 -20.637  0.00  0.00    +0.021 C 
ATOM     18  C   UNL     1      35.710 -20.452 -20.324  0.00  0.00    -0.001 C 
ATOM     19  C   UNL     1      33.296 -20.410 -20.222  0.00  0.00    -0.001 C 
ATOM     20  C   UNL     1      35.720 -21.640 -19.594  0.00  0.00    -0.000 C 
ATOM     21  C   UNL     1      33.307 -21.599 -19.492  0.00  0.00    -0.000 C 
ATOM     22  C   UNL     1      34.519 -22.214 -19.177  0.00  0.00    -0.000 C 
ENDBRANCH  16  17
ENDBRANCH  15  16
ENDBRANCH  13  15
ENDBRANCH   1  12
BRANCH   1  23
ATOM     23  CB  UNL     1      33.792 -15.248 -24.515  0.00  0.00    +0.082 C 
BRANCH  23  24
ATOM     24  SG  UNL     1      34.487 -16.817 -25.131  0.00  0.00    -0.166 S 
ATOM     25  HG  UNL     1      33.715 -17.285 -26.149  0.00  0.00    +0.102 HD
ENDBRANCH  23  24
ENDBRANCH   1  23
TORSDOF 10
ENDMDL
MODEL 6
REMARK VINA RESULT:      -7.9      3.672      5.834
REMARK  Name = 15942661
REMARK  10 active torsions:
REMARK  status: ('A' for Active; 'I' for Inactive)
REMARK    1  A    between atoms: CA_1  and  C_4
REMARK    2  A    between atoms: CA_1  and  N_12
REMARK    3  A    between atoms: CA_1  and  CB_23
REMARK    4  A    between atoms: N_3  and  CA_6
REMARK    5  A    between atoms: CA_6  and  C_8
REMARK    6  A    between atoms: C_8  and  O_9
REMARK    7  A    between atoms: C_13  and  O_15
REMARK    8  A    between atoms: O_15  and  C_16
REMARK    9  A    between atoms: C_16  and  C_17
REMARK   10  A    between atoms: CB_23  and  SG_24
REMARK                            x       y       z     vdW  Elec       q    Type
REMARK                         _______ _______ _______ _____ _____    ______ ____
ROOT
ATOM      1  CA  UNL     1      33.170 -24.363 -14.089  0.00  0.00    +0.162 C 
ENDROOT
BRANCH   1   4
ATOM      2  O   UNL     1      31.031 -24.720 -13.001  0.00  0.00    -0.273 OA
ATOM      3  N   UNL     1      31.054 -24.065 -15.227  0.00  0.00    -0.294 N 
ATOM      4  C   UNL     1      31.645 -24.402 -14.017  0.00  0.00    +0.242 C 
ATOM      5  H   UNL     1      31.634 -23.824 -15.985  0.00  0.00    +0.150 HD
BRANCH   3   6
ATOM      6  CA  UNL     1      29.623 -24.053 -15.417  0.00  0.00    +0.200 C 
BRANCH   6   8
ATOM      7  OXT UNL     1      28.347 -22.014 -15.304  0.00  0.00    -0.248 OA
ATOM      8  C   UNL     1      29.111 -22.735 -15.936  0.00  0.00    +0.334 C 
BRANCH   8   9
ATOM      9  O   UNL     1      29.574 -22.422 -17.168  0.00  0.00    -0.479 OA
ATOM     10  H   UNL     1      28.978 -22.346 -17.887  0.00  0.00    +0.295 HD
ENDBRANCH   8   9
ENDBRANCH   6   8
ENDBRANCH   3   6
ENDBRANCH   1   4
BRANCH   1  12
ATOM     11  O   UNL     1      35.336 -24.837 -15.965  0.00  0.00    -0.226 OA
ATOM     12  N   UNL     1      33.564 -23.546 -15.208  0.00  0.00    -0.263 N 
ATOM     13  C   ACE A   0      34.613 -23.850 -16.053  0.00  0.00    +0.402 C 
ATOM     14  H   UNL     1      33.054 -22.721 -15.382  0.00  0.00    +0.153 HD
BRANCH  13  15
ATOM     15  O   UNL     1      34.733 -22.884 -17.011  0.00  0.00    -0.430 OA
BRANCH  15  16
ATOM     16  C   UNL     1      33.754 -22.915 -18.056  0.00  0.00    +0.237 C 
BRANCH  16  17
ATOM     17  C   UNL     1      34.077 -21.849 -19.061  0.00  0.00    +0.021 C 
ATOM     18  C   UNL     1      35.402 -21.609 -19.423  0.00  0.00    -0.001 C 
ATOM     19  C   UNL     1      33.050 -21.098 -19.634  0.00  0.00    -0.001 C 
ATOM     20  C   UNL     1      35.701 -20.619 -20.357  0.00  0.00    -0.000 C 
ATOM     21  C   UNL     1      33.350 -20.107 -20.569  0.00  0.00    -0.000 C 
ATOM     22  C   UNL     1      34.676 -19.867 -20.931  0.00  0.00    -0.000 C 
ENDBRANCH  16  17
ENDBRANCH  15  16
ENDBRANCH  13  15
ENDBRANCH   1  12
BRANCH   1  23
ATOM     23  CB  UNL     1      33.829 -23.917 -12.782  0.00  0.00    +0.082 C 
BRANCH  23  24
ATOM     24  SG  UNL     1      35.536 -24.522 -12.577  0.00  0.00    -0.166 S 
ATOM     25  HG  UNL     1      35.536 -25.613 -11.764  0.00  0.00    +0.102 HD
ENDBRANCH  23  24
ENDBRANCH   1  23
TORSDOF 10
ENDMDL
MODEL 7
REMARK VINA RESULT:      -7.9      2.131      2.670
REMARK  Name = 15942661
REMARK  10 active torsions:
REMARK  status: ('A' for Active; 'I' for Inactive)
REMARK    1  A    between atoms: CA_1  and  C_4
REMARK    2  A    between atoms: CA_1  and  N_12
REMARK    3  A    between atoms: CA_1  and  CB_23
REMARK    4  A    between atoms: N_3  and  CA_6
REMARK    5  A    between atoms: CA_6  and  C_8
REMARK    6  A    between atoms: C_8  and  O_9
REMARK    7  A    between atoms: C_13  and  O_15
REMARK    8  A    between atoms: O_15  and  C_16
REMARK    9  A    between atoms: C_16  and  C_17
REMARK   10  A    between atoms: CB_23  and  SG_24
REMARK                            x       y       z     vdW  Elec       q    Type
REMARK                         _______ _______ _______ _____ _____    ______ ____
ROOT
ATOM      1  CA  UNL     1      33.739 -23.391 -15.284  0.00  0.00    +0.162 C 
ENDROOT
BRANCH   1   4
ATOM      2  O   UNL     1      34.682 -24.442 -13.310  0.00  0.00    -0.273 OA
ATOM      3  N   UNL     1      35.931 -24.418 -15.266  0.00  0.00    -0.294 N 
ATOM      4  C   UNL     1      34.810 -24.143 -14.496  0.00  0.00    +0.242 C 
ATOM      5  H   UNL     1      35.937 -24.137 -16.209  0.00  0.00    +0.150 HD
BRANCH   3   6
ATOM      6  CA  UNL     1      37.090 -25.099 -14.738  0.00  0.00    +0.200 C 
BRANCH   6   8
ATOM      7  OXT UNL     1      36.411 -27.035 -15.999  0.00  0.00    -0.248 OA
ATOM      8  C   UNL     1      37.185 -26.533 -15.192  0.00  0.00    +0.334 C 
BRANCH   8   9
ATOM      9  O   UNL     1      38.206 -27.214 -14.623  0.00  0.00    -0.479 OA
ATOM     10  H   UNL     1      38.349 -27.159 -13.699  0.00  0.00    +0.295 HD
ENDBRANCH   8   9
ENDBRANCH   6   8
ENDBRANCH   3   6
ENDBRANCH   1   4
BRANCH   1  12
ATOM     11  O   UNL     1      32.106 -22.661 -17.572  0.00  0.00    -0.226 OA
ATOM     12  N   UNL     1      34.134 -23.330 -16.668  0.00  0.00    -0.263 N 
ATOM     13  C   ACE A   0      33.286 -22.970 -17.696  0.00  0.00    +0.402 C 
ATOM     14  H   UNL     1      35.066 -23.559 -16.894  0.00  0.00    +0.153 HD
BRANCH  13  15
ATOM     15  O   UNL     1      33.956 -23.008 -18.886  0.00  0.00    -0.430 OA
BRANCH  15  16
ATOM     16  C   UNL     1      35.148 -22.217 -18.958  0.00  0.00    +0.237 C 
BRANCH  16  17
ATOM     17  C   UNL     1      34.894 -21.028 -19.838  0.00  0.00    +0.021 C 
ATOM     18  C   UNL     1      33.586 -20.648 -20.136  0.00  0.00    -0.001 C 
ATOM     19  C   UNL     1      35.967 -20.304 -20.358  0.00  0.00    -0.001 C 
ATOM     20  C   UNL     1      33.350 -19.543 -20.954  0.00  0.00    -0.000 C 
ATOM     21  C   UNL     1      35.731 -19.200 -21.177  0.00  0.00    -0.000 C 
ATOM     22  C   UNL     1      34.423 -18.819 -21.475  0.00  0.00    -0.000 C 
ENDBRANCH  16  17
ENDBRANCH  15  16
ENDBRANCH  13  15
ENDBRANCH   1  12
BRANCH   1  23
ATOM     23  CB  UNL     1      32.333 -23.971 -15.105  0.00  0.00    +0.082 C 
BRANCH  23  24
ATOM     24  SG  UNL     1      31.302 -23.042 -13.923  0.00  0.00    -0.166 S 
ATOM     25  HG  UNL     1      31.931 -22.987 -12.718  0.00  0.00    +0.102 HD
ENDBRANCH  23  24
ENDBRANCH   1  23
TORSDOF 10
ENDMDL
MODEL 8
REMARK VINA RESULT:      -7.8      7.181     11.294
REMARK  Name = 15942661
REMARK  10 active torsions:
REMARK  status: ('A' for Active; 'I' for Inactive)
REMARK    1  A    between atoms: CA_1  and  C_4
REMARK    2  A    between atoms: CA_1  and  N_12
REMARK    3  A    between atoms: CA_1  and  CB_23
REMARK    4  A    between atoms: N_3  and  CA_6
REMARK    5  A    between atoms: CA_6  and  C_8
REMARK    6  A    between atoms: C_8  and  O_9
REMARK    7  A    between atoms: C_13  and  O_15
REMARK    8  A    between atoms: O_15  and  C_16
REMARK    9  A    between atoms: C_16  and  C_17
REMARK   10  A    between atoms: CB_23  and  SG_24
REMARK                            x       y       z     vdW  Elec       q    Type
REMARK                         _______ _______ _______ _____ _____    ______ ____
ROOT
ATOM      1  CA  UNL     1      33.701 -15.566 -22.888  0.00  0.00    +0.162 C 
ENDROOT
BRANCH   1   4
ATOM      2  O   UNL     1      34.523 -16.469 -24.985  0.00  0.00    -0.273 OA
ATOM      3  N   UNL     1      32.961 -14.754 -25.045  0.00  0.00    -0.294 N 
ATOM      4  C   UNL     1      33.785 -15.671 -24.409  0.00  0.00    +0.242 C 
ATOM      5  H   UNL     1      32.406 -14.156 -24.495  0.00  0.00    +0.150 HD
BRANCH   3   6
ATOM      6  CA  UNL     1      32.884 -14.642 -26.483  0.00  0.00    +0.200 C 
BRANCH   6   8
ATOM      7  OXT UNL     1      34.237 -13.418 -28.054  0.00  0.00    -0.248 OA
ATOM      8  C   UNL     1      33.587 -13.420 -27.015  0.00  0.00    +0.334 C 
BRANCH   8   9
ATOM      9  O   UNL     1      33.433 -12.325 -26.236  0.00  0.00    -0.479 OA
ATOM     10  H   UNL     1      32.636 -12.195 -25.763  0.00  0.00    +0.295 HD
ENDBRANCH   8   9
ENDBRANCH   6   8
ENDBRANCH   3   6
ENDBRANCH   1   4
BRANCH   1  12
ATOM     11  O   UNL     1      34.653 -15.720 -20.148  0.00  0.00    -0.226 OA
ATOM     12  N   UNL     1      34.547 -16.574 -22.302  0.00  0.00    -0.263 N 
ATOM     13  C   ACE A   0      34.953 -16.568 -20.982  0.00  0.00    +0.402 C 
ATOM     14  H   UNL     1      34.854 -17.313 -22.878  0.00  0.00    +0.153 HD
BRANCH  13  15
ATOM     15  O   UNL     1      35.744 -17.654 -20.734  0.00  0.00    -0.430 OA
BRANCH  15  16
ATOM     16  C   UNL     1      35.522 -18.793 -21.573  0.00  0.00    +0.237 C 
BRANCH  16  17
ATOM     17  C   UNL     1      34.947 -19.905 -20.745  0.00  0.00    +0.021 C 
ATOM     18  C   UNL     1      35.792 -20.842 -20.151  0.00  0.00    -0.001 C 
ATOM     19  C   UNL     1      33.566 -20.002 -20.572  0.00  0.00    -0.001 C 
ATOM     20  C   UNL     1      35.257 -21.875 -19.382  0.00  0.00    -0.000 C 
ATOM     21  C   UNL     1      33.031 -21.036 -19.803  0.00  0.00    -0.000 C 
ATOM     22  C   UNL     1      33.876 -21.972 -19.208  0.00  0.00    -0.000 C 
ENDBRANCH  16  17
ENDBRANCH  15  16
ENDBRANCH  13  15
ENDBRANCH   1  12
BRANCH   1  23
ATOM     23  CB  UNL     1      34.013 -14.164 -22.358  0.00  0.00    +0.082 C 
BRANCH  23  24
ATOM     24  SG  UNL     1      32.549 -13.268 -21.746  0.00  0.00    -0.166 S 
ATOM     25  HG  UNL     1      32.569 -11.991 -22.217  0.00  0.00    +0.102 HD
ENDBRANCH  23  24
ENDBRANCH   1  23
TORSDOF 10
ENDMDL
MODEL 9
REMARK VINA RESULT:      -7.8      7.678     11.626
REMARK  Name = 15942661
REMARK  10 active torsions:
REMARK  status: ('A' for Active; 'I' for Inactive)
REMARK    1  A    between atoms: CA_1  and  C_4
REMARK    2  A    between atoms: CA_1  and  N_12
REMARK    3  A    between atoms: CA_1  and  CB_23
REMARK    4  A    between atoms: N_3  and  CA_6
REMARK    5  A    between atoms: CA_6  and  C_8
REMARK    6  A    between atoms: C_8  and  O_9
REMARK    7  A    between atoms: C_13  and  O_15
REMARK    8  A    between atoms: O_15  and  C_16
REMARK    9  A    between atoms: C_16  and  C_17
REMARK   10  A    between atoms: CB_23  and  SG_24
REMARK                            x       y       z     vdW  Elec       q    Type
REMARK                         _______ _______ _______ _____ _____    ______ ____
ROOT
ATOM      1  CA  UNL     1      33.267 -13.996 -22.386  0.00  0.00    +0.162 C 
ENDROOT
BRANCH   1   4
ATOM      2  O   UNL     1      32.321 -13.448 -20.219  0.00  0.00    -0.273 OA
ATOM      3  N   UNL     1      31.679 -12.197 -22.065  0.00  0.00    -0.294 N 
ATOM      4  C   UNL     1      32.391 -13.199 -21.421  0.00  0.00    +0.242 C 
ATOM      5  H   UNL     1      31.804 -12.076 -23.034  0.00  0.00    +0.150 HD
BRANCH   3   6
ATOM      6  CA  UNL     1      30.763 -11.323 -21.370  0.00  0.00    +0.200 C 
BRANCH   6   8
ATOM      7  OXT UNL     1      31.978  -9.295 -20.914  0.00  0.00    -0.248 OA
ATOM      8  C   UNL     1      31.463 -10.322 -20.488  0.00  0.00    +0.334 C 
BRANCH   8   9
ATOM      9  O   UNL     1      31.469 -10.666 -19.179  0.00  0.00    -0.479 OA
ATOM     10  H   UNL     1      32.153 -11.207 -18.840  0.00  0.00    +0.295 HD
ENDBRANCH   8   9
ENDBRANCH   6   8
ENDBRANCH   3   6
ENDBRANCH   1   4
BRANCH   1  12
ATOM     11  O   UNL     1      34.931 -15.590 -20.617  0.00  0.00    -0.226 OA
ATOM     12  N   UNL     1      33.141 -15.399 -22.081  0.00  0.00    -0.263 N 
ATOM     13  C   ACE A   0      33.983 -16.079 -21.223  0.00  0.00    +0.402 C 
ATOM     14  H   UNL     1      32.411 -15.903 -22.510  0.00  0.00    +0.153 HD
BRANCH  13  15
ATOM     15  O   UNL     1      33.604 -17.389 -21.143  0.00  0.00    -0.430 OA
BRANCH  15  16
ATOM     16  C   UNL     1      34.496 -18.335 -21.744  0.00  0.00    +0.237 C 
BRANCH  16  17
ATOM     17  C   UNL     1      34.524 -19.581 -20.908  0.00  0.00    +0.021 C 
ATOM     18  C   UNL     1      33.331 -20.143 -20.455  0.00  0.00    -0.001 C 
ATOM     19  C   UNL     1      35.743 -20.176 -20.586  0.00  0.00    -0.001 C 
ATOM     20  C   UNL     1      33.357 -21.301 -19.678  0.00  0.00    -0.000 C 
ATOM     21  C   UNL     1      35.769 -21.334 -19.808  0.00  0.00    -0.000 C 
ATOM     22  C   UNL     1      34.576 -21.897 -19.355  0.00  0.00    -0.000 C 
ENDBRANCH  16  17
ENDBRANCH  15  16
ENDBRANCH  13  15
ENDBRANCH   1  12
BRANCH   1  23
ATOM     23  CB  UNL     1      32.981 -13.692 -23.859  0.00  0.00    +0.082 C 
BRANCH  23  24
ATOM     24  SG  UNL     1      33.436 -15.048 -24.989  0.00  0.00    -0.166 S 
ATOM     25  HG  UNL     1      32.536 -15.111 -26.008  0.00  0.00    +0.102 HD
ENDBRANCH  23  24
ENDBRANCH   1  23
TORSDOF 10
ENDMDL
