MODEL 1
REMARK VINA RESULT:      -8.0      0.000      0.000
REMARK  Name = 6473881
REMARK  0 active torsions:
REMARK  status: ('A' for Active; 'I' for Inactive)
REMARK                            x       y       z     vdW  Elec       q    Type
REMARK                         _______ _______ _______ _____ _____    ______ ____
ROOT
ATOM      1  O   UNL     1      37.945 -25.609 -15.212  0.00  0.00    -0.352 OA
ATOM      2  O   UNL     1      37.738 -21.946 -15.649  0.00  0.00    -0.446 OA
ATOM      3  O   UNL     1      37.061 -20.734 -17.481  0.00  0.00    -0.245 OA
ATOM      4  C   UNL     1      39.073 -25.182 -14.447  0.00  0.00    +0.122 C 
ATOM      5  C   UNL     1      38.357 -24.256 -15.437  0.00  0.00    +0.180 C 
ATOM      6  C   UNL     1      37.367 -23.196 -15.021  0.00  0.00    +0.202 C 
ATOM      7  C   UNL     1      35.913 -23.466 -15.437  0.00  0.00    +0.072 C 
ATOM      8  C   UNL     1      38.895 -25.123 -12.952  0.00  0.00    +0.034 C 
ATOM      9  C   UNL     1      40.340 -25.816 -14.915  0.00  0.00    +0.032 C 
ATOM     10  C   UNL     1      34.877 -22.970 -14.395  0.00  0.00    +0.013 C 
ATOM     11  C   UNL     1      37.760 -25.975 -12.357  0.00  0.00    +0.028 C 
ATOM     12  C   UNL     1      35.843 -22.658 -16.689  0.00  0.00    +0.057 C 
ATOM     13  C   UNL     1      34.544 -23.992 -13.286  0.00  0.00    +0.022 C 
ATOM     14  C   UNL     1      36.921 -21.657 -16.699  0.00  0.00    +0.337 C 
ATOM     15  C   UNL     1      36.396 -25.546 -12.812  0.00  0.00    -0.035 C 
ATOM     16  C   UNL     1      35.745 -24.416 -12.474  0.00  0.00    -0.048 C 
ATOM     17  C   UNL     1      34.996 -22.798 -17.711  0.00  0.00    +0.002 C 
ATOM     18  C   UNL     1      36.176 -23.468 -11.392  0.00  0.00    +0.026 C 
ENDROOT
TORSDOF 0
ENDMDL
MODEL 2
REMARK VINA RESULT:      -6.8     15.588     18.920
REMARK  Name = 6473881
REMARK  0 active torsions:
REMARK  status: ('A' for Active; 'I' for Inactive)
REMARK                            x       y       z     vdW  Elec       q    Type
REMARK                         _______ _______ _______ _____ _____    ______ ____
ROOT
ATOM      1  O   UNL     1      30.507  -6.810 -22.630  0.00  0.00    -0.352 OA
ATOM      2  O   UNL     1      32.533  -8.331 -19.940  0.00  0.00    -0.446 OA
ATOM      3  O   UNL     1      32.021 -10.085 -18.546  0.00  0.00    -0.245 OA
ATOM      4  C   UNL     1      31.182  -5.660 -22.117  0.00  0.00    +0.122 C 
ATOM      5  C   UNL     1      31.131  -6.988 -21.353  0.00  0.00    +0.180 C 
ATOM      6  C   UNL     1      32.273  -7.974 -21.319  0.00  0.00    +0.202 C 
ATOM      7  C   UNL     1      32.013  -9.295 -22.058  0.00  0.00    +0.072 C 
ATOM      8  C   UNL     1      32.378  -5.174 -22.893  0.00  0.00    +0.034 C 
ATOM      9  C   UNL     1      30.228  -4.598 -21.683  0.00  0.00    +0.032 C 
ATOM     10  C   UNL     1      33.278  -9.868 -22.749  0.00  0.00    +0.013 C 
ATOM     11  C   UNL     1      32.465  -5.601 -24.369  0.00  0.00    +0.028 C 
ATOM     12  C   UNL     1      31.588 -10.157 -20.917  0.00  0.00    +0.057 C 
ATOM     13  C   UNL     1      33.521  -9.341 -24.180  0.00  0.00    +0.022 C 
ATOM     14  C   UNL     1      32.048  -9.569 -19.648  0.00  0.00    +0.337 C 
ATOM     15  C   UNL     1      32.606  -7.084 -24.550  0.00  0.00    -0.035 C 
ATOM     16  C   UNL     1      33.680  -7.840 -24.253  0.00  0.00    -0.048 C 
ATOM     17  C   UNL     1      30.858 -11.273 -20.957  0.00  0.00    +0.002 C 
ATOM     18  C   UNL     1      35.033  -7.303 -23.885  0.00  0.00    +0.026 C 
ENDROOT
TORSDOF 0
ENDMDL
MODEL 3
REMARK VINA RESULT:      -6.6     10.344     13.728
REMARK  Name = 6473881
REMARK  0 active torsions:
REMARK  status: ('A' for Active; 'I' for Inactive)
REMARK                            x       y       z     vdW  Elec       q    Type
REMARK                         _______ _______ _______ _____ _____    ______ ____
ROOT
ATOM      1  O   UNL     1      35.357 -15.485 -22.868  0.00  0.00    -0.352 OA
ATOM      2  O   UNL     1      32.017 -13.962 -22.442  0.00  0.00    -0.446 OA
ATOM      3  O   UNL     1      31.462 -11.823 -21.813  0.00  0.00    -0.245 OA
ATOM      4  C   UNL     1      34.617 -16.596 -22.361  0.00  0.00    +0.122 C 
ATOM      5  C   UNL     1      34.093 -15.158 -22.279  0.00  0.00    +0.180 C 
ATOM      6  C   UNL     1      33.063 -14.590 -23.223  0.00  0.00    +0.202 C 
ATOM      7  C   UNL     1      33.585 -13.508 -24.181  0.00  0.00    +0.072 C 
ATOM      8  C   UNL     1      34.145 -17.612 -23.369  0.00  0.00    +0.034 C 
ATOM      9  C   UNL     1      35.229 -17.161 -21.123  0.00  0.00    +0.032 C 
ATOM     10  C   UNL     1      32.914 -13.555 -25.579  0.00  0.00    +0.013 C 
ATOM     11  C   UNL     1      34.896 -17.655 -24.711  0.00  0.00    +0.028 C 
ATOM     12  C   UNL     1      33.186 -12.280 -23.435  0.00  0.00    +0.057 C 
ATOM     13  C   UNL     1      33.598 -14.503 -26.588  0.00  0.00    +0.022 C 
ATOM     14  C   UNL     1      32.128 -12.605 -22.466  0.00  0.00    +0.337 C 
ATOM     15  C   UNL     1      34.755 -16.392 -25.510  0.00  0.00    -0.035 C 
ATOM     16  C   UNL     1      33.647 -15.942 -26.128  0.00  0.00    -0.048 C 
ATOM     17  C   UNL     1      33.700 -11.053 -23.539  0.00  0.00    +0.002 C 
ATOM     18  C   UNL     1      32.388 -16.737 -26.320  0.00  0.00    +0.026 C 
ENDROOT
TORSDOF 0
ENDMDL
MODEL 4
REMARK VINA RESULT:      -6.6      2.090      5.070
REMARK  Name = 6473881
REMARK  0 active torsions:
REMARK  status: ('A' for Active; 'I' for Inactive)
REMARK                            x       y       z     vdW  Elec       q    Type
REMARK                         _______ _______ _______ _____ _____    ______ ____
ROOT
ATOM      1  O   UNL     1      34.517 -22.434 -16.292  0.00  0.00    -0.352 OA
ATOM      2  O   UNL     1      35.911 -25.799 -15.674  0.00  0.00    -0.446 OA
ATOM      3  O   UNL     1      38.048 -26.404 -15.084  0.00  0.00    -0.245 OA
ATOM      4  C   UNL     1      33.792 -23.206 -17.250  0.00  0.00    +0.122 C 
ATOM      5  C   UNL     1      35.049 -23.737 -16.552  0.00  0.00    +0.180 C 
ATOM      6  C   UNL     1      35.014 -24.698 -15.390  0.00  0.00    +0.202 C 
ATOM      7  C   UNL     1      35.474 -24.111 -14.047  0.00  0.00    +0.072 C 
ATOM      8  C   UNL     1      32.386 -23.601 -16.878  0.00  0.00    +0.034 C 
ATOM      9  C   UNL     1      33.962 -22.683 -18.637  0.00  0.00    +0.032 C 
ATOM     10  C   UNL     1      34.695 -24.679 -12.832  0.00  0.00    +0.013 C 
ATOM     11  C   UNL     1      31.693 -22.754 -15.796  0.00  0.00    +0.028 C 
ATOM     12  C   UNL     1      36.895 -24.566 -14.033  0.00  0.00    +0.057 C 
ATOM     13  C   UNL     1      33.392 -23.922 -12.495  0.00  0.00    +0.022 C 
ATOM     14  C   UNL     1      37.069 -25.690 -14.966  0.00  0.00    +0.337 C 
ATOM     15  C   UNL     1      32.365 -22.841 -14.457  0.00  0.00    -0.035 C 
ATOM     16  C   UNL     1      32.393 -23.902 -13.629  0.00  0.00    -0.048 C 
ATOM     17  C   UNL     1      37.916 -24.050 -13.347  0.00  0.00    +0.002 C 
ATOM     18  C   UNL     1      31.562 -25.142 -13.794  0.00  0.00    +0.026 C 
ENDROOT
TORSDOF 0
ENDMDL
MODEL 5
REMARK VINA RESULT:      -6.4      7.711     11.526
REMARK  Name = 6473881
REMARK  0 active torsions:
REMARK  status: ('A' for Active; 'I' for Inactive)
REMARK                            x       y       z     vdW  Elec       q    Type
REMARK                         _______ _______ _______ _____ _____    ______ ____
ROOT
ATOM      1  O   UNL     1      33.208 -16.121 -21.566  0.00  0.00    -0.352 OA
ATOM      2  O   UNL     1      36.324 -18.054 -21.111  0.00  0.00    -0.446 OA
ATOM      3  O   UNL     1      36.704 -19.925 -19.832  0.00  0.00    -0.245 OA
ATOM      4  C   UNL     1      34.182 -15.078 -21.616  0.00  0.00    +0.122 C 
ATOM      5  C   UNL     1      34.511 -16.480 -21.092  0.00  0.00    +0.180 C 
ATOM      6  C   UNL     1      35.234 -17.525 -21.904  0.00  0.00    +0.202 C 
ATOM      7  C   UNL     1      34.381 -18.736 -22.312  0.00  0.00    +0.072 C 
ATOM      8  C   UNL     1      34.565 -14.574 -22.983  0.00  0.00    +0.034 C 
ATOM      9  C   UNL     1      33.924 -14.021 -20.595  0.00  0.00    +0.032 C 
ATOM     10  C   UNL     1      34.744 -19.296 -23.712  0.00  0.00    +0.013 C 
ATOM     11  C   UNL     1      33.563 -14.831 -24.122  0.00  0.00    +0.028 C 
ATOM     12  C   UNL     1      34.756 -19.699 -21.236  0.00  0.00    +0.057 C 
ATOM     13  C   UNL     1      33.999 -18.622 -24.885  0.00  0.00    +0.022 C 
ATOM     14  C   UNL     1      36.028 -19.288 -20.619  0.00  0.00    +0.337 C 
ATOM     15  C   UNL     1      33.361 -16.289 -24.415  0.00  0.00    -0.035 C 
ATOM     16  C   UNL     1      34.243 -17.134 -24.981  0.00  0.00    -0.048 C 
ATOM     17  C   UNL     1      34.071 -20.760 -20.807  0.00  0.00    +0.002 C 
ATOM     18  C   UNL     1      35.530 -16.720 -25.635  0.00  0.00    +0.026 C 
ENDROOT
TORSDOF 0
ENDMDL
MODEL 6
REMARK VINA RESULT:      -6.4      9.858     12.448
REMARK  Name = 6473881
REMARK  0 active torsions:
REMARK  status: ('A' for Active; 'I' for Inactive)
REMARK                            x       y       z     vdW  Elec       q    Type
REMARK                         _______ _______ _______ _____ _____    ______ ____
ROOT
ATOM      1  O   UNL     1      34.788 -14.733 -24.365  0.00  0.00    -0.352 OA
ATOM      2  O   UNL     1      33.856 -18.260 -23.779  0.00  0.00    -0.446 OA
ATOM      3  O   UNL     1      35.144 -20.155 -23.955  0.00  0.00    -0.245 OA
ATOM      4  C   UNL     1      33.439 -14.737 -24.835  0.00  0.00    +0.122 C 
ATOM      5  C   UNL     1      34.225 -16.030 -24.590  0.00  0.00    +0.180 C 
ATOM      6  C   UNL     1      34.055 -16.888 -23.361  0.00  0.00    +0.202 C 
ATOM      7  C   UNL     1      35.262 -16.906 -22.410  0.00  0.00    +0.072 C 
ATOM      8  C   UNL     1      32.394 -14.191 -23.897  0.00  0.00    +0.034 C 
ATOM      9  C   UNL     1      33.336 -14.269 -26.248  0.00  0.00    +0.032 C 
ATOM     10  C   UNL     1      34.860 -16.998 -20.914  0.00  0.00    +0.013 C 
ATOM     11  C   UNL     1      32.885 -13.245 -22.788  0.00  0.00    +0.028 C 
ATOM     12  C   UNL     1      35.936 -18.157 -22.862  0.00  0.00    +0.057 C 
ATOM     13  C   UNL     1      34.593 -15.636 -20.237  0.00  0.00    +0.022 C 
ATOM     14  C   UNL     1      34.981 -19.004 -23.593  0.00  0.00    +0.337 C 
ATOM     15  C   UNL     1      33.810 -13.909 -21.810  0.00  0.00    -0.035 C 
ATOM     16  C   UNL     1      33.488 -14.841 -20.892  0.00  0.00    -0.048 C 
ATOM     17  C   UNL     1      37.217 -18.502 -22.710  0.00  0.00    +0.002 C 
ATOM     18  C   UNL     1      32.087 -15.235 -20.524  0.00  0.00    +0.026 C 
ENDROOT
TORSDOF 0
ENDMDL
MODEL 7
REMARK VINA RESULT:      -6.3     12.343     15.352
REMARK  Name = 6473881
REMARK  0 active torsions:
REMARK  status: ('A' for Active; 'I' for Inactive)
REMARK                            x       y       z     vdW  Elec       q    Type
REMARK                         _______ _______ _______ _____ _____    ______ ____
ROOT
ATOM      1  O   UNL     1      34.644 -10.937 -23.339  0.00  0.00    -0.352 OA
ATOM      2  O   UNL     1      32.849 -13.739 -24.946  0.00  0.00    -0.446 OA
ATOM      3  O   UNL     1      33.590 -15.862 -25.420  0.00  0.00    -0.245 OA
ATOM      4  C   UNL     1      33.834 -10.233 -24.282  0.00  0.00    +0.122 C 
ATOM      5  C   UNL     1      34.058 -11.747 -24.364  0.00  0.00    +0.180 C 
ATOM      6  C   UNL     1      33.050 -12.766 -23.892  0.00  0.00    +0.202 C 
ATOM      7  C   UNL     1      33.469 -13.566 -22.649  0.00  0.00    +0.072 C 
ATOM      8  C   UNL     1      32.579  -9.590 -23.751  0.00  0.00    +0.034 C 
ATOM      9  C   UNL     1      34.649  -9.382 -25.197  0.00  0.00    +0.032 C 
ATOM     10  C   UNL     1      32.281 -13.905 -21.711  0.00  0.00    +0.013 C 
ATOM     11  C   UNL     1      32.534  -9.306 -22.239  0.00  0.00    +0.028 C 
ATOM     12  C   UNL     1      34.008 -14.797 -23.297  0.00  0.00    +0.057 C 
ATOM     13  C   UNL     1      31.961 -12.817 -20.663  0.00  0.00    +0.022 C 
ATOM     14  C   UNL     1      33.488 -14.908 -24.669  0.00  0.00    +0.337 C 
ATOM     15  C   UNL     1      32.581 -10.549 -21.401  0.00  0.00    -0.035 C 
ATOM     16  C   UNL     1      31.613 -11.477 -21.269  0.00  0.00    -0.048 C 
ATOM     17  C   UNL     1      34.873 -15.679 -22.793  0.00  0.00    +0.002 C 
ATOM     18  C   UNL     1      30.206 -11.327 -21.771  0.00  0.00    +0.026 C 
ENDROOT
TORSDOF 0
ENDMDL
MODEL 8
REMARK VINA RESULT:      -6.3     10.574     13.057
REMARK  Name = 6473881
REMARK  0 active torsions:
REMARK  status: ('A' for Active; 'I' for Inactive)
REMARK                            x       y       z     vdW  Elec       q    Type
REMARK                         _______ _______ _______ _____ _____    ______ ____
ROOT
ATOM      1  O   UNL     1      32.235 -15.707 -21.784  0.00  0.00    -0.352 OA
ATOM      2  O   UNL     1      35.789 -16.478 -22.437  0.00  0.00    -0.446 OA
ATOM      3  O   UNL     1      36.794 -18.511 -22.807  0.00  0.00    -0.245 OA
ATOM      4  C   UNL     1      32.877 -14.728 -20.967  0.00  0.00    +0.122 C 
ATOM      5  C   UNL     1      33.628 -15.934 -21.543  0.00  0.00    +0.180 C 
ATOM      6  C   UNL     1      34.519 -15.859 -22.757  0.00  0.00    +0.202 C 
ATOM      7  C   UNL     1      33.990 -16.594 -23.999  0.00  0.00    +0.072 C 
ATOM      8  C   UNL     1      32.964 -13.331 -21.525  0.00  0.00    +0.034 C 
ATOM      9  C   UNL     1      32.450 -14.820 -19.541  0.00  0.00    +0.032 C 
ATOM     10  C   UNL     1      34.344 -15.879 -25.329  0.00  0.00    +0.013 C 
ATOM     11  C   UNL     1      31.957 -12.963 -22.628  0.00  0.00    +0.028 C 
ATOM     12  C   UNL     1      34.723 -17.886 -23.873  0.00  0.00    +0.057 C 
ATOM     13  C   UNL     1      33.326 -14.805 -25.771  0.00  0.00    +0.022 C 
ATOM     14  C   UNL     1      35.892 -17.715 -22.996  0.00  0.00    +0.337 C 
ATOM     15  C   UNL     1      32.130 -13.769 -23.882  0.00  0.00    -0.035 C 
ATOM     16  C   UNL     1      33.145 -13.693 -24.764  0.00  0.00    -0.048 C 
ATOM     17  C   UNL     1      34.401 -19.069 -24.401  0.00  0.00    +0.002 C 
ATOM     18  C   UNL     1      34.195 -12.620 -24.773  0.00  0.00    +0.026 C 
ENDROOT
TORSDOF 0
ENDMDL
MODEL 9
REMARK VINA RESULT:      -6.3      2.625      5.664
REMARK  Name = 6473881
REMARK  0 active torsions:
REMARK  status: ('A' for Active; 'I' for Inactive)
REMARK                            x       y       z     vdW  Elec       q    Type
REMARK                         _______ _______ _______ _____ _____    ______ ____
ROOT
ATOM      1  O   UNL     1      33.443 -25.188 -14.447  0.00  0.00    -0.352 OA
ATOM      2  O   UNL     1      35.147 -23.383 -11.710  0.00  0.00    -0.446 OA
ATOM      3  O   UNL     1      36.232 -24.222  -9.867  0.00  0.00    -0.245 OA
ATOM      4  C   UNL     1      32.610 -24.035 -14.325  0.00  0.00    +0.122 C 
ATOM      5  C   UNL     1      33.627 -24.428 -13.248  0.00  0.00    +0.180 C 
ATOM      6  C   UNL     1      34.975 -23.769 -13.095  0.00  0.00    +0.202 C 
ATOM      7  C   UNL     1      36.177 -24.663 -13.439  0.00  0.00    +0.072 C 
ATOM      8  C   UNL     1      32.824 -22.935 -15.331  0.00  0.00    +0.034 C 
ATOM      9  C   UNL     1      31.185 -24.397 -14.068  0.00  0.00    +0.032 C 
ATOM     10  C   UNL     1      37.346 -23.887 -14.102  0.00  0.00    +0.013 C 
ATOM     11  C   UNL     1      33.512 -23.328 -16.650  0.00  0.00    +0.028 C 
ATOM     12  C   UNL     1      36.553 -25.135 -12.075  0.00  0.00    +0.057 C 
ATOM     13  C   UNL     1      37.244 -23.766 -15.639  0.00  0.00    +0.022 C 
ATOM     14  C   UNL     1      35.990 -24.231 -11.060  0.00  0.00    +0.337 C 
ATOM     15  C   UNL     1      34.923 -23.806 -16.462  0.00  0.00    -0.035 C 
ATOM     16  C   UNL     1      35.991 -23.066 -16.108  0.00  0.00    -0.048 C 
ATOM     17  C   UNL     1      37.246 -26.227 -11.745  0.00  0.00    +0.002 C 
ATOM     18  C   UNL     1      36.014 -21.565 -16.048  0.00  0.00    +0.026 C 
ENDROOT
TORSDOF 0
ENDMDL
