MODEL 1
REMARK VINA RESULT:      -8.3      0.000      0.000
REMARK  Name = 54459
REMARK  1 active torsions:
REMARK  status: ('A' for Active; 'I' for Inactive)
REMARK    1  A    between atoms: C_3  and  C_13
REMARK                            x       y       z     vdW  Elec       q    Type
REMARK                         _______ _______ _______ _____ _____    ______ ____
ROOT
ATOM      1  O   UNL     1      34.080 -19.193 -21.616  0.00  0.00    -0.465 OA
ATOM      2  O   UNL     1      36.714 -19.885 -20.667  0.00  0.00    -0.468 OA
ATOM      3  C   UNL     1      35.277 -18.867 -22.319  0.00  0.00    +0.263 C 
ATOM      4  C   UNL     1      36.424 -18.661 -21.347  0.00  0.00    +0.256 C 
ATOM      5  C   UNL     1      34.298 -20.155 -20.663  0.00  0.00    +0.173 C 
ATOM      6  C   UNL     1      35.576 -20.498 -20.212  0.00  0.00    +0.172 C 
ATOM      7  C   UNL     1      33.176 -20.794 -20.135  0.00  0.00    +0.040 C 
ATOM      8  C   UNL     1      35.733 -21.510 -19.265  0.00  0.00    +0.040 C 
ATOM      9  C   UNL     1      33.334 -21.796 -19.178  0.00  0.00    +0.003 C 
ATOM     10  C   UNL     1      34.611 -22.157 -18.747  0.00  0.00    +0.003 C 
ENDROOT
BRANCH   3  13
ATOM     11  N   UNL     1      34.610 -17.621 -24.365  0.00  0.00    -0.296 N 
ATOM     12  N   UNL     1      34.976 -16.439 -22.456  0.00  0.00    -0.228 NA
ATOM     13  C   UNL     1      34.958 -17.606 -23.049  0.00  0.00    +0.153 C 
ATOM     14  C   UNL     1      34.317 -16.293 -24.812  0.00  0.00    +0.084 C 
ATOM     15  C   UNL     1      34.600 -15.479 -23.540  0.00  0.00    +0.116 C 
ATOM     16  H   UNL     1      34.566 -18.428 -24.928  0.00  0.00    +0.153 HD
ENDBRANCH   3  13
TORSDOF 1
ENDMDL
MODEL 2
REMARK VINA RESULT:      -8.2      2.289      5.632
REMARK  Name = 54459
REMARK  1 active torsions:
REMARK  status: ('A' for Active; 'I' for Inactive)
REMARK    1  A    between atoms: C_3  and  C_13
REMARK                            x       y       z     vdW  Elec       q    Type
REMARK                         _______ _______ _______ _____ _____    ______ ____
ROOT
ATOM      1  O   UNL     1      35.118 -17.859 -20.670  0.00  0.00    -0.465 OA
ATOM      2  O   UNL     1      35.066 -18.128 -23.541  0.00  0.00    -0.468 OA
ATOM      3  C   UNL     1      35.706 -18.957 -21.365  0.00  0.00    +0.263 C 
ATOM      4  C   UNL     1      34.947 -19.239 -22.649  0.00  0.00    +0.256 C 
ATOM      5  C   UNL     1      34.860 -16.807 -21.510  0.00  0.00    +0.173 C 
ATOM      6  C   UNL     1      34.846 -16.935 -22.902  0.00  0.00    +0.172 C 
ATOM      7  C   UNL     1      34.595 -15.571 -20.919  0.00  0.00    +0.040 C 
ATOM      8  C   UNL     1      34.610 -15.818 -23.704  0.00  0.00    +0.040 C 
ATOM      9  C   UNL     1      34.346 -14.458 -21.722  0.00  0.00    +0.003 C 
ATOM     10  C   UNL     1      34.358 -14.580 -23.112  0.00  0.00    +0.003 C 
ENDROOT
BRANCH   3  13
ATOM     11  N   UNL     1      36.660 -20.474 -19.642  0.00  0.00    -0.296 N 
ATOM     12  N   UNL     1      34.498 -20.790 -20.276  0.00  0.00    -0.228 NA
ATOM     13  C   UNL     1      35.605 -20.106 -20.418  0.00  0.00    +0.153 C 
ATOM     14  C   UNL     1      36.291 -21.571 -18.799  0.00  0.00    +0.084 C 
ATOM     15  C   UNL     1      34.843 -21.820 -19.247  0.00  0.00    +0.116 C 
ATOM     16  H   UNL     1      37.549 -20.049 -19.657  0.00  0.00    +0.153 HD
ENDBRANCH   3  13
TORSDOF 1
ENDMDL
MODEL 3
REMARK VINA RESULT:      -8.0      2.486      5.909
REMARK  Name = 54459
REMARK  1 active torsions:
REMARK  status: ('A' for Active; 'I' for Inactive)
REMARK    1  A    between atoms: C_3  and  C_13
REMARK                            x       y       z     vdW  Elec       q    Type
REMARK                         _______ _______ _______ _____ _____    ______ ____
ROOT
ATOM      1  O   UNL     1      33.812 -16.551 -21.163  0.00  0.00    -0.465 OA
ATOM      2  O   UNL     1      35.278 -15.710 -23.501  0.00  0.00    -0.468 OA
ATOM      3  C   UNL     1      35.078 -17.095 -21.532  0.00  0.00    +0.263 C 
ATOM      4  C   UNL     1      35.250 -17.064 -23.040  0.00  0.00    +0.256 C 
ATOM      5  C   UNL     1      33.556 -15.374 -21.817  0.00  0.00    +0.173 C 
ATOM      6  C   UNL     1      34.275 -14.961 -22.943  0.00  0.00    +0.172 C 
ATOM      7  C   UNL     1      32.523 -14.580 -21.317  0.00  0.00    +0.040 C 
ATOM      8  C   UNL     1      33.988 -13.734 -23.543  0.00  0.00    +0.040 C 
ATOM      9  C   UNL     1      32.229 -13.360 -21.927  0.00  0.00    +0.003 C 
ATOM     10  C   UNL     1      32.964 -12.936 -23.034  0.00  0.00    +0.003 C 
ENDROOT
BRANCH   3  13
ATOM     11  N   UNL     1      33.886 -19.186 -20.911  0.00  0.00    -0.296 N 
ATOM     12  N   UNL     1      36.149 -19.131 -20.687  0.00  0.00    -0.228 NA
ATOM     13  C   UNL     1      35.054 -18.497 -21.023  0.00  0.00    +0.153 C 
ATOM     14  C   UNL     1      34.141 -20.514 -20.440  0.00  0.00    +0.084 C 
ATOM     15  C   UNL     1      35.665 -20.475 -20.246  0.00  0.00    +0.116 C 
ATOM     16  H   UNL     1      32.994 -18.825 -21.122  0.00  0.00    +0.153 HD
ENDBRANCH   3  13
TORSDOF 1
ENDMDL
MODEL 4
REMARK VINA RESULT:      -7.8      3.396      6.165
REMARK  Name = 54459
REMARK  1 active torsions:
REMARK  status: ('A' for Active; 'I' for Inactive)
REMARK    1  A    between atoms: C_3  and  C_13
REMARK                            x       y       z     vdW  Elec       q    Type
REMARK                         _______ _______ _______ _____ _____    ______ ____
ROOT
ATOM      1  O   UNL     1      35.204 -21.048 -19.544  0.00  0.00    -0.465 OA
ATOM      2  O   UNL     1      33.073 -19.984 -21.170  0.00  0.00    -0.468 OA
ATOM      3  C   UNL     1      33.932 -21.679 -19.679  0.00  0.00    +0.263 C 
ATOM      4  C   UNL     1      32.849 -20.643 -19.921  0.00  0.00    +0.256 C 
ATOM      5  C   UNL     1      35.414 -20.113 -20.525  0.00  0.00    +0.173 C 
ATOM      6  C   UNL     1      34.382 -19.606 -21.320  0.00  0.00    +0.172 C 
ATOM      7  C   UNL     1      36.721 -19.663 -20.706  0.00  0.00    +0.040 C 
ATOM      8  C   UNL     1      34.666 -18.682 -22.326  0.00  0.00    +0.040 C 
ATOM      9  C   UNL     1      37.001 -18.728 -21.703  0.00  0.00    +0.003 C 
ATOM     10  C   UNL     1      35.976 -18.242 -22.514  0.00  0.00    +0.003 C 
ENDROOT
BRANCH   3  13
ATOM     11  N   UNL     1      32.465 -22.664 -17.930  0.00  0.00    -0.296 N 
ATOM     12  N   UNL     1      34.718 -22.794 -17.644  0.00  0.00    -0.228 NA
ATOM     13  C   UNL     1      33.718 -22.388 -18.384  0.00  0.00    +0.153 C 
ATOM     14  C   UNL     1      32.537 -23.381 -16.693  0.00  0.00    +0.084 C 
ATOM     15  C   UNL     1      34.056 -23.440 -16.469  0.00  0.00    +0.116 C 
ATOM     16  H   UNL     1      31.630 -22.407 -18.385  0.00  0.00    +0.153 HD
ENDBRANCH   3  13
TORSDOF 1
ENDMDL
MODEL 5
REMARK VINA RESULT:      -7.8      4.135      5.728
REMARK  Name = 54459
REMARK  1 active torsions:
REMARK  status: ('A' for Active; 'I' for Inactive)
REMARK    1  A    between atoms: C_3  and  C_13
REMARK                            x       y       z     vdW  Elec       q    Type
REMARK                         _______ _______ _______ _____ _____    ______ ____
ROOT
ATOM      1  O   UNL     1      34.316 -14.848 -23.378  0.00  0.00    -0.465 OA
ATOM      2  O   UNL     1      33.459 -16.084 -25.840  0.00  0.00    -0.468 OA
ATOM      3  C   UNL     1      33.293 -14.307 -24.213  0.00  0.00    +0.263 C 
ATOM      4  C   UNL     1      33.547 -14.667 -25.665  0.00  0.00    +0.256 C 
ATOM      5  C   UNL     1      34.575 -16.160 -23.681  0.00  0.00    +0.173 C 
ATOM      6  C   UNL     1      34.150 -16.762 -24.869  0.00  0.00    +0.172 C 
ATOM      7  C   UNL     1      35.304 -16.896 -22.747  0.00  0.00    +0.040 C 
ATOM      8  C   UNL     1      34.416 -18.111 -25.103  0.00  0.00    +0.040 C 
ATOM      9  C   UNL     1      35.581 -18.242 -22.988  0.00  0.00    +0.003 C 
ATOM     10  C   UNL     1      35.134 -18.849 -24.162  0.00  0.00    +0.003 C 
ENDROOT
BRANCH   3  13
ATOM     11  N   UNL     1      34.219 -12.060 -24.738  0.00  0.00    -0.296 N 
ATOM     12  N   UNL     1      32.619 -12.216 -23.128  0.00  0.00    -0.228 NA
ATOM     13  C   UNL     1      33.372 -12.832 -24.003  0.00  0.00    +0.153 C 
ATOM     14  C   UNL     1      34.071 -10.683 -24.372  0.00  0.00    +0.084 C 
ATOM     15  C   UNL     1      33.021 -10.781 -23.255  0.00  0.00    +0.116 C 
ATOM     16  H   UNL     1      34.842 -12.398 -25.421  0.00  0.00    +0.153 HD
ENDBRANCH   3  13
TORSDOF 1
ENDMDL
MODEL 6
REMARK VINA RESULT:      -7.8      2.258      5.556
REMARK  Name = 54459
REMARK  1 active torsions:
REMARK  status: ('A' for Active; 'I' for Inactive)
REMARK    1  A    between atoms: C_3  and  C_13
REMARK                            x       y       z     vdW  Elec       q    Type
REMARK                         _______ _______ _______ _____ _____    ______ ____
ROOT
ATOM      1  O   UNL     1      34.716 -19.529 -22.413  0.00  0.00    -0.465 OA
ATOM      2  O   UNL     1      35.111 -16.783 -21.623  0.00  0.00    -0.468 OA
ATOM      3  C   UNL     1      34.595 -19.076 -21.066  0.00  0.00    +0.263 C 
ATOM      4  C   UNL     1      35.515 -17.894 -20.819  0.00  0.00    +0.256 C 
ATOM      5  C   UNL     1      34.680 -18.487 -23.304  0.00  0.00    +0.173 C 
ATOM      6  C   UNL     1      34.860 -17.155 -22.919  0.00  0.00    +0.172 C 
ATOM      7  C   UNL     1      34.461 -18.804 -24.645  0.00  0.00    +0.040 C 
ATOM      8  C   UNL     1      34.778 -16.137 -23.868  0.00  0.00    +0.040 C 
ATOM      9  C   UNL     1      34.392 -17.785 -25.595  0.00  0.00    +0.003 C 
ATOM     10  C   UNL     1      34.546 -16.454 -25.207  0.00  0.00    +0.003 C 
ENDROOT
BRANCH   3  13
ATOM     11  N   UNL     1      36.268 -20.396 -19.785  0.00  0.00    -0.296 N 
ATOM     12  N   UNL     1      34.129 -21.167 -19.877  0.00  0.00    -0.228 NA
ATOM     13  C   UNL     1      34.991 -20.248 -20.232  0.00  0.00    +0.153 C 
ATOM     14  C   UNL     1      36.373 -21.575 -18.979  0.00  0.00    +0.084 C 
ATOM     15  C   UNL     1      34.942 -22.127 -19.067  0.00  0.00    +0.116 C 
ATOM     16  H   UNL     1      37.012 -19.783 -19.987  0.00  0.00    +0.153 HD
ENDBRANCH   3  13
TORSDOF 1
ENDMDL
MODEL 7
REMARK VINA RESULT:      -7.7      2.264      6.225
REMARK  Name = 54459
REMARK  1 active torsions:
REMARK  status: ('A' for Active; 'I' for Inactive)
REMARK    1  A    between atoms: C_3  and  C_13
REMARK                            x       y       z     vdW  Elec       q    Type
REMARK                         _______ _______ _______ _____ _____    ______ ____
ROOT
ATOM      1  O   UNL     1      34.558 -16.610 -22.924  0.00  0.00    -0.465 OA
ATOM      2  O   UNL     1      34.295 -17.454 -25.669  0.00  0.00    -0.468 OA
ATOM      3  C   UNL     1      35.276 -17.712 -23.478  0.00  0.00    +0.263 C 
ATOM      4  C   UNL     1      34.470 -18.368 -24.584  0.00  0.00    +0.256 C 
ATOM      5  C   UNL     1      34.031 -15.806 -23.901  0.00  0.00    +0.173 C 
ATOM      6  C   UNL     1      33.914 -16.211 -25.234  0.00  0.00    +0.172 C 
ATOM      7  C   UNL     1      33.594 -14.538 -23.515  0.00  0.00    +0.040 C 
ATOM      8  C   UNL     1      33.400 -15.332 -26.188  0.00  0.00    +0.040 C 
ATOM      9  C   UNL     1      33.068 -13.666 -24.468  0.00  0.00    +0.003 C 
ATOM     10  C   UNL     1      32.976 -14.061 -25.803  0.00  0.00    +0.003 C 
ENDROOT
BRANCH   3  13
ATOM     11  N   UNL     1      36.642 -18.653 -21.625  0.00  0.00    -0.296 N 
ATOM     12  N   UNL     1      34.548 -19.482 -21.948  0.00  0.00    -0.228 NA
ATOM     13  C   UNL     1      35.479 -18.648 -22.334  0.00  0.00    +0.153 C 
ATOM     14  C   UNL     1      36.566 -19.609 -20.562  0.00  0.00    +0.084 C 
ATOM     15  C   UNL     1      35.169 -20.205 -20.795  0.00  0.00    +0.116 C 
ATOM     16  H   UNL     1      37.422 -18.083 -21.816  0.00  0.00    +0.153 HD
ENDBRANCH   3  13
TORSDOF 1
ENDMDL
MODEL 8
REMARK VINA RESULT:      -7.6      4.880      6.580
REMARK  Name = 54459
REMARK  1 active torsions:
REMARK  status: ('A' for Active; 'I' for Inactive)
REMARK    1  A    between atoms: C_3  and  C_13
REMARK                            x       y       z     vdW  Elec       q    Type
REMARK                         _______ _______ _______ _____ _____    ______ ____
ROOT
ATOM      1  O   UNL     1      31.991 -22.736 -17.405  0.00  0.00    -0.465 OA
ATOM      2  O   UNL     1      33.590 -24.032 -15.385  0.00  0.00    -0.468 OA
ATOM      3  C   UNL     1      33.324 -23.191 -17.633  0.00  0.00    +0.263 C 
ATOM      4  C   UNL     1      34.132 -23.127 -16.350  0.00  0.00    +0.256 C 
ATOM      5  C   UNL     1      31.451 -23.293 -16.275  0.00  0.00    +0.173 C 
ATOM      6  C   UNL     1      32.225 -23.931 -15.301  0.00  0.00    +0.172 C 
ATOM      7  C   UNL     1      30.069 -23.194 -16.115  0.00  0.00    +0.040 C 
ATOM      8  C   UNL     1      31.612 -24.508 -14.189  0.00  0.00    +0.040 C 
ATOM      9  C   UNL     1      29.458 -23.760 -14.995  0.00  0.00    +0.003 C 
ATOM     10  C   UNL     1      30.228 -24.420 -14.037  0.00  0.00    +0.003 C 
ENDROOT
BRANCH   3  13
ATOM     11  N   UNL     1      33.064 -21.406 -19.344  0.00  0.00    -0.296 N 
ATOM     12  N   UNL     1      35.153 -22.210 -18.935  0.00  0.00    -0.228 NA
ATOM     13  C   UNL     1      33.874 -22.261 -18.662  0.00  0.00    +0.153 C 
ATOM     14  C   UNL     1      33.840 -20.600 -20.237  0.00  0.00    +0.084 C 
ATOM     15  C   UNL     1      35.250 -21.163 -19.999  0.00  0.00    +0.116 C 
ATOM     16  H   UNL     1      32.086 -21.349 -19.239  0.00  0.00    +0.153 HD
ENDBRANCH   3  13
TORSDOF 1
ENDMDL
MODEL 9
REMARK VINA RESULT:      -7.5      3.519      4.956
REMARK  Name = 54459
REMARK  1 active torsions:
REMARK  status: ('A' for Active; 'I' for Inactive)
REMARK    1  A    between atoms: C_3  and  C_13
REMARK                            x       y       z     vdW  Elec       q    Type
REMARK                         _______ _______ _______ _____ _____    ______ ____
ROOT
ATOM      1  O   UNL     1      33.979 -15.295 -24.046  0.00  0.00    -0.465 OA
ATOM      2  O   UNL     1      34.896 -16.421 -21.554  0.00  0.00    -0.468 OA
ATOM      3  C   UNL     1      34.470 -14.507 -22.963  0.00  0.00    +0.263 C 
ATOM      4  C   UNL     1      34.179 -15.186 -21.637  0.00  0.00    +0.256 C 
ATOM      5  C   UNL     1      34.324 -16.615 -23.909  0.00  0.00    +0.173 C 
ATOM      6  C   UNL     1      34.779 -17.158 -22.704  0.00  0.00    +0.172 C 
ATOM      7  C   UNL     1      34.196 -17.426 -25.037  0.00  0.00    +0.040 C 
ATOM      8  C   UNL     1      35.147 -18.502 -22.639  0.00  0.00    +0.040 C 
ATOM      9  C   UNL     1      34.552 -18.773 -24.966  0.00  0.00    +0.003 C 
ATOM     10  C   UNL     1      35.031 -19.309 -23.771  0.00  0.00    +0.003 C 
ENDROOT
BRANCH   3  13
ATOM     11  N   UNL     1      34.192 -12.213 -23.881  0.00  0.00    -0.296 N 
ATOM     12  N   UNL     1      32.627 -12.985 -22.422  0.00  0.00    -0.228 NA
ATOM     13  C   UNL     1      33.739 -13.210 -23.073  0.00  0.00    +0.153 C 
ATOM     14  C   UNL     1      33.294 -11.099 -23.838  0.00  0.00    +0.084 C 
ATOM     15  C   UNL     1      32.252 -11.594 -22.823  0.00  0.00    +0.116 C 
ATOM     16  H   UNL     1      35.018 -12.251 -24.417  0.00  0.00    +0.153 HD
ENDBRANCH   3  13
TORSDOF 1
ENDMDL
