MODEL 1
REMARK VINA RESULT:      -9.5      0.000      0.000
REMARK  Name = 31796
REMARK  7 active torsions:
REMARK  status: ('A' for Active; 'I' for Inactive)
REMARK    1  A    between atoms: C_2  and  C_4
REMARK    2  A    between atoms: C_2  and  O_15
REMARK    3  A    between atoms: C_4  and  C_9
REMARK    4  A    between atoms: O_15  and  C_16
REMARK    5  A    between atoms: C_16  and  C_18
REMARK    6  A    between atoms: C_18  and  C_19
REMARK    7  A    between atoms: C_19  and  N_21
REMARK                            x       y       z     vdW  Elec       q    Type
REMARK                         _______ _______ _______ _____ _____    ______ ____
ROOT
ATOM      1  O   UNL     1      34.416  -7.768 -22.586  0.00  0.00    -0.250 OA
ATOM      2  C   UNL     1      33.391  -8.293 -22.999  0.00  0.00    +0.320 C 
ENDROOT
BRANCH   2   4
ATOM      3  O   UNL     1      30.969  -5.632 -23.568  0.00  0.00    -0.354 OA
ATOM      4  C   UNL     1      32.024  -8.096 -22.374  0.00  0.00    +0.113 C 
ATOM      5  C   UNL     1      31.987  -6.728 -21.646  0.00  0.00    +0.047 C 
ATOM      6  C   UNL     1      30.986  -8.057 -23.526  0.00  0.00    +0.047 C 
ATOM      7  C   UNL     1      32.015  -5.541 -22.606  0.00  0.00    +0.143 C 
ATOM      8  C   UNL     1      31.098  -6.796 -24.379  0.00  0.00    +0.143 C 
BRANCH   4   9
ATOM      9  C   UNL     1      31.810  -9.246 -21.376  0.00  0.00    -0.013 C 
ATOM     10  C   UNL     1      32.189  -9.086 -20.046  0.00  0.00    -0.004 C 
ATOM     11  C   UNL     1      31.239 -10.441 -21.806  0.00  0.00    -0.004 C 
ATOM     12  C   UNL     1      31.995 -10.129 -19.139  0.00  0.00    -0.000 C 
ATOM     13  C   UNL     1      31.044 -11.483 -20.900  0.00  0.00    -0.000 C 
ATOM     14  C   UNL     1      31.423 -11.327 -19.567  0.00  0.00    -0.000 C 
ENDBRANCH   4   9
ENDBRANCH   2   4
BRANCH   2  15
ATOM     15  O   UNL     1      33.286  -9.129 -24.072  0.00  0.00    -0.452 OA
BRANCH  15  16
ATOM     16  C   UNL     1      34.171 -10.252 -24.065  0.00  0.00    +0.167 C 
ATOM     17  C   UNL     1      35.312  -9.985 -25.038  0.00  0.00    +0.047 C 
BRANCH  16  18
ATOM     18  C   UNL     1      33.391 -11.511 -24.458  0.00  0.00    +0.021 C 
BRANCH  18  19
ATOM     19  C   UNL     1      33.705 -12.691 -23.534  0.00  0.00    -0.073 C 
BRANCH  19  21
ATOM     20  O   UNL     1      33.966 -16.033 -26.059  0.00  0.00    -0.358 OA
ATOM     21  N   UNL     1      33.395 -13.953 -24.201  0.00  0.00    +0.390 N 
ATOM     22  C   UNL     1      33.242 -13.754 -25.650  0.00  0.00    -0.045 C 
ATOM     23  C   UNL     1      34.439 -14.953 -23.939  0.00  0.00    -0.045 C 
ATOM     24  C   UNL     1      32.930 -15.087 -26.325  0.00  0.00    +0.119 C 
ATOM     25  C   UNL     1      34.100 -16.258 -24.655  0.00  0.00    +0.119 C 
ATOM     26  H   UNL     1      32.512 -14.297 -23.824  0.00  0.00    -0.079 HD
ENDBRANCH  19  21
ENDBRANCH  18  19
ENDBRANCH  16  18
ENDBRANCH  15  16
ENDBRANCH   2  15
TORSDOF 7
ENDMDL
MODEL 2
REMARK VINA RESULT:      -9.3      0.673      1.520
REMARK  Name = 31796
REMARK  7 active torsions:
REMARK  status: ('A' for Active; 'I' for Inactive)
REMARK    1  A    between atoms: C_2  and  C_4
REMARK    2  A    between atoms: C_2  and  O_15
REMARK    3  A    between atoms: C_4  and  C_9
REMARK    4  A    between atoms: O_15  and  C_16
REMARK    5  A    between atoms: C_16  and  C_18
REMARK    6  A    between atoms: C_18  and  C_19
REMARK    7  A    between atoms: C_19  and  N_21
REMARK                            x       y       z     vdW  Elec       q    Type
REMARK                         _______ _______ _______ _____ _____    ______ ____
ROOT
ATOM      1  O   UNL     1      34.418  -7.811 -22.761  0.00  0.00    -0.250 OA
ATOM      2  C   UNL     1      33.383  -8.373 -23.093  0.00  0.00    +0.320 C 
ENDROOT
BRANCH   2   4
ATOM      3  O   UNL     1      31.009  -5.659 -23.604  0.00  0.00    -0.354 OA
ATOM      4  C   UNL     1      32.040  -8.142 -22.430  0.00  0.00    +0.113 C 
ATOM      5  C   UNL     1      32.057  -6.770 -21.707  0.00  0.00    +0.047 C 
ATOM      6  C   UNL     1      30.971  -8.083 -23.551  0.00  0.00    +0.047 C 
ATOM      7  C   UNL     1      32.084  -5.588 -22.674  0.00  0.00    +0.143 C 
ATOM      8  C   UNL     1      31.087  -6.829 -24.413  0.00  0.00    +0.143 C 
BRANCH   4   9
ATOM      9  C   UNL     1      31.829  -9.282 -21.420  0.00  0.00    -0.013 C 
ATOM     10  C   UNL     1      31.225 -10.467 -21.830  0.00  0.00    -0.004 C 
ATOM     11  C   UNL     1      32.243  -9.123 -20.099  0.00  0.00    -0.004 C 
ATOM     12  C   UNL     1      31.033 -11.502 -20.914  0.00  0.00    -0.000 C 
ATOM     13  C   UNL     1      32.051 -10.157 -19.184  0.00  0.00    -0.000 C 
ATOM     14  C   UNL     1      31.446 -11.346 -19.591  0.00  0.00    -0.000 C 
ENDBRANCH   4   9
ENDBRANCH   2   4
BRANCH   2  15
ATOM     15  O   UNL     1      33.246  -9.286 -24.096  0.00  0.00    -0.452 OA
BRANCH  15  16
ATOM     16  C   UNL     1      34.232 -10.322 -24.126  0.00  0.00    +0.167 C 
ATOM     17  C   UNL     1      35.296  -9.957 -25.153  0.00  0.00    +0.047 C 
BRANCH  16  18
ATOM     18  C   UNL     1      33.557 -11.651 -24.474  0.00  0.00    +0.021 C 
BRANCH  18  19
ATOM     19  C   UNL     1      33.664 -12.665 -23.332  0.00  0.00    -0.073 C 
BRANCH  19  21
ATOM     20  O   UNL     1      34.151 -16.747 -24.179  0.00  0.00    -0.358 OA
ATOM     21  N   UNL     1      34.222 -13.923 -23.822  0.00  0.00    +0.390 N 
ATOM     22  C   UNL     1      34.484 -14.847 -22.708  0.00  0.00    -0.045 C 
ATOM     23  C   UNL     1      33.318 -14.553 -24.795  0.00  0.00    -0.045 C 
ATOM     24  C   UNL     1      35.055 -16.156 -23.244  0.00  0.00    +0.119 C 
ATOM     25  C   UNL     1      33.917 -15.870 -25.282  0.00  0.00    +0.119 C 
ATOM     26  H   UNL     1      35.106 -13.713 -24.285  0.00  0.00    -0.079 HD
ENDBRANCH  19  21
ENDBRANCH  18  19
ENDBRANCH  16  18
ENDBRANCH  15  16
ENDBRANCH   2  15
TORSDOF 7
ENDMDL
MODEL 3
REMARK VINA RESULT:      -8.5      1.699      4.107
REMARK  Name = 31796
REMARK  7 active torsions:
REMARK  status: ('A' for Active; 'I' for Inactive)
REMARK    1  A    between atoms: C_2  and  C_4
REMARK    2  A    between atoms: C_2  and  O_15
REMARK    3  A    between atoms: C_4  and  C_9
REMARK    4  A    between atoms: O_15  and  C_16
REMARK    5  A    between atoms: C_16  and  C_18
REMARK    6  A    between atoms: C_18  and  C_19
REMARK    7  A    between atoms: C_19  and  N_21
REMARK                            x       y       z     vdW  Elec       q    Type
REMARK                         _______ _______ _______ _____ _____    ______ ____
ROOT
ATOM      1  O   UNL     1      35.008  -8.104 -23.170  0.00  0.00    -0.250 OA
ATOM      2  C   UNL     1      33.885  -8.430 -23.529  0.00  0.00    +0.320 C 
ENDROOT
BRANCH   2   4
ATOM      3  O   UNL     1      31.574  -9.245 -20.835  0.00  0.00    -0.354 OA
ATOM      4  C   UNL     1      32.617  -7.714 -23.110  0.00  0.00    +0.113 C 
ATOM      5  C   UNL     1      31.421  -8.696 -23.203  0.00  0.00    +0.047 C 
ATOM      6  C   UNL     1      32.786  -7.299 -21.625  0.00  0.00    +0.047 C 
ATOM      7  C   UNL     1      31.469  -9.795 -22.144  0.00  0.00    +0.143 C 
ATOM      8  C   UNL     1      32.771  -8.492 -20.673  0.00  0.00    +0.143 C 
BRANCH   4   9
ATOM      9  C   UNL     1      32.422  -6.532 -24.073  0.00  0.00    -0.013 C 
ATOM     10  C   UNL     1      33.410  -6.229 -25.007  0.00  0.00    -0.004 C 
ATOM     11  C   UNL     1      31.258  -5.770 -24.009  0.00  0.00    -0.004 C 
ATOM     12  C   UNL     1      33.232  -5.156 -25.882  0.00  0.00    -0.000 C 
ATOM     13  C   UNL     1      31.081  -4.698 -24.883  0.00  0.00    -0.000 C 
ATOM     14  C   UNL     1      32.068  -4.391 -25.819  0.00  0.00    -0.000 C 
ENDBRANCH   4   9
ENDBRANCH   2   4
BRANCH   2  15
ATOM     15  O   UNL     1      33.571  -9.470 -24.354  0.00  0.00    -0.452 OA
BRANCH  15  16
ATOM     16  C   UNL     1      34.566 -10.491 -24.464  0.00  0.00    +0.167 C 
ATOM     17  C   UNL     1      35.518 -10.127 -25.596  0.00  0.00    +0.047 C 
BRANCH  16  18
ATOM     18  C   UNL     1      33.882 -11.836 -24.726  0.00  0.00    +0.021 C 
BRANCH  18  19
ATOM     19  C   UNL     1      33.584 -12.589 -23.427  0.00  0.00    -0.073 C 
BRANCH  19  21
ATOM     20  O   UNL     1      34.223 -16.724 -23.096  0.00  0.00    -0.358 OA
ATOM     21  N   UNL     1      34.233 -13.898 -23.440  0.00  0.00    +0.390 N 
ATOM     22  C   UNL     1      34.200 -14.510 -22.104  0.00  0.00    -0.045 C 
ATOM     23  C   UNL     1      33.592 -14.789 -24.417  0.00  0.00    -0.045 C 
ATOM     24  C   UNL     1      34.872 -15.880 -22.145  0.00  0.00    +0.119 C 
ATOM     25  C   UNL     1      34.279 -16.152 -24.404  0.00  0.00    +0.119 C 
ATOM     26  H   UNL     1      35.206 -13.761 -23.712  0.00  0.00    -0.079 HD
ENDBRANCH  19  21
ENDBRANCH  18  19
ENDBRANCH  16  18
ENDBRANCH  15  16
ENDBRANCH   2  15
TORSDOF 7
ENDMDL
MODEL 4
REMARK VINA RESULT:      -8.4      1.953      4.129
REMARK  Name = 31796
REMARK  7 active torsions:
REMARK  status: ('A' for Active; 'I' for Inactive)
REMARK    1  A    between atoms: C_2  and  C_4
REMARK    2  A    between atoms: C_2  and  O_15
REMARK    3  A    between atoms: C_4  and  C_9
REMARK    4  A    between atoms: O_15  and  C_16
REMARK    5  A    between atoms: C_16  and  C_18
REMARK    6  A    between atoms: C_18  and  C_19
REMARK    7  A    between atoms: C_19  and  N_21
REMARK                            x       y       z     vdW  Elec       q    Type
REMARK                         _______ _______ _______ _____ _____    ______ ____
ROOT
ATOM      1  O   UNL     1      30.472  -9.931 -22.636  0.00  0.00    -0.250 OA
ATOM      2  C   UNL     1      31.586  -9.691 -22.191  0.00  0.00    +0.320 C 
ENDROOT
BRANCH   2   4
ATOM      3  O   UNL     1      31.761  -6.099 -21.616  0.00  0.00    -0.354 OA
ATOM      4  C   UNL     1      32.538  -8.674 -22.787  0.00  0.00    +0.113 C 
ATOM      5  C   UNL     1      31.723  -7.591 -23.541  0.00  0.00    +0.047 C 
ATOM      6  C   UNL     1      33.282  -7.987 -21.613  0.00  0.00    +0.047 C 
ATOM      7  C   UNL     1      30.922  -6.689 -22.603  0.00  0.00    +0.143 C 
ATOM      8  C   UNL     1      32.373  -7.081 -20.787  0.00  0.00    +0.143 C 
BRANCH   4   9
ATOM      9  C   UNL     1      33.460  -9.428 -23.759  0.00  0.00    -0.013 C 
ATOM     10  C   UNL     1      34.630  -8.825 -24.212  0.00  0.00    -0.004 C 
ATOM     11  C   UNL     1      33.122 -10.712 -24.181  0.00  0.00    -0.004 C 
ATOM     12  C   UNL     1      35.468  -9.510 -25.095  0.00  0.00    -0.000 C 
ATOM     13  C   UNL     1      33.959 -11.396 -25.062  0.00  0.00    -0.000 C 
ATOM     14  C   UNL     1      35.131 -10.794 -25.519  0.00  0.00    -0.000 C 
ENDBRANCH   4   9
ENDBRANCH   2   4
BRANCH   2  15
ATOM     15  O   UNL     1      32.165 -10.275 -21.103  0.00  0.00    -0.452 OA
BRANCH  15  16
ATOM     16  C   UNL     1      31.341 -11.201 -20.390  0.00  0.00    +0.167 C 
ATOM     17  C   UNL     1      31.110 -10.669 -18.982  0.00  0.00    +0.047 C 
BRANCH  16  18
ATOM     18  C   UNL     1      32.029 -12.569 -20.361  0.00  0.00    +0.021 C 
BRANCH  18  19
ATOM     19  C   UNL     1      32.155 -13.177 -21.759  0.00  0.00    -0.073 C 
BRANCH  19  21
ATOM     20  O   UNL     1      34.682 -16.511 -22.100  0.00  0.00    -0.358 OA
ATOM     21  N   UNL     1      33.356 -14.005 -21.846  0.00  0.00    +0.390 N 
ATOM     22  C   UNL     1      33.413 -14.961 -20.731  0.00  0.00    -0.045 C 
ATOM     23  C   UNL     1      33.404 -14.723 -23.127  0.00  0.00    -0.045 C 
ATOM     24  C   UNL     1      34.669 -15.820 -20.850  0.00  0.00    +0.119 C 
ATOM     25  C   UNL     1      34.659 -15.589 -23.190  0.00  0.00    +0.119 C 
ATOM     26  H   UNL     1      34.165 -13.387 -21.788  0.00  0.00    -0.079 HD
ENDBRANCH  19  21
ENDBRANCH  18  19
ENDBRANCH  16  18
ENDBRANCH  15  16
ENDBRANCH   2  15
TORSDOF 7
ENDMDL
MODEL 5
REMARK VINA RESULT:      -8.0      1.923      4.158
REMARK  Name = 31796
REMARK  7 active torsions:
REMARK  status: ('A' for Active; 'I' for Inactive)
REMARK    1  A    between atoms: C_2  and  C_4
REMARK    2  A    between atoms: C_2  and  O_15
REMARK    3  A    between atoms: C_4  and  C_9
REMARK    4  A    between atoms: O_15  and  C_16
REMARK    5  A    between atoms: C_16  and  C_18
REMARK    6  A    between atoms: C_18  and  C_19
REMARK    7  A    between atoms: C_19  and  N_21
REMARK                            x       y       z     vdW  Elec       q    Type
REMARK                         _______ _______ _______ _____ _____    ______ ____
ROOT
ATOM      1  O   UNL     1      30.700  -8.307 -23.680  0.00  0.00    -0.250 OA
ATOM      2  C   UNL     1      31.903  -8.245 -23.468  0.00  0.00    +0.320 C 
ENDROOT
BRANCH   2   4
ATOM      3  O   UNL     1      32.397  -6.807 -20.158  0.00  0.00    -0.354 OA
ATOM      4  C   UNL     1      32.632  -6.975 -23.078  0.00  0.00    +0.113 C 
ATOM      5  C   UNL     1      31.651  -6.027 -22.341  0.00  0.00    +0.047 C 
ATOM      6  C   UNL     1      33.757  -7.369 -22.085  0.00  0.00    +0.047 C 
ATOM      7  C   UNL     1      31.250  -6.541 -20.960  0.00  0.00    +0.143 C 
ATOM      8  C   UNL     1      33.218  -7.820 -20.731  0.00  0.00    +0.143 C 
BRANCH   4   9
ATOM      9  C   UNL     1      33.140  -6.324 -24.375  0.00  0.00    -0.013 C 
ATOM     10  C   UNL     1      34.421  -6.611 -24.838  0.00  0.00    -0.004 C 
ATOM     11  C   UNL     1      32.316  -5.450 -25.081  0.00  0.00    -0.004 C 
ATOM     12  C   UNL     1      34.882  -6.021 -26.016  0.00  0.00    -0.000 C 
ATOM     13  C   UNL     1      32.776  -4.861 -26.257  0.00  0.00    -0.000 C 
ATOM     14  C   UNL     1      34.060  -5.145 -26.724  0.00  0.00    -0.000 C 
ENDBRANCH   4   9
ENDBRANCH   2   4
BRANCH   2  15
ATOM     15  O   UNL     1      32.791  -9.277 -23.539  0.00  0.00    -0.452 OA
BRANCH  15  16
ATOM     16  C   UNL     1      32.226 -10.585 -23.408  0.00  0.00    +0.167 C 
ATOM     17  C   UNL     1      31.879 -10.825 -21.944  0.00  0.00    +0.047 C 
BRANCH  16  18
ATOM     18  C   UNL     1      33.232 -11.622 -23.917  0.00  0.00    +0.021 C 
BRANCH  18  19
ATOM     19  C   UNL     1      33.181 -12.917 -23.103  0.00  0.00    -0.073 C 
BRANCH  19  21
ATOM     20  O   UNL     1      34.061 -15.738 -26.083  0.00  0.00    -0.358 OA
ATOM     21  N   UNL     1      33.082 -14.072 -23.992  0.00  0.00    +0.390 N 
ATOM     22  C   UNL     1      33.042 -13.645 -25.398  0.00  0.00    -0.045 C 
ATOM     23  C   UNL     1      34.207 -14.993 -23.779  0.00  0.00    -0.045 C 
ATOM     24  C   UNL     1      32.951 -14.868 -26.308  0.00  0.00    +0.119 C 
ATOM     25  C   UNL     1      34.090 -16.184 -24.726  0.00  0.00    +0.119 C 
ATOM     26  H   UNL     1      32.215 -14.561 -23.775  0.00  0.00    -0.079 HD
ENDBRANCH  19  21
ENDBRANCH  18  19
ENDBRANCH  16  18
ENDBRANCH  15  16
ENDBRANCH   2  15
TORSDOF 7
ENDMDL
MODEL 6
REMARK VINA RESULT:      -8.0      5.173      8.183
REMARK  Name = 31796
REMARK  7 active torsions:
REMARK  status: ('A' for Active; 'I' for Inactive)
REMARK    1  A    between atoms: C_2  and  C_4
REMARK    2  A    between atoms: C_2  and  O_15
REMARK    3  A    between atoms: C_4  and  C_9
REMARK    4  A    between atoms: O_15  and  C_16
REMARK    5  A    between atoms: C_16  and  C_18
REMARK    6  A    between atoms: C_18  and  C_19
REMARK    7  A    between atoms: C_19  and  N_21
REMARK                            x       y       z     vdW  Elec       q    Type
REMARK                         _______ _______ _______ _____ _____    ______ ____
ROOT
ATOM      1  O   UNL     1      35.970 -15.980 -23.514  0.00  0.00    -0.250 OA
ATOM      2  C   UNL     1      34.775 -16.059 -23.267  0.00  0.00    +0.320 C 
ENDROOT
BRANCH   2   4
ATOM      3  O   UNL     1      33.288 -15.038 -20.103  0.00  0.00    -0.354 OA
ATOM      4  C   UNL     1      33.889 -14.866 -22.970  0.00  0.00    +0.113 C 
ATOM      5  C   UNL     1      32.536 -15.364 -22.396  0.00  0.00    +0.047 C 
ATOM      6  C   UNL     1      34.594 -14.022 -21.876  0.00  0.00    +0.047 C 
ATOM      7  C   UNL     1      32.666 -15.957 -20.995  0.00  0.00    +0.143 C 
ATOM      8  C   UNL     1      34.612 -14.715 -20.516  0.00  0.00    +0.143 C 
BRANCH   4   9
ATOM      9  C   UNL     1      33.671 -14.119 -24.295  0.00  0.00    -0.013 C 
ATOM     10  C   UNL     1      33.884 -12.745 -24.359  0.00  0.00    -0.004 C 
ATOM     11  C   UNL     1      33.261 -14.820 -25.427  0.00  0.00    -0.004 C 
ATOM     12  C   UNL     1      33.686 -12.066 -25.562  0.00  0.00    -0.000 C 
ATOM     13  C   UNL     1      33.064 -14.142 -26.630  0.00  0.00    -0.000 C 
ATOM     14  C   UNL     1      33.276 -12.765 -26.697  0.00  0.00    -0.000 C 
ENDBRANCH   4   9
ENDBRANCH   2   4
BRANCH   2  15
ATOM     15  O   UNL     1      34.033 -17.202 -23.215  0.00  0.00    -0.452 OA
BRANCH  15  16
ATOM     16  C   UNL     1      34.760 -18.417 -23.417  0.00  0.00    +0.167 C 
ATOM     17  C   UNL     1      34.320 -19.040 -24.735  0.00  0.00    +0.047 C 
BRANCH  16  18
ATOM     18  C   UNL     1      34.497 -19.363 -22.241  0.00  0.00    +0.021 C 
BRANCH  18  19
ATOM     19  C   UNL     1      35.573 -19.246 -21.159  0.00  0.00    -0.073 C 
BRANCH  19  21
ATOM     20  O   UNL     1      34.842 -22.651 -18.817  0.00  0.00    -0.358 OA
ATOM     21  N   UNL     1      35.246 -20.104 -20.023  0.00  0.00    +0.390 N 
ATOM     22  C   UNL     1      34.046 -20.906 -20.303  0.00  0.00    -0.045 C 
ATOM     23  C   UNL     1      36.374 -20.985 -19.691  0.00  0.00    -0.045 C 
ATOM     24  C   UNL     1      33.731 -21.801 -19.108  0.00  0.00    +0.119 C 
ATOM     25  C   UNL     1      36.004 -21.879 -18.511  0.00  0.00    +0.119 C 
ATOM     26  H   UNL     1      35.056 -19.502 -19.222  0.00  0.00    -0.079 HD
ENDBRANCH  19  21
ENDBRANCH  18  19
ENDBRANCH  16  18
ENDBRANCH  15  16
ENDBRANCH   2  15
TORSDOF 7
ENDMDL
MODEL 7
REMARK VINA RESULT:      -7.9     11.228     15.070
REMARK  Name = 31796
REMARK  7 active torsions:
REMARK  status: ('A' for Active; 'I' for Inactive)
REMARK    1  A    between atoms: C_2  and  C_4
REMARK    2  A    between atoms: C_2  and  O_15
REMARK    3  A    between atoms: C_4  and  C_9
REMARK    4  A    between atoms: O_15  and  C_16
REMARK    5  A    between atoms: C_16  and  C_18
REMARK    6  A    between atoms: C_18  and  C_19
REMARK    7  A    between atoms: C_19  and  N_21
REMARK                            x       y       z     vdW  Elec       q    Type
REMARK                         _______ _______ _______ _____ _____    ______ ____
ROOT
ATOM      1  O   UNL     1      35.976 -22.034 -15.524  0.00  0.00    -0.250 OA
ATOM      2  C   UNL     1      35.348 -23.073 -15.672  0.00  0.00    +0.320 C 
ENDROOT
BRANCH   2   4
ATOM      3  O   UNL     1      37.576 -25.243 -13.776  0.00  0.00    -0.354 OA
ATOM      4  C   UNL     1      35.016 -24.033 -14.547  0.00  0.00    +0.113 C 
ATOM      5  C   UNL     1      35.454 -25.465 -14.951  0.00  0.00    +0.047 C 
ATOM      6  C   UNL     1      35.848 -23.606 -13.310  0.00  0.00    +0.047 C 
ATOM      7  C   UNL     1      36.971 -25.631 -15.006  0.00  0.00    +0.143 C 
ATOM      8  C   UNL     1      37.341 -23.869 -13.483  0.00  0.00    +0.143 C 
BRANCH   4   9
ATOM      9  C   UNL     1      33.495 -23.974 -14.332  0.00  0.00    -0.013 C 
ATOM     10  C   UNL     1      32.837 -22.749 -14.377  0.00  0.00    -0.004 C 
ATOM     11  C   UNL     1      32.783 -25.147 -14.093  0.00  0.00    -0.004 C 
ATOM     12  C   UNL     1      31.456 -22.695 -14.181  0.00  0.00    -0.000 C 
ATOM     13  C   UNL     1      31.403 -25.093 -13.898  0.00  0.00    -0.000 C 
ATOM     14  C   UNL     1      30.740 -23.867 -13.942  0.00  0.00    -0.000 C 
ENDBRANCH   4   9
ENDBRANCH   2   4
BRANCH   2  15
ATOM     15  O   UNL     1      34.840 -23.551 -16.844  0.00  0.00    -0.452 OA
BRANCH  15  16
ATOM     16  C   UNL     1      34.190 -22.583 -17.673  0.00  0.00    +0.167 C 
ATOM     17  C   UNL     1      32.714 -22.943 -17.781  0.00  0.00    +0.047 C 
BRANCH  16  18
ATOM     18  C   UNL     1      34.859 -22.567 -19.050  0.00  0.00    +0.021 C 
BRANCH  18  19
ATOM     19  C   UNL     1      35.996 -21.545 -19.123  0.00  0.00    -0.073 C 
BRANCH  19  21
ATOM     20  O   UNL     1      34.809 -18.733 -22.004  0.00  0.00    -0.358 OA
ATOM     21  N   UNL     1      35.526 -20.308 -19.744  0.00  0.00    +0.390 N 
ATOM     22  C   UNL     1      36.543 -19.763 -20.656  0.00  0.00    -0.045 C 
ATOM     23  C   UNL     1      34.269 -20.533 -20.470  0.00  0.00    -0.045 C 
ATOM     24  C   UNL     1      36.026 -18.480 -21.299  0.00  0.00    +0.119 C 
ATOM     25  C   UNL     1      33.805 -19.232 -21.119  0.00  0.00    +0.119 C 
ATOM     26  H   UNL     1      35.358 -19.630 -19.001  0.00  0.00    -0.079 HD
ENDBRANCH  19  21
ENDBRANCH  18  19
ENDBRANCH  16  18
ENDBRANCH  15  16
ENDBRANCH   2  15
TORSDOF 7
ENDMDL
MODEL 8
REMARK VINA RESULT:      -7.7     11.408     15.248
REMARK  Name = 31796
REMARK  7 active torsions:
REMARK  status: ('A' for Active; 'I' for Inactive)
REMARK    1  A    between atoms: C_2  and  C_4
REMARK    2  A    between atoms: C_2  and  O_15
REMARK    3  A    between atoms: C_4  and  C_9
REMARK    4  A    between atoms: O_15  and  C_16
REMARK    5  A    between atoms: C_16  and  C_18
REMARK    6  A    between atoms: C_18  and  C_19
REMARK    7  A    between atoms: C_19  and  N_21
REMARK                            x       y       z     vdW  Elec       q    Type
REMARK                         _______ _______ _______ _____ _____    ______ ____
ROOT
ATOM      1  O   UNL     1      37.207 -22.874 -13.983  0.00  0.00    -0.250 OA
ATOM      2  C   UNL     1      36.187 -23.129 -14.608  0.00  0.00    +0.320 C 
ENDROOT
BRANCH   2   4
ATOM      3  O   UNL     1      37.052 -26.467 -13.434  0.00  0.00    -0.354 OA
ATOM      4  C   UNL     1      35.274 -24.300 -14.303  0.00  0.00    +0.113 C 
ATOM      5  C   UNL     1      35.672 -25.504 -15.196  0.00  0.00    +0.047 C 
ATOM      6  C   UNL     1      35.508 -24.700 -12.823  0.00  0.00    +0.047 C 
ATOM      7  C   UNL     1      37.021 -26.110 -14.812  0.00  0.00    +0.143 C 
ATOM      8  C   UNL     1      36.877 -25.333 -12.591  0.00  0.00    +0.143 C 
BRANCH   4   9
ATOM      9  C   UNL     1      33.837 -23.851 -14.613  0.00  0.00    -0.013 C 
ATOM     10  C   UNL     1      32.986 -23.488 -13.573  0.00  0.00    -0.004 C 
ATOM     11  C   UNL     1      33.394 -23.807 -15.933  0.00  0.00    -0.004 C 
ATOM     12  C   UNL     1      31.681 -23.080 -13.854  0.00  0.00    -0.000 C 
ATOM     13  C   UNL     1      32.090 -23.399 -16.213  0.00  0.00    -0.000 C 
ATOM     14  C   UNL     1      31.234 -23.036 -15.174  0.00  0.00    -0.000 C 
ENDBRANCH   4   9
ENDBRANCH   2   4
BRANCH   2  15
ATOM     15  O   UNL     1      35.690 -22.428 -15.667  0.00  0.00    -0.452 OA
BRANCH  15  16
ATOM     16  C   UNL     1      36.547 -22.349 -16.809  0.00  0.00    +0.167 C 
ATOM     17  C   UNL     1      37.540 -21.212 -16.601  0.00  0.00    +0.047 C 
BRANCH  16  18
ATOM     18  C   UNL     1      35.697 -22.119 -18.063  0.00  0.00    +0.021 C 
BRANCH  18  19
ATOM     19  C   UNL     1      36.443 -21.301 -19.120  0.00  0.00    -0.073 C 
BRANCH  19  21
ATOM     20  O   UNL     1      34.057 -19.231 -21.883  0.00  0.00    -0.358 OA
ATOM     21  N   UNL     1      35.553 -20.306 -19.712  0.00  0.00    +0.390 N 
ATOM     22  C   UNL     1      36.210 -19.620 -20.834  0.00  0.00    -0.045 C 
ATOM     23  C   UNL     1      34.302 -20.929 -20.167  0.00  0.00    -0.045 C 
ATOM     24  C   UNL     1      35.258 -18.595 -21.443  0.00  0.00    +0.119 C 
ATOM     25  C   UNL     1      33.394 -19.873 -20.793  0.00  0.00    +0.119 C 
ATOM     26  H   UNL     1      35.332 -19.617 -18.994  0.00  0.00    -0.079 HD
ENDBRANCH  19  21
ENDBRANCH  18  19
ENDBRANCH  16  18
ENDBRANCH  15  16
ENDBRANCH   2  15
TORSDOF 7
ENDMDL
MODEL 9
REMARK VINA RESULT:      -7.7     14.185     17.419
REMARK  Name = 31796
REMARK  7 active torsions:
REMARK  status: ('A' for Active; 'I' for Inactive)
REMARK    1  A    between atoms: C_2  and  C_4
REMARK    2  A    between atoms: C_2  and  O_15
REMARK    3  A    between atoms: C_4  and  C_9
REMARK    4  A    between atoms: O_15  and  C_16
REMARK    5  A    between atoms: C_16  and  C_18
REMARK    6  A    between atoms: C_18  and  C_19
REMARK    7  A    between atoms: C_19  and  N_21
REMARK                            x       y       z     vdW  Elec       q    Type
REMARK                         _______ _______ _______ _____ _____    ______ ____
ROOT
ATOM      1  O   UNL     1      37.905 -23.034 -12.943  0.00  0.00    -0.250 OA
ATOM      2  C   UNL     1      37.351 -23.996 -13.459  0.00  0.00    +0.320 C 
ENDROOT
BRANCH   2   4
ATOM      3  O   UNL     1      39.320 -26.849 -14.578  0.00  0.00    -0.354 OA
ATOM      4  C   UNL     1      37.622 -24.474 -14.872  0.00  0.00    +0.113 C 
ATOM      5  C   UNL     1      39.152 -24.481 -15.125  0.00  0.00    +0.047 C 
ATOM      6  C   UNL     1      37.109 -25.934 -14.976  0.00  0.00    +0.047 C 
ATOM      7  C   UNL     1      39.881 -25.563 -14.332  0.00  0.00    +0.143 C 
ATOM      8  C   UNL     1      37.957 -26.916 -14.171  0.00  0.00    +0.143 C 
BRANCH   4   9
ATOM      9  C   UNL     1      36.921 -23.494 -15.827  0.00  0.00    -0.013 C 
ATOM     10  C   UNL     1      37.648 -22.463 -16.416  0.00  0.00    -0.004 C 
ATOM     11  C   UNL     1      35.563 -23.641 -16.098  0.00  0.00    -0.004 C 
ATOM     12  C   UNL     1      37.012 -21.573 -17.283  0.00  0.00    -0.000 C 
ATOM     13  C   UNL     1      34.928 -22.752 -16.964  0.00  0.00    -0.000 C 
ATOM     14  C   UNL     1      35.653 -21.718 -17.556  0.00  0.00    -0.000 C 
ENDBRANCH   4   9
ENDBRANCH   2   4
BRANCH   2  15
ATOM     15  O   UNL     1      36.414 -24.798 -12.878  0.00  0.00    -0.452 OA
BRANCH  15  16
ATOM     16  C   UNL     1      35.313 -24.117 -12.270  0.00  0.00    +0.167 C 
ATOM     17  C   UNL     1      35.349 -24.368 -10.768  0.00  0.00    +0.047 C 
BRANCH  16  18
ATOM     18  C   UNL     1      34.005 -24.623 -12.886  0.00  0.00    +0.021 C 
BRANCH  18  19
ATOM     19  C   UNL     1      33.156 -23.480 -13.449  0.00  0.00    -0.073 C 
BRANCH  19  21
ATOM     20  O   UNL     1      29.530 -24.332 -15.382  0.00  0.00    -0.358 OA
ATOM     21  N   UNL     1      32.184 -23.997 -14.410  0.00  0.00    +0.390 N 
ATOM     22  C   UNL     1      31.234 -24.905 -13.753  0.00  0.00    -0.045 C 
ATOM     23  C   UNL     1      31.460 -22.897 -15.062  0.00  0.00    -0.045 C 
ATOM     24  C   UNL     1      30.223 -25.422 -14.773  0.00  0.00    +0.119 C 
ATOM     25  C   UNL     1      30.443 -23.461 -16.051  0.00  0.00    +0.119 C 
ATOM     26  H   UNL     1      32.695 -24.519 -15.121  0.00  0.00    -0.079 HD
ENDBRANCH  19  21
ENDBRANCH  18  19
ENDBRANCH  16  18
ENDBRANCH  15  16
ENDBRANCH   2  15
TORSDOF 7
ENDMDL
