MODEL 1
REMARK VINA RESULT:      -9.7      0.000      0.000
REMARK  Name = 28145931
REMARK  8 active torsions:
REMARK  status: ('A' for Active; 'I' for Inactive)
REMARK    1  A    between atoms: N_1  and  C_9
REMARK    2  A    between atoms: N_2  and  C_16
REMARK    3  A    between atoms: C_9  and  C_10
REMARK    4  A    between atoms: C_10  and  O_11
REMARK    5  A    between atoms: O_11  and  C_12
REMARK    6  A    between atoms: C_12  and  C_15
REMARK    7  A    between atoms: C_16  and  C_18
REMARK    8  A    between atoms: C_16  and  C_24
REMARK                            x       y       z     vdW  Elec       q    Type
REMARK                         _______ _______ _______ _____ _____    ______ ____
ROOT
ATOM      1  N   UNL     1      30.566 -24.091 -14.776  0.00  0.00    +0.386 N 
ATOM      2  N   UNL     1      33.315 -23.748 -15.558  0.00  0.00    +0.390 N 
ATOM      3  C   UNL     1      30.933 -23.793 -16.208  0.00  0.00    -0.101 C 
ATOM      4  C   UNL     1      31.671 -24.838 -14.074  0.00  0.00    -0.101 C 
ATOM      5  C   UNL     1      32.241 -23.009 -16.235  0.00  0.00    -0.100 C 
ATOM      6  C   UNL     1      32.958 -24.026 -14.161  0.00  0.00    -0.100 C 
ATOM      7  H   UNL     1      30.450 -23.198 -14.298  0.00  0.00    -0.080 HD
ATOM      8  H   UNL     1      33.440 -24.639 -16.039  0.00  0.00    -0.079 HD
ENDROOT
BRANCH   1   9
ATOM      9  C   UNL     1      29.247 -24.804 -14.671  0.00  0.00    -0.045 C 
BRANCH   9  10
ATOM     10  C   UNL     1      28.409 -24.489 -15.895  0.00  0.00    +0.120 C 
BRANCH  10  11
ATOM     11  O   UNL     1      27.694 -23.279 -15.683  0.00  0.00    -0.345 OA
BRANCH  11  12
ATOM     12  C   UNL     1      27.715 -22.451 -16.838  0.00  0.00    +0.256 C 
BRANCH  12  15
ATOM     13  O   UNL     1      26.333 -20.783 -17.755  0.00  0.00    -0.243 OA
ATOM     14  O   UNL     1      25.570 -22.006 -15.979  0.00  0.00    -0.243 OA
ATOM     15  C   UNL     1      26.412 -21.668 -16.858  0.00  0.00    +0.394 C 
ENDBRANCH  12  15
ENDBRANCH  11  12
ENDBRANCH  10  11
ENDBRANCH   9  10
ENDBRANCH   1   9
BRANCH   2  16
ATOM     16  C   UNL     1      34.573 -23.005 -15.630  0.00  0.00    -0.012 C 
BRANCH  16  18
ATOM     17 CL   UNL     1      39.128 -25.939 -12.978  0.00  0.00    -0.082 Cl
ATOM     18  C   UNL     1      35.722 -23.745 -14.961  0.00  0.00    -0.038 C 
ATOM     19  C   UNL     1      36.035 -25.047 -15.353  0.00  0.00    -0.005 C 
ATOM     20  C   UNL     1      36.462 -23.122 -13.955  0.00  0.00    -0.005 C 
ATOM     21  C   UNL     1      37.089 -25.725 -14.740  0.00  0.00    +0.011 C 
ATOM     22  C   UNL     1      37.515 -23.801 -13.342  0.00  0.00    +0.011 C 
ATOM     23  C   UNL     1      37.828 -25.103 -13.735  0.00  0.00    +0.058 C 
ENDBRANCH  16  18
BRANCH  16  24
ATOM     24  C   UNL     1      34.920 -22.585 -17.050  0.00  0.00    -0.038 C 
ATOM     25  C   UNL     1      36.154 -21.991 -17.319  0.00  0.00    -0.006 C 
ATOM     26  C   UNL     1      34.007 -22.796 -18.082  0.00  0.00    -0.006 C 
ATOM     27  C   UNL     1      36.473 -21.606 -18.622  0.00  0.00    -0.000 C 
ATOM     28  C   UNL     1      34.326 -22.411 -19.385  0.00  0.00    -0.000 C 
ATOM     29  C   UNL     1      35.559 -21.816 -19.655  0.00  0.00    -0.000 C 
ENDBRANCH  16  24
ENDBRANCH   2  16
TORSDOF 8
ENDMDL
MODEL 2
REMARK VINA RESULT:      -9.3      4.085      6.571
REMARK  Name = 28145931
REMARK  8 active torsions:
REMARK  status: ('A' for Active; 'I' for Inactive)
REMARK    1  A    between atoms: N_1  and  C_9
REMARK    2  A    between atoms: N_2  and  C_16
REMARK    3  A    between atoms: C_9  and  C_10
REMARK    4  A    between atoms: C_10  and  O_11
REMARK    5  A    between atoms: O_11  and  C_12
REMARK    6  A    between atoms: C_12  and  C_15
REMARK    7  A    between atoms: C_16  and  C_18
REMARK    8  A    between atoms: C_16  and  C_24
REMARK                            x       y       z     vdW  Elec       q    Type
REMARK                         _______ _______ _______ _____ _____    ______ ____
ROOT
ATOM      1  N   UNL     1      36.120 -21.463 -19.442  0.00  0.00    +0.386 N 
ATOM      2  N   UNL     1      34.672 -22.562 -17.208  0.00  0.00    +0.390 N 
ATOM      3  C   UNL     1      34.614 -21.541 -19.456  0.00  0.00    -0.101 C 
ATOM      4  C   UNL     1      36.645 -21.328 -18.035  0.00  0.00    -0.101 C 
ATOM      5  C   UNL     1      34.165 -22.706 -18.580  0.00  0.00    -0.100 C 
ATOM      6  C   UNL     1      36.139 -22.498 -17.198  0.00  0.00    -0.100 C 
ATOM      7  H   UNL     1      36.475 -22.342 -19.817  0.00  0.00    -0.080 HD
ATOM      8  H   UNL     1      34.312 -21.688 -16.827  0.00  0.00    -0.079 HD
ENDROOT
BRANCH   1   9
ATOM      9  C   UNL     1      36.635 -20.376 -20.342  0.00  0.00    -0.045 C 
BRANCH   9  10
ATOM     10  C   UNL     1      35.463 -19.679 -21.006  0.00  0.00    +0.120 C 
BRANCH  10  11
ATOM     11  O   UNL     1      35.472 -18.301 -20.660  0.00  0.00    -0.345 OA
BRANCH  11  12
ATOM     12  C   UNL     1      34.428 -17.592 -21.314  0.00  0.00    +0.256 C 
BRANCH  12  15
ATOM     13  O   UNL     1      35.125 -15.718 -22.554  0.00  0.00    -0.243 OA
ATOM     14  O   UNL     1      34.866 -15.519 -20.290  0.00  0.00    -0.243 OA
ATOM     15  C   UNL     1      34.851 -16.134 -21.394  0.00  0.00    +0.394 C 
ENDBRANCH  12  15
ENDBRANCH  11  12
ENDBRANCH  10  11
ENDBRANCH   9  10
ENDBRANCH   1   9
BRANCH   2  16
ATOM     16  C   UNL     1      34.200 -23.663 -16.369  0.00  0.00    -0.012 C 
BRANCH  16  18
ATOM     17 CL   UNL     1      38.172 -25.149 -12.080  0.00  0.00    -0.082 Cl
ATOM     18  C   UNL     1      35.202 -24.038 -15.287  0.00  0.00    -0.038 C 
ATOM     19  C   UNL     1      35.696 -25.340 -15.216  0.00  0.00    -0.005 C 
ATOM     20  C   UNL     1      35.626 -23.079 -14.366  0.00  0.00    -0.005 C 
ATOM     21  C   UNL     1      36.615 -25.684 -14.224  0.00  0.00    +0.011 C 
ATOM     22  C   UNL     1      36.544 -23.424 -13.374  0.00  0.00    +0.011 C 
ATOM     23  C   UNL     1      37.039 -24.726 -13.303  0.00  0.00    +0.058 C 
ENDBRANCH  16  18
BRANCH  16  24
ATOM     24  C   UNL     1      32.816 -23.401 -15.793  0.00  0.00    -0.038 C 
ATOM     25  C   UNL     1      31.751 -23.104 -16.644  0.00  0.00    -0.006 C 
ATOM     26  C   UNL     1      32.612 -23.460 -14.415  0.00  0.00    -0.006 C 
ATOM     27  C   UNL     1      30.482 -22.864 -16.116  0.00  0.00    -0.000 C 
ATOM     28  C   UNL     1      31.342 -23.220 -13.887  0.00  0.00    -0.000 C 
ATOM     29  C   UNL     1      30.278 -22.922 -14.738  0.00  0.00    -0.000 C 
ENDBRANCH  16  24
ENDBRANCH   2  16
TORSDOF 8
ENDMDL
MODEL 3
REMARK VINA RESULT:      -9.2      9.410     12.154
REMARK  Name = 28145931
REMARK  8 active torsions:
REMARK  status: ('A' for Active; 'I' for Inactive)
REMARK    1  A    between atoms: N_1  and  C_9
REMARK    2  A    between atoms: N_2  and  C_16
REMARK    3  A    between atoms: C_9  and  C_10
REMARK    4  A    between atoms: C_10  and  O_11
REMARK    5  A    between atoms: O_11  and  C_12
REMARK    6  A    between atoms: C_12  and  C_15
REMARK    7  A    between atoms: C_16  and  C_18
REMARK    8  A    between atoms: C_16  and  C_24
REMARK                            x       y       z     vdW  Elec       q    Type
REMARK                         _______ _______ _______ _____ _____    ______ ____
ROOT
ATOM      1  N   UNL     1      34.950 -17.587 -21.926  0.00  0.00    +0.386 N 
ATOM      2  N   UNL     1      33.795 -15.033 -22.583  0.00  0.00    +0.390 N 
ATOM      3  C   UNL     1      35.448 -16.792 -23.106  0.00  0.00    -0.101 C 
ATOM      4  C   UNL     1      34.405 -16.682 -20.850  0.00  0.00    -0.101 C 
ATOM      5  C   UNL     1      34.314 -15.918 -23.634  0.00  0.00    -0.100 C 
ATOM      6  C   UNL     1      33.301 -15.812 -21.441  0.00  0.00    -0.100 C 
ATOM      7  H   UNL     1      34.180 -18.170 -22.253  0.00  0.00    -0.080 HD
ATOM      8  H   UNL     1      34.561 -14.442 -22.259  0.00  0.00    -0.079 HD
ENDROOT
BRANCH   1   9
ATOM      9  C   UNL     1      35.999 -18.524 -21.397  0.00  0.00    -0.045 C 
BRANCH   9  10
ATOM     10  C   UNL     1      35.416 -19.920 -21.294  0.00  0.00    +0.120 C 
BRANCH  10  11
ATOM     11  O   UNL     1      34.987 -20.160 -19.961  0.00  0.00    -0.345 OA
BRANCH  11  12
ATOM     12  C   UNL     1      35.235 -21.503 -19.566  0.00  0.00    +0.256 C 
BRANCH  12  15
ATOM     13  O   UNL     1      32.913 -21.366 -19.210  0.00  0.00    -0.243 OA
ATOM     14  O   UNL     1      33.905 -23.426 -19.300  0.00  0.00    -0.243 OA
ATOM     15  C   UNL     1      33.885 -22.163 -19.333  0.00  0.00    +0.394 C 
ENDBRANCH  12  15
ENDBRANCH  11  12
ENDBRANCH  10  11
ENDBRANCH   9  10
ENDBRANCH   1   9
BRANCH   2  16
ATOM     16  C   UNL     1      32.739 -14.171 -23.113  0.00  0.00    -0.012 C 
BRANCH  16  18
ATOM     17 CL   UNL     1      30.848 -10.105 -19.079  0.00  0.00    -0.082 Cl
ATOM     18  C   UNL     1      32.262 -13.145 -22.095  0.00  0.00    -0.038 C 
ATOM     19  C   UNL     1      32.501 -13.349 -20.736  0.00  0.00    -0.005 C 
ATOM     20  C   UNL     1      31.585 -12.002 -22.522  0.00  0.00    -0.005 C 
ATOM     21  C   UNL     1      32.064 -12.409 -19.803  0.00  0.00    +0.011 C 
ATOM     22  C   UNL     1      31.148 -11.062 -21.588  0.00  0.00    +0.011 C 
ATOM     23  C   UNL     1      31.387 -11.266 -20.229  0.00  0.00    +0.058 C 
ENDBRANCH  16  18
BRANCH  16  24
ATOM     24  C   UNL     1      33.127 -13.521 -24.433  0.00  0.00    -0.038 C 
ATOM     25  C   UNL     1      32.794 -14.138 -25.639  0.00  0.00    -0.006 C 
ATOM     26  C   UNL     1      33.814 -12.308 -24.437  0.00  0.00    -0.006 C 
ATOM     27  C   UNL     1      33.150 -13.542 -26.849  0.00  0.00    -0.000 C 
ATOM     28  C   UNL     1      34.170 -11.712 -25.648  0.00  0.00    -0.000 C 
ATOM     29  C   UNL     1      33.838 -12.329 -26.853  0.00  0.00    -0.000 C 
ENDBRANCH  16  24
ENDBRANCH   2  16
TORSDOF 8
ENDMDL
MODEL 4
REMARK VINA RESULT:      -8.9      4.490      7.281
REMARK  Name = 28145931
REMARK  8 active torsions:
REMARK  status: ('A' for Active; 'I' for Inactive)
REMARK    1  A    between atoms: N_1  and  C_9
REMARK    2  A    between atoms: N_2  and  C_16
REMARK    3  A    between atoms: C_9  and  C_10
REMARK    4  A    between atoms: C_10  and  O_11
REMARK    5  A    between atoms: O_11  and  C_12
REMARK    6  A    between atoms: C_12  and  C_15
REMARK    7  A    between atoms: C_16  and  C_18
REMARK    8  A    between atoms: C_16  and  C_24
REMARK                            x       y       z     vdW  Elec       q    Type
REMARK                         _______ _______ _______ _____ _____    ______ ____
ROOT
ATOM      1  N   UNL     1      35.606 -21.555 -18.690  0.00  0.00    +0.386 N 
ATOM      2  N   UNL     1      35.144 -23.114 -16.313  0.00  0.00    +0.390 N 
ATOM      3  C   UNL     1      36.742 -21.917 -17.767  0.00  0.00    -0.101 C 
ATOM      4  C   UNL     1      34.514 -22.593 -18.643  0.00  0.00    -0.101 C 
ATOM      5  C   UNL     1      36.200 -22.093 -16.352  0.00  0.00    -0.100 C 
ATOM      6  C   UNL     1      34.035 -22.751 -17.204  0.00  0.00    -0.100 C 
ATOM      7  H   UNL     1      35.208 -20.678 -18.354  0.00  0.00    -0.080 HD
ATOM      8  H   UNL     1      35.541 -23.994 -16.641  0.00  0.00    -0.079 HD
ENDROOT
BRANCH   1   9
ATOM      9  C   UNL     1      36.081 -21.298 -20.092  0.00  0.00    -0.045 C 
BRANCH   9  10
ATOM     10  C   UNL     1      35.212 -20.229 -20.726  0.00  0.00    +0.120 C 
BRANCH  10  11
ATOM     11  O   UNL     1      35.828 -18.959 -20.567  0.00  0.00    -0.345 OA
BRANCH  11  12
ATOM     12  C   UNL     1      35.769 -18.197 -21.766  0.00  0.00    +0.256 C 
BRANCH  12  15
ATOM     13  O   UNL     1      34.321 -16.459 -22.414  0.00  0.00    -0.243 OA
ATOM     14  O   UNL     1      35.133 -16.491 -20.275  0.00  0.00    -0.243 OA
ATOM     15  C   UNL     1      35.001 -16.922 -21.455  0.00  0.00    +0.394 C 
ENDBRANCH  12  15
ENDBRANCH  11  12
ENDBRANCH  10  11
ENDBRANCH   9  10
ENDBRANCH   1   9
BRANCH   2  16
ATOM     16  C   UNL     1      34.664 -23.303 -14.945  0.00  0.00    -0.012 C 
BRANCH  16  18
ATOM     17 CL   UNL     1      28.893 -25.050 -14.757  0.00  0.00    -0.082 Cl
ATOM     18  C   UNL     1      33.208 -23.744 -14.897  0.00  0.00    -0.038 C 
ATOM     19  C   UNL     1      32.806 -24.724 -13.990  0.00  0.00    -0.005 C 
ATOM     20  C   UNL     1      32.276 -23.168 -15.762  0.00  0.00    -0.005 C 
ATOM     21  C   UNL     1      31.471 -25.128 -13.947  0.00  0.00    +0.011 C 
ATOM     22  C   UNL     1      30.942 -23.573 -15.718  0.00  0.00    +0.011 C 
ATOM     23  C   UNL     1      30.540 -24.553 -14.811  0.00  0.00    +0.058 C 
ENDBRANCH  16  18
BRANCH  16  24
ATOM     24  C   UNL     1      35.562 -24.227 -14.137  0.00  0.00    -0.038 C 
ATOM     25  C   UNL     1      36.081 -25.383 -14.722  0.00  0.00    -0.006 C 
ATOM     26  C   UNL     1      35.869 -23.919 -12.812  0.00  0.00    -0.006 C 
ATOM     27  C   UNL     1      36.905 -26.231 -13.981  0.00  0.00    -0.000 C 
ATOM     28  C   UNL     1      36.693 -24.767 -12.071  0.00  0.00    -0.000 C 
ATOM     29  C   UNL     1      37.211 -25.922 -12.656  0.00  0.00    -0.000 C 
ENDBRANCH  16  24
ENDBRANCH   2  16
TORSDOF 8
ENDMDL
MODEL 5
REMARK VINA RESULT:      -8.9      4.887      7.946
REMARK  Name = 28145931
REMARK  8 active torsions:
REMARK  status: ('A' for Active; 'I' for Inactive)
REMARK    1  A    between atoms: N_1  and  C_9
REMARK    2  A    between atoms: N_2  and  C_16
REMARK    3  A    between atoms: C_9  and  C_10
REMARK    4  A    between atoms: C_10  and  O_11
REMARK    5  A    between atoms: O_11  and  C_12
REMARK    6  A    between atoms: C_12  and  C_15
REMARK    7  A    between atoms: C_16  and  C_18
REMARK    8  A    between atoms: C_16  and  C_24
REMARK                            x       y       z     vdW  Elec       q    Type
REMARK                         _______ _______ _______ _____ _____    ______ ____
ROOT
ATOM      1  N   UNL     1      36.488 -25.321 -13.422  0.00  0.00    +0.386 N 
ATOM      2  N   UNL     1      34.060 -24.281 -14.569  0.00  0.00    +0.390 N 
ATOM      3  C   UNL     1      35.388 -24.774 -12.546  0.00  0.00    -0.101 C 
ATOM      4  C   UNL     1      35.932 -25.885 -14.705  0.00  0.00    -0.101 C 
ATOM      5  C   UNL     1      34.607 -23.721 -13.325  0.00  0.00    -0.100 C 
ATOM      6  C   UNL     1      35.135 -24.802 -15.423  0.00  0.00    -0.100 C 
ATOM      7  H   UNL     1      37.097 -24.543 -13.670  0.00  0.00    -0.080 HD
ATOM      8  H   UNL     1      33.443 -25.055 -14.324  0.00  0.00    -0.079 HD
ENDROOT
BRANCH   1   9
ATOM      9  C   UNL     1      37.344 -26.317 -12.692  0.00  0.00    -0.045 C 
BRANCH   9  10
ATOM     10  C   UNL     1      38.476 -25.588 -11.996  0.00  0.00    +0.120 C 
BRANCH  10  11
ATOM     11  O   UNL     1      39.180 -24.791 -12.939  0.00  0.00    -0.345 OA
BRANCH  11  12
ATOM     12  C   UNL     1      40.084 -25.572 -13.709  0.00  0.00    +0.256 C 
BRANCH  12  15
ATOM     13  O   UNL     1      40.519 -25.899 -15.999  0.00  0.00    -0.243 OA
ATOM     14  O   UNL     1      39.085 -24.233 -15.366  0.00  0.00    -0.243 OA
ATOM     15  C   UNL     1      39.878 -25.196 -15.168  0.00  0.00    +0.394 C 
ENDBRANCH  12  15
ENDBRANCH  11  12
ENDBRANCH  10  11
ENDBRANCH   9  10
ENDBRANCH   1   9
BRANCH   2  16
ATOM     16  C   UNL     1      33.277 -23.273 -15.284  0.00  0.00    -0.012 C 
BRANCH  16  18
ATOM     17 CL   UNL     1      35.845 -21.640 -20.492  0.00  0.00    -0.082 Cl
ATOM     18  C   UNL     1      33.925 -22.861 -16.598  0.00  0.00    -0.038 C 
ATOM     19  C   UNL     1      35.239 -22.392 -16.610  0.00  0.00    -0.005 C 
ATOM     20  C   UNL     1      33.205 -22.952 -17.790  0.00  0.00    -0.005 C 
ATOM     21  C   UNL     1      35.832 -22.014 -17.815  0.00  0.00    +0.011 C 
ATOM     22  C   UNL     1      33.799 -22.574 -18.993  0.00  0.00    +0.011 C 
ATOM     23  C   UNL     1      35.113 -22.105 -19.006  0.00  0.00    +0.058 C 
ENDBRANCH  16  18
BRANCH  16  24
ATOM     24  C   UNL     1      31.828 -23.692 -15.475  0.00  0.00    -0.038 C 
ATOM     25  C   UNL     1      31.382 -24.914 -14.969  0.00  0.00    -0.006 C 
ATOM     26  C   UNL     1      30.943 -22.855 -16.153  0.00  0.00    -0.006 C 
ATOM     27  C   UNL     1      30.052 -25.298 -15.143  0.00  0.00    -0.000 C 
ATOM     28  C   UNL     1      29.613 -23.239 -16.328  0.00  0.00    -0.000 C 
ATOM     29  C   UNL     1      29.168 -24.461 -15.822  0.00  0.00    -0.000 C 
ENDBRANCH  16  24
ENDBRANCH   2  16
TORSDOF 8
ENDMDL
MODEL 6
REMARK VINA RESULT:      -8.8     13.236     16.005
REMARK  Name = 28145931
REMARK  8 active torsions:
REMARK  status: ('A' for Active; 'I' for Inactive)
REMARK    1  A    between atoms: N_1  and  C_9
REMARK    2  A    between atoms: N_2  and  C_16
REMARK    3  A    between atoms: C_9  and  C_10
REMARK    4  A    between atoms: C_10  and  O_11
REMARK    5  A    between atoms: O_11  and  C_12
REMARK    6  A    between atoms: C_12  and  C_15
REMARK    7  A    between atoms: C_16  and  C_18
REMARK    8  A    between atoms: C_16  and  C_24
REMARK                            x       y       z     vdW  Elec       q    Type
REMARK                         _______ _______ _______ _____ _____    ______ ____
ROOT
ATOM      1  N   UNL     1      33.621 -13.426 -25.376  0.00  0.00    +0.386 N 
ATOM      2  N   UNL     1      32.846 -11.084 -23.891  0.00  0.00    +0.390 N 
ATOM      3  C   UNL     1      32.660 -13.525 -24.217  0.00  0.00    -0.101 C 
ATOM      4  C   UNL     1      33.530 -12.078 -26.045  0.00  0.00    -0.101 C 
ATOM      5  C   UNL     1      32.946 -12.394 -23.234  0.00  0.00    -0.100 C 
ATOM      6  C   UNL     1      33.791 -10.988 -25.011  0.00  0.00    -0.100 C 
ATOM      7  H   UNL     1      34.564 -13.517 -24.999  0.00  0.00    -0.080 HD
ATOM      8  H   UNL     1      31.901 -10.986 -24.261  0.00  0.00    -0.079 HD
ENDROOT
BRANCH   1   9
ATOM      9  C   UNL     1      33.441 -14.553 -26.352  0.00  0.00    -0.045 C 
BRANCH   9  10
ATOM     10  C   UNL     1      33.388 -15.867 -25.596  0.00  0.00    +0.120 C 
BRANCH  10  11
ATOM     11  O   UNL     1      34.623 -16.553 -25.748  0.00  0.00    -0.345 OA
BRANCH  11  12
ATOM     12  C   UNL     1      34.804 -17.533 -24.734  0.00  0.00    +0.256 C 
BRANCH  12  15
ATOM     13  O   UNL     1      35.378 -15.634 -23.468  0.00  0.00    -0.243 OA
ATOM     14  O   UNL     1      34.463 -17.442 -22.407  0.00  0.00    -0.243 OA
ATOM     15  C   UNL     1      34.893 -16.798 -23.406  0.00  0.00    +0.394 C 
ENDBRANCH  12  15
ENDBRANCH  11  12
ENDBRANCH  10  11
ENDBRANCH   9  10
ENDBRANCH   1   9
BRANCH   2  16
ATOM     16  C   UNL     1      33.079 -10.008 -22.928  0.00  0.00    -0.012 C 
BRANCH  16  18
ATOM     17 CL   UNL     1      32.329  -4.541 -25.365  0.00  0.00    -0.082 Cl
ATOM     18  C   UNL     1      32.890  -8.629 -23.543  0.00  0.00    -0.038 C 
ATOM     19  C   UNL     1      34.001  -7.839 -23.837  0.00  0.00    -0.005 C 
ATOM     20  C   UNL     1      31.605  -8.155 -23.811  0.00  0.00    -0.005 C 
ATOM     21  C   UNL     1      33.828  -6.575 -24.401  0.00  0.00    +0.011 C 
ATOM     22  C   UNL     1      31.433  -6.891 -24.374  0.00  0.00    +0.011 C 
ATOM     23  C   UNL     1      32.544  -6.100 -24.669  0.00  0.00    +0.058 C 
ENDBRANCH  16  18
BRANCH  16  24
ATOM     24  C   UNL     1      32.261 -10.178 -21.657  0.00  0.00    -0.038 C 
ATOM     25  C   UNL     1      32.514  -9.367 -20.550  0.00  0.00    -0.006 C 
ATOM     26  C   UNL     1      31.256 -11.143 -21.599  0.00  0.00    -0.006 C 
ATOM     27  C   UNL     1      31.763  -9.523 -19.384  0.00  0.00    -0.000 C 
ATOM     28  C   UNL     1      30.505 -11.299 -20.433  0.00  0.00    -0.000 C 
ATOM     29  C   UNL     1      30.759 -10.489 -19.326  0.00  0.00    -0.000 C 
ENDBRANCH  16  24
ENDBRANCH   2  16
TORSDOF 8
ENDMDL
MODEL 7
REMARK VINA RESULT:      -8.8     10.452     13.240
REMARK  Name = 28145931
REMARK  8 active torsions:
REMARK  status: ('A' for Active; 'I' for Inactive)
REMARK    1  A    between atoms: N_1  and  C_9
REMARK    2  A    between atoms: N_2  and  C_16
REMARK    3  A    between atoms: C_9  and  C_10
REMARK    4  A    between atoms: C_10  and  O_11
REMARK    5  A    between atoms: O_11  and  C_12
REMARK    6  A    between atoms: C_12  and  C_15
REMARK    7  A    between atoms: C_16  and  C_18
REMARK    8  A    between atoms: C_16  and  C_24
REMARK                            x       y       z     vdW  Elec       q    Type
REMARK                         _______ _______ _______ _____ _____    ______ ____
ROOT
ATOM      1  N   UNL     1      34.916 -16.334 -24.321  0.00  0.00    +0.386 N 
ATOM      2  N   UNL     1      33.080 -14.159 -23.886  0.00  0.00    +0.390 N 
ATOM      3  C   UNL     1      34.759 -15.713 -22.956  0.00  0.00    -0.101 C 
ATOM      4  C   UNL     1      33.643 -16.222 -25.121  0.00  0.00    -0.101 C 
ATOM      5  C   UNL     1      34.327 -14.259 -23.115  0.00  0.00    -0.100 C 
ATOM      6  C   UNL     1      33.241 -14.755 -25.219  0.00  0.00    -0.100 C 
ATOM      7  H   UNL     1      35.634 -15.806 -24.816  0.00  0.00    -0.080 HD
ATOM      8  H   UNL     1      32.357 -14.679 -23.390  0.00  0.00    -0.079 HD
ENDROOT
BRANCH   1   9
ATOM      9  C   UNL     1      35.409 -17.751 -24.241  0.00  0.00    -0.045 C 
BRANCH   9  10
ATOM     10  C   UNL     1      35.569 -18.143 -22.785  0.00  0.00    +0.120 C 
BRANCH  10  11
ATOM     11  O   UNL     1      34.712 -19.238 -22.491  0.00  0.00    -0.345 OA
BRANCH  11  12
ATOM     12  C   UNL     1      33.881 -18.964 -21.370  0.00  0.00    +0.256 C 
BRANCH  12  15
ATOM     13  O   UNL     1      34.932 -20.700 -20.179  0.00  0.00    -0.243 OA
ATOM     14  O   UNL     1      32.647 -20.656 -20.296  0.00  0.00    -0.243 OA
ATOM     15  C   UNL     1      33.813 -20.233 -20.535  0.00  0.00    +0.394 C 
ENDBRANCH  12  15
ENDBRANCH  11  12
ENDBRANCH  10  11
ENDBRANCH   9  10
ENDBRANCH   1   9
BRANCH   2  16
ATOM     16  C   UNL     1      32.654 -12.764 -23.994  0.00  0.00    -0.012 C 
BRANCH  16  18
ATOM     17 CL   UNL     1      31.051 -10.431 -18.668  0.00  0.00    -0.082 Cl
ATOM     18  C   UNL     1      32.249 -12.176 -22.650  0.00  0.00    -0.038 C 
ATOM     19  C   UNL     1      32.231 -12.983 -21.513  0.00  0.00    -0.005 C 
ATOM     20  C   UNL     1      31.896 -10.829 -22.556  0.00  0.00    -0.005 C 
ATOM     21  C   UNL     1      31.860 -12.443 -20.281  0.00  0.00    +0.011 C 
ATOM     22  C   UNL     1      31.526 -10.290 -21.325  0.00  0.00    +0.011 C 
ATOM     23  C   UNL     1      31.507 -11.097 -20.187  0.00  0.00    +0.058 C 
ENDBRANCH  16  18
BRANCH  16  24
ATOM     24  C   UNL     1      33.681 -11.897 -24.706  0.00  0.00    -0.038 C 
ATOM     25  C   UNL     1      33.965 -12.116 -26.054  0.00  0.00    -0.006 C 
ATOM     26  C   UNL     1      34.337 -10.880 -24.012  0.00  0.00    -0.006 C 
ATOM     27  C   UNL     1      34.906 -11.321 -26.708  0.00  0.00    -0.000 C 
ATOM     28  C   UNL     1      35.278 -10.085 -24.666  0.00  0.00    -0.000 C 
ATOM     29  C   UNL     1      35.563 -10.305 -26.013  0.00  0.00    -0.000 C 
ENDBRANCH  16  24
ENDBRANCH   2  16
TORSDOF 8
ENDMDL
MODEL 8
REMARK VINA RESULT:      -8.8      8.100     10.272
REMARK  Name = 28145931
REMARK  8 active torsions:
REMARK  status: ('A' for Active; 'I' for Inactive)
REMARK    1  A    between atoms: N_1  and  C_9
REMARK    2  A    between atoms: N_2  and  C_16
REMARK    3  A    between atoms: C_9  and  C_10
REMARK    4  A    between atoms: C_10  and  O_11
REMARK    5  A    between atoms: O_11  and  C_12
REMARK    6  A    between atoms: C_12  and  C_15
REMARK    7  A    between atoms: C_16  and  C_18
REMARK    8  A    between atoms: C_16  and  C_24
REMARK                            x       y       z     vdW  Elec       q    Type
REMARK                         _______ _______ _______ _____ _____    ______ ____
ROOT
ATOM      1  N   UNL     1      32.801 -14.286 -20.960  0.00  0.00    +0.386 N 
ATOM      2  N   UNL     1      34.371 -16.699 -20.883  0.00  0.00    +0.390 N 
ATOM      3  C   UNL     1      32.182 -15.601 -20.559  0.00  0.00    -0.101 C 
ATOM      4  C   UNL     1      34.269 -14.246 -20.614  0.00  0.00    -0.101 C 
ATOM      5  C   UNL     1      32.944 -16.738 -21.232  0.00  0.00    -0.100 C 
ATOM      6  C   UNL     1      34.972 -15.421 -21.285  0.00  0.00    -0.100 C 
ATOM      7  H   UNL     1      32.725 -14.209 -21.973  0.00  0.00    -0.080 HD
ATOM      8  H   UNL     1      34.452 -16.784 -19.870  0.00  0.00    -0.079 HD
ENDROOT
BRANCH   1   9
ATOM      9  C   UNL     1      32.055 -13.115 -20.385  0.00  0.00    -0.045 C 
BRANCH   9  10
ATOM     10  C   UNL     1      31.775 -12.112 -21.487  0.00  0.00    +0.120 C 
BRANCH  10  11
ATOM     11  O   UNL     1      31.135 -10.968 -20.937  0.00  0.00    -0.345 OA
BRANCH  11  12
ATOM     12  C   UNL     1      31.874  -9.782 -21.195  0.00  0.00    +0.256 C 
BRANCH  12  15
ATOM     13  O   UNL     1      32.336  -7.877 -19.893  0.00  0.00    -0.243 OA
ATOM     14  O   UNL     1      32.190  -9.917 -18.867  0.00  0.00    -0.243 OA
ATOM     15  C   UNL     1      32.165  -9.128 -19.854  0.00  0.00    +0.394 C 
ENDBRANCH  12  15
ENDBRANCH  11  12
ENDBRANCH  10  11
ENDBRANCH   9  10
ENDBRANCH   1   9
BRANCH   2  16
ATOM     16  C   UNL     1      35.081 -17.819 -21.500  0.00  0.00    -0.012 C 
BRANCH  16  18
ATOM     17 CL   UNL     1      33.849 -23.080 -18.819  0.00  0.00    -0.082 Cl
ATOM     18  C   UNL     1      34.770 -19.146 -20.823  0.00  0.00    -0.038 C 
ATOM     19  C   UNL     1      33.445 -19.533 -20.624  0.00  0.00    -0.005 C 
ATOM     20  C   UNL     1      35.811 -19.975 -20.403  0.00  0.00    -0.005 C 
ATOM     21  C   UNL     1      33.160 -20.749 -20.004  0.00  0.00    +0.011 C 
ATOM     22  C   UNL     1      35.525 -21.191 -19.783  0.00  0.00    +0.011 C 
ATOM     23  C   UNL     1      34.200 -21.578 -19.583  0.00  0.00    +0.058 C 
ENDBRANCH  16  18
BRANCH  16  24
ATOM     24  C   UNL     1      34.865 -17.885 -23.004  0.00  0.00    -0.038 C 
ATOM     25  C   UNL     1      34.928 -16.721 -23.770  0.00  0.00    -0.006 C 
ATOM     26  C   UNL     1      34.607 -19.110 -23.618  0.00  0.00    -0.006 C 
ATOM     27  C   UNL     1      34.731 -16.781 -25.150  0.00  0.00    -0.000 C 
ATOM     28  C   UNL     1      34.409 -19.171 -24.998  0.00  0.00    -0.000 C 
ATOM     29  C   UNL     1      34.471 -18.007 -25.764  0.00  0.00    -0.000 C 
ENDBRANCH  16  24
ENDBRANCH   2  16
TORSDOF 8
ENDMDL
MODEL 9
REMARK VINA RESULT:      -8.7     10.767     13.572
REMARK  Name = 28145931
REMARK  8 active torsions:
REMARK  status: ('A' for Active; 'I' for Inactive)
REMARK    1  A    between atoms: N_1  and  C_9
REMARK    2  A    between atoms: N_2  and  C_16
REMARK    3  A    between atoms: C_9  and  C_10
REMARK    4  A    between atoms: C_10  and  O_11
REMARK    5  A    between atoms: O_11  and  C_12
REMARK    6  A    between atoms: C_12  and  C_15
REMARK    7  A    between atoms: C_16  and  C_18
REMARK    8  A    between atoms: C_16  and  C_24
REMARK                            x       y       z     vdW  Elec       q    Type
REMARK                         _______ _______ _______ _____ _____    ______ ____
ROOT
ATOM      1  N   UNL     1      34.601 -16.180 -24.987  0.00  0.00    +0.386 N 
ATOM      2  N   UNL     1      32.957 -13.975 -24.135  0.00  0.00    +0.390 N 
ATOM      3  C   UNL     1      34.636 -15.692 -23.560  0.00  0.00    -0.101 C 
ATOM      4  C   UNL     1      33.255 -15.928 -25.616  0.00  0.00    -0.101 C 
ATOM      5  C   UNL     1      34.274 -14.210 -23.530  0.00  0.00    -0.100 C 
ATOM      6  C   UNL     1      32.931 -14.441 -25.528  0.00  0.00    -0.100 C 
ATOM      7  H   UNL     1      35.288 -15.639 -25.511  0.00  0.00    -0.080 HD
ATOM      8  H   UNL     1      32.265 -14.508 -23.608  0.00  0.00    -0.079 HD
ENDROOT
BRANCH   1   9
ATOM      9  C   UNL     1      35.016 -17.619 -25.099  0.00  0.00    -0.045 C 
BRANCH   9  10
ATOM     10  C   UNL     1      34.274 -18.436 -24.059  0.00  0.00    +0.120 C 
BRANCH  10  11
ATOM     11  O   UNL     1      35.209 -19.125 -23.240  0.00  0.00    -0.345 OA
BRANCH  11  12
ATOM     12  C   UNL     1      34.702 -19.328 -21.927  0.00  0.00    +0.256 C 
BRANCH  12  15
ATOM     13  O   UNL     1      35.327 -17.441 -20.668  0.00  0.00    -0.243 OA
ATOM     14  O   UNL     1      36.626 -19.322 -20.572  0.00  0.00    -0.243 OA
ATOM     15  C   UNL     1      35.646 -18.627 -20.963  0.00  0.00    +0.394 C 
ENDBRANCH  12  15
ENDBRANCH  11  12
ENDBRANCH  10  11
ENDBRANCH   9  10
ENDBRANCH   1   9
BRANCH   2  16
ATOM     16  C   UNL     1      32.603 -12.558 -24.061  0.00  0.00    -0.012 C 
BRANCH  16  18
ATOM     17 CL   UNL     1      31.152 -10.844 -18.462  0.00  0.00    -0.082 Cl
ATOM     18  C   UNL     1      32.237 -12.125 -22.648  0.00  0.00    -0.038 C 
ATOM     19  C   UNL     1      31.835 -10.812 -22.403  0.00  0.00    -0.005 C 
ATOM     20  C   UNL     1      32.304 -13.042 -21.598  0.00  0.00    -0.005 C 
ATOM     21  C   UNL     1      31.500 -10.416 -21.109  0.00  0.00    +0.011 C 
ATOM     22  C   UNL     1      31.969 -12.645 -20.304  0.00  0.00    +0.011 C 
ATOM     23  C   UNL     1      31.567 -11.332 -20.059  0.00  0.00    +0.058 C 
ENDBRANCH  16  18
BRANCH  16  24
ATOM     24  C   UNL     1      33.670 -11.660 -24.669  0.00  0.00    -0.038 C 
ATOM     25  C   UNL     1      34.224 -10.625 -23.915  0.00  0.00    -0.006 C 
ATOM     26  C   UNL     1      34.097 -11.873 -25.979  0.00  0.00    -0.006 C 
ATOM     27  C   UNL     1      35.203  -9.802 -24.472  0.00  0.00    -0.000 C 
ATOM     28  C   UNL     1      35.076 -11.050 -26.537  0.00  0.00    -0.000 C 
ATOM     29  C   UNL     1      35.629 -10.015 -25.784  0.00  0.00    -0.000 C 
ENDBRANCH  16  24
ENDBRANCH   2  16
TORSDOF 8
ENDMDL
