MODEL 1
REMARK VINA RESULT:      -9.8      0.000      0.000
REMARK  Name = 19988
REMARK  5 active torsions:
REMARK  status: ('A' for Active; 'I' for Inactive)
REMARK    1  A    between atoms: C_1  and  S_7
REMARK    2  A    between atoms: C_2  and  C_16
REMARK    3  A    between atoms: C_4  and  O_11
REMARK    4  A    between atoms: C_5  and  O_13
REMARK    5  A    between atoms: C_16  and  C_17
REMARK                            x       y       z     vdW  Elec       q    Type
REMARK                         _______ _______ _______ _____ _____    ______ ____
ROOT
ATOM      1  C   UNL     1      31.553 -23.155 -16.173  0.00  0.00    +0.146 C 
ATOM      2  C   UNL     1      33.399 -22.995 -17.673  0.00  0.00    +0.074 C 
ATOM      3  C   UNL     1      32.036 -23.010 -17.473  0.00  0.00    +0.028 C 
ATOM      4  C   UNL     1      32.445 -23.282 -15.107  0.00  0.00    +0.159 C 
ATOM      5  C   UNL     1      34.303 -23.118 -16.643  0.00  0.00    +0.140 C 
ATOM      6  C   UNL     1      33.819 -23.263 -15.343  0.00  0.00    +0.075 C 
ENDROOT
BRANCH   1   7
ATOM      7  S   UNL     1      29.825 -23.175 -15.904  0.00  0.00    +0.045 S 
ATOM      8  O   UNL     1      29.180 -22.444 -17.216  0.00  0.00    -0.065 OA
ATOM      9  O   UNL     1      29.385 -24.561 -15.929  0.00  0.00    -0.065 OA
ATOM     10  O   UNL     1      29.570 -22.334 -14.746  0.00  0.00    -0.065 OA
ENDBRANCH   1   7
BRANCH   4  11
ATOM     11  O   UNL     1      31.995 -23.425 -13.829  0.00  0.00    -0.470 OA
ATOM     12  C   UNL     1      31.831 -24.757 -13.346  0.00  0.00    +0.253 C 
ENDBRANCH   4  11
BRANCH   5  13
ATOM     13  O   UNL     1      35.650 -23.104 -16.852  0.00  0.00    -0.505 OA
ATOM     14  H   UNL     1      36.042 -22.396 -17.325  0.00  0.00    +0.292 HD
ENDBRANCH   5  13
BRANCH   2  16
ATOM     15  O   UNL     1      34.197 -23.873 -19.689  0.00  0.00    -0.286 OA
ATOM     16  C   UNL     1      33.896 -22.839 -19.073  0.00  0.00    +0.199 C 
BRANCH  16  17
ATOM     17  C   UNL     1      34.029 -21.540 -19.713  0.00  0.00    +0.039 C 
ATOM     18  C   UNL     1      32.890 -20.808 -20.049  0.00  0.00    +0.003 C 
ATOM     19  C   UNL     1      35.296 -21.026 -19.990  0.00  0.00    +0.003 C 
ATOM     20  C   UNL     1      33.018 -19.562 -20.662  0.00  0.00    +0.000 C 
ATOM     21  C   UNL     1      35.423 -19.779 -20.603  0.00  0.00    +0.000 C 
ATOM     22  C   UNL     1      34.284 -19.047 -20.939  0.00  0.00    +0.000 C 
ENDBRANCH  16  17
ENDBRANCH   2  16
TORSDOF 5
ENDMDL
MODEL 2
REMARK VINA RESULT:      -9.4      6.135      9.181
REMARK  Name = 19988
REMARK  5 active torsions:
REMARK  status: ('A' for Active; 'I' for Inactive)
REMARK    1  A    between atoms: C_1  and  S_7
REMARK    2  A    between atoms: C_2  and  C_16
REMARK    3  A    between atoms: C_4  and  O_11
REMARK    4  A    between atoms: C_5  and  O_13
REMARK    5  A    between atoms: C_16  and  C_17
REMARK                            x       y       z     vdW  Elec       q    Type
REMARK                         _______ _______ _______ _____ _____    ______ ____
ROOT
ATOM      1  C   UNL     1      34.137 -15.673 -22.824  0.00  0.00    +0.146 C 
ATOM      2  C   UNL     1      35.129 -17.825 -22.565  0.00  0.00    +0.074 C 
ATOM      3  C   UNL     1      34.757 -16.620 -22.010  0.00  0.00    +0.028 C 
ATOM      4  C   UNL     1      33.905 -15.955 -24.172  0.00  0.00    +0.159 C 
ATOM      5  C   UNL     1      34.914 -18.132 -23.888  0.00  0.00    +0.140 C 
ATOM      6  C   UNL     1      34.294 -17.184 -24.703  0.00  0.00    +0.075 C 
ENDROOT
BRANCH   1   7
ATOM      7  S   UNL     1      33.658 -14.139 -22.133  0.00  0.00    +0.045 S 
ATOM      8  O   UNL     1      32.025 -14.176 -22.101  0.00  0.00    -0.065 OA
ATOM      9  O   UNL     1      34.111 -14.111 -20.751  0.00  0.00    -0.065 OA
ATOM     10  O   UNL     1      34.069 -13.108 -23.072  0.00  0.00    -0.065 OA
ENDBRANCH   1   7
BRANCH   4  11
ATOM     11  O   UNL     1      33.301 -15.044 -24.985  0.00  0.00    -0.470 OA
ATOM     12  C   UNL     1      33.110 -15.420 -26.348  0.00  0.00    +0.253 C 
ENDBRANCH   4  11
BRANCH   5  13
ATOM     13  O   UNL     1      35.287 -19.326 -24.428  0.00  0.00    -0.505 OA
ATOM     14  H   UNL     1      35.391 -19.409 -25.355  0.00  0.00    +0.292 HD
ENDBRANCH   5  13
BRANCH   2  16
ATOM     15  O   UNL     1      37.031 -18.815 -21.632  0.00  0.00    -0.286 OA
ATOM     16  C   UNL     1      35.791 -18.826 -21.675  0.00  0.00    +0.199 C 
BRANCH  16  17
ATOM     17  C   UNL     1      35.038 -19.783 -20.882  0.00  0.00    +0.039 C 
ATOM     18  C   UNL     1      35.707 -20.779 -20.170  0.00  0.00    +0.003 C 
ATOM     19  C   UNL     1      33.646 -19.707 -20.833  0.00  0.00    +0.003 C 
ATOM     20  C   UNL     1      34.985 -21.697 -19.409  0.00  0.00    +0.000 C 
ATOM     21  C   UNL     1      32.923 -20.626 -20.072  0.00  0.00    +0.000 C 
ATOM     22  C   UNL     1      33.593 -21.621 -19.359  0.00  0.00    +0.000 C 
ENDBRANCH  16  17
ENDBRANCH   2  16
TORSDOF 5
ENDMDL
MODEL 3
REMARK VINA RESULT:      -9.3      1.172      2.043
REMARK  Name = 19988
REMARK  5 active torsions:
REMARK  status: ('A' for Active; 'I' for Inactive)
REMARK    1  A    between atoms: C_1  and  S_7
REMARK    2  A    between atoms: C_2  and  C_16
REMARK    3  A    between atoms: C_4  and  O_11
REMARK    4  A    between atoms: C_5  and  O_13
REMARK    5  A    between atoms: C_16  and  C_17
REMARK                            x       y       z     vdW  Elec       q    Type
REMARK                         _______ _______ _______ _____ _____    ______ ____
ROOT
ATOM      1  C   UNL     1      32.732 -23.542 -15.606  0.00  0.00    +0.146 C 
ATOM      2  C   UNL     1      34.012 -23.026 -17.549  0.00  0.00    +0.074 C 
ATOM      3  C   UNL     1      32.809 -23.400 -16.991  0.00  0.00    +0.028 C 
ATOM      4  C   UNL     1      33.858 -23.307 -14.815  0.00  0.00    +0.159 C 
ATOM      5  C   UNL     1      35.139 -22.787 -16.798  0.00  0.00    +0.140 C 
ATOM      6  C   UNL     1      35.061 -22.930 -15.412  0.00  0.00    +0.075 C 
ENDROOT
BRANCH   1   7
ATOM      7  S   UNL     1      31.211 -24.016 -14.882  0.00  0.00    +0.045 S 
ATOM      8  O   UNL     1      31.528 -25.416 -14.102  0.00  0.00    -0.065 OA
ATOM      9  O   UNL     1      30.873 -23.030 -13.868  0.00  0.00    -0.065 OA
ATOM     10  O   UNL     1      30.297 -24.303 -15.975  0.00  0.00    -0.065 OA
ENDBRANCH   1   7
BRANCH   4  11
ATOM     11  O   UNL     1      33.805 -23.441 -13.461  0.00  0.00    -0.470 OA
ATOM     12  C   UNL     1      34.802 -24.259 -12.852  0.00  0.00    +0.253 C 
ENDBRANCH   4  11
BRANCH   5  13
ATOM     13  O   UNL     1      36.324 -22.419 -17.360  0.00  0.00    -0.505 OA
ATOM     14  H   UNL     1      37.086 -22.948 -17.233  0.00  0.00    +0.292 HD
ENDBRANCH   5  13
BRANCH   2  16
ATOM     15  O   UNL     1      34.148 -23.918 -19.707  0.00  0.00    -0.286 OA
ATOM     16  C   UNL     1      34.073 -22.879 -19.035  0.00  0.00    +0.199 C 
BRANCH  16  17
ATOM     17  C   UNL     1      34.046 -21.582 -19.692  0.00  0.00    +0.039 C 
ATOM     18  C   UNL     1      35.237 -20.987 -20.111  0.00  0.00    +0.003 C 
ATOM     19  C   UNL     1      32.830 -20.932 -19.903  0.00  0.00    +0.003 C 
ATOM     20  C   UNL     1      35.211 -19.744 -20.741  0.00  0.00    +0.000 C 
ATOM     21  C   UNL     1      32.805 -19.688 -20.533  0.00  0.00    +0.000 C 
ATOM     22  C   UNL     1      33.995 -19.094 -20.953  0.00  0.00    +0.000 C 
ENDBRANCH  16  17
ENDBRANCH   2  16
TORSDOF 5
ENDMDL
MODEL 4
REMARK VINA RESULT:      -9.1      3.657      5.411
REMARK  Name = 19988
REMARK  5 active torsions:
REMARK  status: ('A' for Active; 'I' for Inactive)
REMARK    1  A    between atoms: C_1  and  S_7
REMARK    2  A    between atoms: C_2  and  C_16
REMARK    3  A    between atoms: C_4  and  O_11
REMARK    4  A    between atoms: C_5  and  O_13
REMARK    5  A    between atoms: C_16  and  C_17
REMARK                            x       y       z     vdW  Elec       q    Type
REMARK                         _______ _______ _______ _____ _____    ______ ____
ROOT
ATOM      1  C   UNL     1      34.949 -21.431 -19.454  0.00  0.00    +0.146 C 
ATOM      2  C   UNL     1      35.486 -19.796 -21.104  0.00  0.00    +0.074 C 
ATOM      3  C   UNL     1      34.551 -20.619 -20.516  0.00  0.00    +0.028 C 
ATOM      4  C   UNL     1      36.271 -21.399 -19.008  0.00  0.00    +0.159 C 
ATOM      5  C   UNL     1      36.796 -19.743 -20.688  0.00  0.00    +0.140 C 
ATOM      6  C   UNL     1      37.194 -20.556 -19.626  0.00  0.00    +0.075 C 
ENDROOT
BRANCH   1   7
ATOM      7  S   UNL     1      33.772 -22.480 -18.696  0.00  0.00    +0.045 S 
ATOM      8  O   UNL     1      33.872 -23.892 -19.512  0.00  0.00    -0.065 OA
ATOM      9  O   UNL     1      34.216 -22.740 -17.336  0.00  0.00    -0.065 OA
ATOM     10  O   UNL     1      32.464 -21.899 -18.954  0.00  0.00    -0.065 OA
ENDBRANCH   1   7
BRANCH   4  11
ATOM     11  O   UNL     1      36.682 -22.183 -17.973  0.00  0.00    -0.470 OA
ATOM     12  C   UNL     1      37.250 -21.521 -16.845  0.00  0.00    +0.253 C 
ENDBRANCH   4  11
BRANCH   5  13
ATOM     13  O   UNL     1      37.714 -18.927 -21.278  0.00  0.00    -0.505 OA
ATOM     14  H   UNL     1      37.582 -18.634 -22.159  0.00  0.00    +0.292 HD
ENDBRANCH   5  13
BRANCH   2  16
ATOM     15  O   UNL     1      34.834 -19.491 -23.329  0.00  0.00    -0.286 OA
ATOM     16  C   UNL     1      35.039 -18.935 -22.240  0.00  0.00    +0.199 C 
BRANCH  16  17
ATOM     17  C   UNL     1      34.843 -17.501 -22.100  0.00  0.00    +0.039 C 
ATOM     18  C   UNL     1      34.810 -16.688 -23.234  0.00  0.00    +0.003 C 
ATOM     19  C   UNL     1      34.688 -16.938 -20.833  0.00  0.00    +0.003 C 
ATOM     20  C   UNL     1      34.621 -15.313 -23.100  0.00  0.00    +0.000 C 
ATOM     21  C   UNL     1      34.499 -15.562 -20.700  0.00  0.00    +0.000 C 
ATOM     22  C   UNL     1      34.466 -14.750 -21.833  0.00  0.00    +0.000 C 
ENDBRANCH  16  17
ENDBRANCH   2  16
TORSDOF 5
ENDMDL
MODEL 5
REMARK VINA RESULT:      -9.0      6.474      9.471
REMARK  Name = 19988
REMARK  5 active torsions:
REMARK  status: ('A' for Active; 'I' for Inactive)
REMARK    1  A    between atoms: C_1  and  S_7
REMARK    2  A    between atoms: C_2  and  C_16
REMARK    3  A    between atoms: C_4  and  O_11
REMARK    4  A    between atoms: C_5  and  O_13
REMARK    5  A    between atoms: C_16  and  C_17
REMARK                            x       y       z     vdW  Elec       q    Type
REMARK                         _______ _______ _______ _____ _____    ______ ____
ROOT
ATOM      1  C   UNL     1      33.943 -15.630 -24.012  0.00  0.00    +0.146 C 
ATOM      2  C   UNL     1      34.915 -16.957 -22.287  0.00  0.00    +0.074 C 
ATOM      3  C   UNL     1      34.567 -16.811 -23.612  0.00  0.00    +0.028 C 
ATOM      4  C   UNL     1      33.682 -14.626 -23.077  0.00  0.00    +0.159 C 
ATOM      5  C   UNL     1      34.672 -15.988 -21.343  0.00  0.00    +0.140 C 
ATOM      6  C   UNL     1      34.047 -14.806 -21.743  0.00  0.00    +0.075 C 
ENDROOT
BRANCH   1   7
ATOM      7  S   UNL     1      33.495 -15.429 -25.691  0.00  0.00    +0.045 S 
ATOM      8  O   UNL     1      32.978 -16.902 -26.174  0.00  0.00    -0.065 OA
ATOM      9  O   UNL     1      32.348 -14.536 -25.744  0.00  0.00    -0.065 OA
ATOM     10  O   UNL     1      34.716 -15.117 -26.417  0.00  0.00    -0.065 OA
ENDBRANCH   1   7
BRANCH   4  11
ATOM     11  O   UNL     1      33.073 -13.465 -23.445  0.00  0.00    -0.470 OA
ATOM     12  C   UNL     1      32.336 -12.773 -22.439  0.00  0.00    +0.253 C 
ENDBRANCH   4  11
BRANCH   5  13
ATOM     13  O   UNL     1      35.019 -16.143 -20.034  0.00  0.00    -0.505 OA
ATOM     14  H   UNL     1      35.194 -16.999 -19.696  0.00  0.00    +0.292 HD
ENDBRANCH   5  13
BRANCH   2  16
ATOM     15  O   UNL     1      36.771 -18.378 -22.205  0.00  0.00    -0.286 OA
ATOM     16  C   UNL     1      35.583 -18.230 -21.880  0.00  0.00    +0.199 C 
BRANCH  16  17
ATOM     17  C   UNL     1      34.893 -19.269 -21.133  0.00  0.00    +0.039 C 
ATOM     18  C   UNL     1      33.498 -19.286 -21.088  0.00  0.00    +0.003 C 
ATOM     19  C   UNL     1      35.625 -20.248 -20.460  0.00  0.00    +0.003 C 
ATOM     20  C   UNL     1      32.836 -20.282 -20.372  0.00  0.00    +0.000 C 
ATOM     21  C   UNL     1      34.962 -21.244 -19.743  0.00  0.00    +0.000 C 
ATOM     22  C   UNL     1      33.567 -21.262 -19.699  0.00  0.00    +0.000 C 
ENDBRANCH  16  17
ENDBRANCH   2  16
TORSDOF 5
ENDMDL
MODEL 6
REMARK VINA RESULT:      -8.9      3.110      5.770
REMARK  Name = 19988
REMARK  5 active torsions:
REMARK  status: ('A' for Active; 'I' for Inactive)
REMARK    1  A    between atoms: C_1  and  S_7
REMARK    2  A    between atoms: C_2  and  C_16
REMARK    3  A    between atoms: C_4  and  O_11
REMARK    4  A    between atoms: C_5  and  O_13
REMARK    5  A    between atoms: C_16  and  C_17
REMARK                            x       y       z     vdW  Elec       q    Type
REMARK                         _______ _______ _______ _____ _____    ______ ____
ROOT
ATOM      1  C   UNL     1      33.985 -23.108 -17.052  0.00  0.00    +0.146 C 
ATOM      2  C   UNL     1      32.707 -23.912 -15.207  0.00  0.00    +0.074 C 
ATOM      3  C   UNL     1      32.756 -23.497 -16.520  0.00  0.00    +0.028 C 
ATOM      4  C   UNL     1      35.132 -23.143 -16.258  0.00  0.00    +0.159 C 
ATOM      5  C   UNL     1      33.820 -23.957 -14.400  0.00  0.00    +0.140 C 
ATOM      6  C   UNL     1      35.049 -23.568 -14.933  0.00  0.00    +0.075 C 
ENDROOT
BRANCH   1   7
ATOM      7  S   UNL     1      34.063 -22.580 -18.718  0.00  0.00    +0.045 S 
ATOM      8  O   UNL     1      32.642 -21.820 -18.991  0.00  0.00    -0.065 OA
ATOM      9  O   UNL     1      35.110 -21.575 -18.819  0.00  0.00    -0.065 OA
ATOM     10  O   UNL     1      34.100 -23.779 -19.538  0.00  0.00    -0.065 OA
ENDBRANCH   1   7
BRANCH   4  11
ATOM     11  O   UNL     1      36.343 -22.767 -16.757  0.00  0.00    -0.470 OA
ATOM     12  C   UNL     1      37.444 -22.765 -15.851  0.00  0.00    +0.253 C 
ENDBRANCH   4  11
BRANCH   5  13
ATOM     13  O   UNL     1      33.760 -24.368 -13.102  0.00  0.00    -0.505 OA
ATOM     14  H   UNL     1      34.427 -24.928 -12.757  0.00  0.00    +0.292 HD
ENDBRANCH   5  13
BRANCH   2  16
ATOM     15  O   UNL     1      31.383 -25.095 -13.685  0.00  0.00    -0.286 OA
ATOM     16  C   UNL     1      31.381 -24.324 -14.657  0.00  0.00    +0.199 C 
BRANCH  16  17
ATOM     17  C   UNL     1      30.124 -23.855 -15.217  0.00  0.00    +0.039 C 
ATOM     18  C   UNL     1      29.639 -22.591 -14.880  0.00  0.00    +0.003 C 
ATOM     19  C   UNL     1      29.403 -24.669 -16.092  0.00  0.00    +0.003 C 
ATOM     20  C   UNL     1      28.434 -22.141 -15.418  0.00  0.00    +0.000 C 
ATOM     21  C   UNL     1      28.198 -24.218 -16.629  0.00  0.00    +0.000 C 
ATOM     22  C   UNL     1      27.713 -22.954 -16.293  0.00  0.00    +0.000 C 
ENDBRANCH  16  17
ENDBRANCH   2  16
TORSDOF 5
ENDMDL
MODEL 7
REMARK VINA RESULT:      -8.7      4.140      6.559
REMARK  Name = 19988
REMARK  5 active torsions:
REMARK  status: ('A' for Active; 'I' for Inactive)
REMARK    1  A    between atoms: C_1  and  S_7
REMARK    2  A    between atoms: C_2  and  C_16
REMARK    3  A    between atoms: C_4  and  O_11
REMARK    4  A    between atoms: C_5  and  O_13
REMARK    5  A    between atoms: C_16  and  C_17
REMARK                            x       y       z     vdW  Elec       q    Type
REMARK                         _______ _______ _______ _____ _____    ______ ____
ROOT
ATOM      1  C   UNL     1      36.418 -24.298 -13.361  0.00  0.00    +0.146 C 
ATOM      2  C   UNL     1      35.112 -23.575 -15.219  0.00  0.00    +0.074 C 
ATOM      3  C   UNL     1      35.168 -24.103 -13.949  0.00  0.00    +0.028 C 
ATOM      4  C   UNL     1      37.578 -23.960 -14.059  0.00  0.00    +0.159 C 
ATOM      5  C   UNL     1      36.237 -23.232 -15.932  0.00  0.00    +0.140 C 
ATOM      6  C   UNL     1      37.487 -23.427 -15.344  0.00  0.00    +0.075 C 
ENDROOT
BRANCH   1   7
ATOM      7  S   UNL     1      36.505 -24.968 -11.747  0.00  0.00    +0.045 S 
ATOM      8  O   UNL     1      34.960 -25.002 -11.215  0.00  0.00    -0.065 OA
ATOM      9  O   UNL     1      36.948 -26.349 -11.861  0.00  0.00    -0.065 OA
ATOM     10  O   UNL     1      37.243 -24.014 -10.935  0.00  0.00    -0.065 OA
ENDBRANCH   1   7
BRANCH   4  11
ATOM     11  O   UNL     1      38.809 -24.142 -13.505  0.00  0.00    -0.470 OA
ATOM     12  C   UNL     1      39.582 -25.238 -13.989  0.00  0.00    +0.253 C 
ENDBRANCH   4  11
BRANCH   5  13
ATOM     13  O   UNL     1      36.170 -22.711 -17.190  0.00  0.00    -0.505 OA
ATOM     14  H   UNL     1      36.166 -21.782 -17.312  0.00  0.00    +0.292 HD
ENDBRANCH   5  13
BRANCH   2  16
ATOM     15  O   UNL     1      33.724 -22.948 -16.994  0.00  0.00    -0.286 OA
ATOM     16  C   UNL     1      33.763 -23.374 -15.830  0.00  0.00    +0.199 C 
BRANCH  16  17
ATOM     17  C   UNL     1      32.532 -23.660 -15.113  0.00  0.00    +0.039 C 
ATOM     18  C   UNL     1      32.453 -24.778 -14.280  0.00  0.00    +0.003 C 
ATOM     19  C   UNL     1      31.429 -22.818 -15.256  0.00  0.00    +0.003 C 
ATOM     20  C   UNL     1      31.272 -25.051 -13.592  0.00  0.00    +0.000 C 
ATOM     21  C   UNL     1      30.248 -23.093 -14.567  0.00  0.00    +0.000 C 
ATOM     22  C   UNL     1      30.169 -24.209 -13.734  0.00  0.00    +0.000 C 
ENDBRANCH  16  17
ENDBRANCH   2  16
TORSDOF 5
ENDMDL
MODEL 8
REMARK VINA RESULT:      -8.5      2.092      3.756
REMARK  Name = 19988
REMARK  5 active torsions:
REMARK  status: ('A' for Active; 'I' for Inactive)
REMARK    1  A    between atoms: C_1  and  S_7
REMARK    2  A    between atoms: C_2  and  C_16
REMARK    3  A    between atoms: C_4  and  O_11
REMARK    4  A    between atoms: C_5  and  O_13
REMARK    5  A    between atoms: C_16  and  C_17
REMARK                            x       y       z     vdW  Elec       q    Type
REMARK                         _______ _______ _______ _____ _____    ______ ____
ROOT
ATOM      1  C   UNL     1      34.654 -23.616 -15.195  0.00  0.00    +0.146 C 
ATOM      2  C   UNL     1      33.755 -23.246 -17.372  0.00  0.00    +0.074 C 
ATOM      3  C   UNL     1      34.845 -23.514 -16.573  0.00  0.00    +0.028 C 
ATOM      4  C   UNL     1      33.379 -23.448 -14.652  0.00  0.00    +0.159 C 
ATOM      5  C   UNL     1      32.487 -23.075 -16.867  0.00  0.00    +0.140 C 
ATOM      6  C   UNL     1      32.297 -23.177 -15.489  0.00  0.00    +0.075 C 
ENDROOT
BRANCH   1   7
ATOM      7  S   UNL     1      36.028 -23.957 -14.168  0.00  0.00    +0.045 S 
ATOM      8  O   UNL     1      37.325 -23.403 -14.993  0.00  0.00    -0.065 OA
ATOM      9  O   UNL     1      35.904 -23.139 -12.971  0.00  0.00    -0.065 OA
ATOM     10  O   UNL     1      36.134 -25.404 -14.074  0.00  0.00    -0.065 OA
ENDBRANCH   1   7
BRANCH   4  11
ATOM     11  O   UNL     1      33.169 -23.543 -13.310  0.00  0.00    -0.470 OA
ATOM     12  C   UNL     1      31.818 -23.468 -12.858  0.00  0.00    +0.253 C 
ENDBRANCH   4  11
BRANCH   5  13
ATOM     13  O   UNL     1      31.416 -22.809 -17.667  0.00  0.00    -0.505 OA
ATOM     14  H   UNL     1      31.046 -21.948 -17.681  0.00  0.00    +0.292 HD
ENDBRANCH   5  13
BRANCH   2  16
ATOM     15  O   UNL     1      33.848 -24.175 -19.516  0.00  0.00    -0.286 OA
ATOM     16  C   UNL     1      33.982 -23.141 -18.845  0.00  0.00    +0.199 C 
BRANCH  16  17
ATOM     17  C   UNL     1      34.345 -21.890 -19.490  0.00  0.00    +0.039 C 
ATOM     18  C   UNL     1      35.688 -21.539 -19.627  0.00  0.00    +0.003 C 
ATOM     19  C   UNL     1      33.349 -21.040 -19.973  0.00  0.00    +0.003 C 
ATOM     20  C   UNL     1      36.036 -20.340 -20.247  0.00  0.00    +0.000 C 
ATOM     21  C   UNL     1      33.697 -19.840 -20.593  0.00  0.00    +0.000 C 
ATOM     22  C   UNL     1      35.041 -19.490 -20.730  0.00  0.00    +0.000 C 
ENDBRANCH  16  17
ENDBRANCH   2  16
TORSDOF 5
ENDMDL
MODEL 9
REMARK VINA RESULT:      -8.4      3.080      6.027
REMARK  Name = 19988
REMARK  5 active torsions:
REMARK  status: ('A' for Active; 'I' for Inactive)
REMARK    1  A    between atoms: C_1  and  S_7
REMARK    2  A    between atoms: C_2  and  C_16
REMARK    3  A    between atoms: C_4  and  O_11
REMARK    4  A    between atoms: C_5  and  O_13
REMARK    5  A    between atoms: C_16  and  C_17
REMARK                            x       y       z     vdW  Elec       q    Type
REMARK                         _______ _______ _______ _____ _____    ______ ____
ROOT
ATOM      1  C   UNL     1      33.217 -23.154 -16.773  0.00  0.00    +0.146 C 
ATOM      2  C   UNL     1      33.791 -23.794 -14.550  0.00  0.00    +0.074 C 
ATOM      3  C   UNL     1      34.190 -23.490 -15.833  0.00  0.00    +0.028 C 
ATOM      4  C   UNL     1      31.870 -23.131 -16.407  0.00  0.00    +0.159 C 
ATOM      5  C   UNL     1      32.473 -23.780 -14.158  0.00  0.00    +0.140 C 
ATOM      6  C   UNL     1      31.499 -23.444 -15.100  0.00  0.00    +0.075 C 
ENDROOT
BRANCH   1   7
ATOM      7  S   UNL     1      33.709 -22.765 -18.406  0.00  0.00    +0.045 S 
ATOM      8  O   UNL     1      35.259 -22.265 -18.278  0.00  0.00    -0.065 OA
ATOM      9  O   UNL     1      33.721 -24.000 -19.175  0.00  0.00    -0.065 OA
ATOM     10  O   UNL     1      32.901 -21.633 -18.830  0.00  0.00    -0.065 OA
ENDBRANCH   1   7
BRANCH   4  11
ATOM     11  O   UNL     1      30.903 -22.806 -17.309  0.00  0.00    -0.470 OA
ATOM     12  C   UNL     1      29.561 -22.751 -16.828  0.00  0.00    +0.253 C 
ENDBRANCH   4  11
BRANCH   5  13
ATOM     13  O   UNL     1      32.089 -24.083 -12.887  0.00  0.00    -0.505 OA
ATOM     14  H   UNL     1      32.403 -24.865 -12.477  0.00  0.00    +0.292 HD
ENDBRANCH   5  13
BRANCH   2  16
ATOM     15  O   UNL     1      34.640 -23.858 -12.372  0.00  0.00    -0.286 OA
ATOM     16  C   UNL     1      34.850 -24.150 -13.558  0.00  0.00    +0.199 C 
BRANCH  16  17
ATOM     17  C   UNL     1      36.085 -24.815 -13.941  0.00  0.00    +0.039 C 
ATOM     18  C   UNL     1      36.045 -25.942 -14.763  0.00  0.00    +0.003 C 
ATOM     19  C   UNL     1      37.310 -24.326 -13.487  0.00  0.00    +0.003 C 
ATOM     20  C   UNL     1      37.229 -26.579 -15.131  0.00  0.00    +0.000 C 
ATOM     21  C   UNL     1      38.495 -24.964 -13.855  0.00  0.00    +0.000 C 
ATOM     22  C   UNL     1      38.455 -26.090 -14.677  0.00  0.00    +0.000 C 
ENDBRANCH  16  17
ENDBRANCH   2  16
TORSDOF 5
ENDMDL
