MODEL 1
REMARK VINA RESULT:     -11.9      0.000      0.000
REMARK  Name = 11980903
REMARK  4 active torsions:
REMARK  status: ('A' for Active; 'I' for Inactive)
REMARK    1  A    between atoms: C_1  and  C_19
REMARK    2  A    between atoms: C_2  and  C_6
REMARK    3  A    between atoms: C_8  and  N_14
REMARK    4  A    between atoms: N_17  and  C_24
REMARK                            x       y       z     vdW  Elec       q    Type
REMARK                         _______ _______ _______ _____ _____    ______ ____
ROOT
ATOM      1  C   UNL     1      33.988 -15.508 -25.102  0.00  0.00    +0.002 C 
ATOM      2  C   UNL     1      33.479 -14.302 -25.444  0.00  0.00    +0.015 C 
ENDROOT
BRANCH   2   6
ATOM      3  N   UNL     1      33.563 -12.004 -24.668  0.00  0.00    -0.285 N 
ATOM      4  C   UNL     1      33.253 -10.994 -23.834  0.00  0.00    +0.048 C 
ATOM      5  C   UNL     1      32.407 -11.250 -22.733  0.00  0.00    -0.003 C 
ATOM      6  C   UNL     1      33.105 -13.253 -24.505  0.00  0.00    +0.052 C 
ATOM      7  C   UNL     1      32.086 -10.195 -21.866  0.00  0.00    +0.069 C 
ATOM      8  C   UNL     1      32.595  -8.914 -22.092  0.00  0.00    +0.029 C 
ATOM      9  C   UNL     1      31.922 -12.552 -22.551  0.00  0.00    -0.001 C 
ATOM     10  C   UNL     1      32.273 -13.561 -23.442  0.00  0.00    +0.015 C 
ATOM     11  C   UNL     1      33.760  -9.709 -24.055  0.00  0.00    +0.015 C 
ATOM     12  C   UNL     1      33.430  -8.673 -23.183  0.00  0.00    +0.012 C 
ATOM     13  C   UNL     1      34.445 -11.751 -25.823  0.00  0.00    +0.117 C 
BRANCH   8  14
ATOM     14  N   UNL     1      32.266  -7.861 -21.212  0.00  0.00    -0.307 N 
ATOM     15  C   UNL     1      32.007  -6.530 -21.724  0.00  0.00    +0.112 C 
ATOM     16  C   UNL     1      32.169  -8.101 -19.786  0.00  0.00    +0.112 C 
ENDBRANCH   8  14
ENDBRANCH   2   6
BRANCH   1  19
ATOM     17  N   UNL     1      34.717 -17.376 -22.127  0.00  0.00    -0.273 N 
ATOM     18  C   UNL     1      34.502 -17.312 -23.479  0.00  0.00    +0.033 C 
ATOM     19  C   UNL     1      34.264 -16.007 -23.775  0.00  0.00    +0.011 C 
ATOM     20  C   UNL     1      34.615 -16.121 -21.585  0.00  0.00    +0.033 C 
ATOM     21  C   UNL     1      34.329 -15.242 -22.608  0.00  0.00    +0.012 C 
ATOM     22  C   UNL     1      34.549 -18.515 -24.342  0.00  0.00    +0.048 C 
ATOM     23  C   UNL     1      34.795 -15.852 -20.142  0.00  0.00    +0.048 C 
BRANCH  17  24
ATOM     24  C   UNL     1      34.999 -18.542 -21.408  0.00  0.00    +0.055 C 
ATOM     25  C   UNL     1      36.318 -18.865 -21.124  0.00  0.00    +0.015 C 
ATOM     26  C   UNL     1      33.956 -19.353 -20.987  0.00  0.00    +0.015 C 
ATOM     27  C   UNL     1      36.600 -20.026 -20.405  0.00  0.00    +0.001 C 
ATOM     28  C   UNL     1      34.238 -20.514 -20.267  0.00  0.00    +0.001 C 
ATOM     29  C   UNL     1      35.560 -20.851 -19.976  0.00  0.00    +0.000 C 
ENDBRANCH  17  24
ENDBRANCH   1  19
TORSDOF 4
ENDMDL
MODEL 2
REMARK VINA RESULT:     -10.4      2.348      4.619
REMARK  Name = 11980903
REMARK  4 active torsions:
REMARK  status: ('A' for Active; 'I' for Inactive)
REMARK    1  A    between atoms: C_1  and  C_19
REMARK    2  A    between atoms: C_2  and  C_6
REMARK    3  A    between atoms: C_8  and  N_14
REMARK    4  A    between atoms: N_17  and  C_24
REMARK                            x       y       z     vdW  Elec       q    Type
REMARK                         _______ _______ _______ _____ _____    ______ ____
ROOT
ATOM      1  C   UNL     1      35.899 -19.369 -22.691  0.00  0.00    +0.002 C 
ATOM      2  C   UNL     1      35.889 -18.082 -23.111  0.00  0.00    +0.015 C 
ENDROOT
BRANCH   2   6
ATOM      3  N   UNL     1      34.441 -16.138 -23.223  0.00  0.00    -0.285 N 
ATOM      4  C   UNL     1      33.736 -15.119 -22.696  0.00  0.00    +0.048 C 
ATOM      5  C   UNL     1      33.734 -14.940 -21.296  0.00  0.00    -0.003 C 
ATOM      6  C   UNL     1      35.148 -16.999 -22.478  0.00  0.00    +0.052 C 
ATOM      7  C   UNL     1      32.998 -13.877 -20.750  0.00  0.00    +0.069 C 
ATOM      8  C   UNL     1      32.281 -13.014 -21.581  0.00  0.00    +0.029 C 
ATOM      9  C   UNL     1      34.470 -15.834 -20.506  0.00  0.00    -0.001 C 
ATOM     10  C   UNL     1      35.182 -16.870 -21.100  0.00  0.00    +0.015 C 
ATOM     11  C   UNL     1      33.015 -14.251 -23.523  0.00  0.00    +0.015 C 
ATOM     12  C   UNL     1      32.291 -13.201 -22.964  0.00  0.00    +0.012 C 
ATOM     13  C   UNL     1      34.452 -16.338 -24.685  0.00  0.00    +0.117 C 
BRANCH   8  14
ATOM     14  N   UNL     1      31.545 -11.948 -21.022  0.00  0.00    -0.307 N 
ATOM     15  C   UNL     1      31.568 -11.709 -19.593  0.00  0.00    +0.112 C 
ATOM     16  C   UNL     1      30.768 -11.068 -21.873  0.00  0.00    +0.112 C 
ENDBRANCH   8  14
ENDBRANCH   2   6
BRANCH   1  19
ATOM     17  N   UNL     1      34.799 -21.009 -19.695  0.00  0.00    -0.273 N 
ATOM     18  C   UNL     1      35.791 -20.654 -20.572  0.00  0.00    +0.033 C 
ATOM     19  C   UNL     1      35.199 -19.934 -21.561  0.00  0.00    +0.011 C 
ATOM     20  C   UNL     1      33.599 -20.514 -20.134  0.00  0.00    +0.033 C 
ATOM     21  C   UNL     1      33.828 -19.833 -21.309  0.00  0.00    +0.012 C 
ATOM     22  C   UNL     1      37.205 -21.045 -20.364  0.00  0.00    +0.048 C 
ATOM     23  C   UNL     1      32.330 -20.725 -19.405  0.00  0.00    +0.048 C 
BRANCH  17  24
ATOM     24  C   UNL     1      34.983 -21.761 -18.530  0.00  0.00    +0.055 C 
ATOM     25  C   UNL     1      36.162 -21.629 -17.812  0.00  0.00    +0.015 C 
ATOM     26  C   UNL     1      33.980 -22.622 -18.109  0.00  0.00    +0.015 C 
ATOM     27  C   UNL     1      36.344 -22.376 -16.649  0.00  0.00    +0.001 C 
ATOM     28  C   UNL     1      34.162 -23.369 -16.945  0.00  0.00    +0.001 C 
ATOM     29  C   UNL     1      35.344 -23.246 -16.215  0.00  0.00    +0.000 C 
ENDBRANCH  17  24
ENDBRANCH   1  19
TORSDOF 4
ENDMDL
MODEL 3
REMARK VINA RESULT:     -10.2      4.919     11.373
REMARK  Name = 11980903
REMARK  4 active torsions:
REMARK  status: ('A' for Active; 'I' for Inactive)
REMARK    1  A    between atoms: C_1  and  C_19
REMARK    2  A    between atoms: C_2  and  C_6
REMARK    3  A    between atoms: C_8  and  N_14
REMARK    4  A    between atoms: N_17  and  C_24
REMARK                            x       y       z     vdW  Elec       q    Type
REMARK                         _______ _______ _______ _____ _____    ______ ____
ROOT
ATOM      1  C   UNL     1      36.922 -21.075 -19.255  0.00  0.00    +0.002 C 
ATOM      2  C   UNL     1      36.746 -21.946 -18.234  0.00  0.00    +0.015 C 
ENDROOT
BRANCH   2   6
ATOM      3  N   UNL     1      35.308 -22.709 -16.434  0.00  0.00    -0.285 N 
ATOM      4  C   UNL     1      34.141 -23.128 -15.908  0.00  0.00    +0.048 C 
ATOM      5  C   UNL     1      33.014 -23.244 -16.751  0.00  0.00    -0.003 C 
ATOM      6  C   UNL     1      35.455 -22.394 -17.729  0.00  0.00    +0.052 C 
ATOM      7  C   UNL     1      31.799 -23.681 -16.199  0.00  0.00    +0.069 C 
ATOM      8  C   UNL     1      31.711 -23.993 -14.841  0.00  0.00    +0.029 C 
ATOM      9  C   UNL     1      33.154 -22.918 -18.106  0.00  0.00    -0.001 C 
ATOM     10  C   UNL     1      34.382 -22.490 -18.599  0.00  0.00    +0.015 C 
ATOM     11  C   UNL     1      34.046 -23.442 -14.549  0.00  0.00    +0.015 C 
ATOM     12  C   UNL     1      32.832 -23.875 -14.019  0.00  0.00    +0.012 C 
ATOM     13  C   UNL     1      36.494 -22.582 -15.566  0.00  0.00    +0.117 C 
BRANCH   8  14
ATOM     14  N   UNL     1      30.485 -24.433 -14.298  0.00  0.00    -0.307 N 
ATOM     15  C   UNL     1      29.446 -24.959 -15.160  0.00  0.00    +0.112 C 
ATOM     16  C   UNL     1      30.256 -24.376 -12.868  0.00  0.00    +0.112 C 
ENDBRANCH   8  14
ENDBRANCH   2   6
BRANCH   1  19
ATOM     17  N   UNL     1      34.942 -19.134 -21.532  0.00  0.00    -0.273 N 
ATOM     18  C   UNL     1      36.158 -19.524 -21.034  0.00  0.00    +0.033 C 
ATOM     19  C   UNL     1      35.905 -20.419 -20.042  0.00  0.00    +0.011 C 
ATOM     20  C   UNL     1      33.940 -19.781 -20.858  0.00  0.00    +0.033 C 
ATOM     21  C   UNL     1      34.525 -20.596 -19.913  0.00  0.00    +0.012 C 
ATOM     22  C   UNL     1      37.435 -18.995 -21.565  0.00  0.00    +0.048 C 
ATOM     23  C   UNL     1      32.507 -19.575 -21.160  0.00  0.00    +0.048 C 
BRANCH  17  24
ATOM     24  C   UNL     1      34.752 -18.217 -22.571  0.00  0.00    +0.055 C 
ATOM     25  C   UNL     1      34.627 -16.868 -22.275  0.00  0.00    +0.015 C 
ATOM     26  C   UNL     1      34.696 -18.672 -23.880  0.00  0.00    +0.015 C 
ATOM     27  C   UNL     1      34.440 -15.953 -23.311  0.00  0.00    +0.001 C 
ATOM     28  C   UNL     1      34.510 -17.756 -24.916  0.00  0.00    +0.001 C 
ATOM     29  C   UNL     1      34.382 -16.397 -24.632  0.00  0.00    +0.000 C 
ENDBRANCH  17  24
ENDBRANCH   1  19
TORSDOF 4
ENDMDL
MODEL 4
REMARK VINA RESULT:     -10.0      3.234      6.259
REMARK  Name = 11980903
REMARK  4 active torsions:
REMARK  status: ('A' for Active; 'I' for Inactive)
REMARK    1  A    between atoms: C_1  and  C_19
REMARK    2  A    between atoms: C_2  and  C_6
REMARK    3  A    between atoms: C_8  and  N_14
REMARK    4  A    between atoms: N_17  and  C_24
REMARK                            x       y       z     vdW  Elec       q    Type
REMARK                         _______ _______ _______ _____ _____    ______ ____
ROOT
ATOM      1  C   UNL     1      32.191 -10.168 -22.063  0.00  0.00    +0.002 C 
ATOM      2  C   UNL     1      32.214  -8.815 -22.020  0.00  0.00    +0.015 C 
ENDROOT
BRANCH   2   6
ATOM      3  N   UNL     1      32.098  -7.070 -23.702  0.00  0.00    -0.285 N 
ATOM      4  C   UNL     1      32.615  -6.249 -24.635  0.00  0.00    +0.048 C 
ATOM      5  C   UNL     1      33.998  -6.316 -24.915  0.00  0.00    -0.003 C 
ATOM      6  C   UNL     1      32.836  -7.956 -23.018  0.00  0.00    +0.052 C 
ATOM      7  C   UNL     1      34.534  -5.458 -25.889  0.00  0.00    +0.069 C 
ATOM      8  C   UNL     1      33.711  -4.556 -26.566  0.00  0.00    +0.029 C 
ATOM      9  C   UNL     1      34.780  -7.238 -24.208  0.00  0.00    -0.001 C 
ATOM     10  C   UNL     1      34.196  -8.064 -23.253  0.00  0.00    +0.015 C 
ATOM     11  C   UNL     1      31.797  -5.343 -25.317  0.00  0.00    +0.015 C 
ATOM     12  C   UNL     1      32.346  -4.500 -26.281  0.00  0.00    +0.012 C 
ATOM     13  C   UNL     1      30.656  -7.011 -23.399  0.00  0.00    +0.117 C 
BRANCH   8  14
ATOM     14  N   UNL     1      34.261  -3.700 -27.544  0.00  0.00    -0.307 N 
ATOM     15  C   UNL     1      34.880  -4.246 -28.734  0.00  0.00    +0.112 C 
ATOM     16  C   UNL     1      34.199  -2.261 -27.375  0.00  0.00    +0.112 C 
ENDBRANCH   8  14
ENDBRANCH   2   6
BRANCH   1  19
ATOM     17  N   UNL     1      33.417 -12.830 -24.133  0.00  0.00    -0.273 N 
ATOM     18  C   UNL     1      32.808 -12.386 -22.989  0.00  0.00    +0.033 C 
ATOM     19  C   UNL     1      32.760 -11.030 -23.073  0.00  0.00    +0.011 C 
ATOM     20  C   UNL     1      33.746 -11.761 -24.924  0.00  0.00    +0.033 C 
ATOM     21  C   UNL     1      33.341 -10.615 -24.274  0.00  0.00    +0.012 C 
ATOM     22  C   UNL     1      32.335 -13.314 -21.935  0.00  0.00    +0.048 C 
ATOM     23  C   UNL     1      34.418 -11.908 -26.234  0.00  0.00    +0.048 C 
BRANCH  17  24
ATOM     24  C   UNL     1      33.665 -14.171 -24.447  0.00  0.00    +0.055 C 
ATOM     25  C   UNL     1      33.039 -14.740 -25.546  0.00  0.00    +0.015 C 
ATOM     26  C   UNL     1      34.537 -14.906 -23.658  0.00  0.00    +0.015 C 
ATOM     27  C   UNL     1      33.288 -16.075 -25.862  0.00  0.00    +0.001 C 
ATOM     28  C   UNL     1      34.787 -16.242 -23.975  0.00  0.00    +0.001 C 
ATOM     29  C   UNL     1      34.162 -16.826 -25.076  0.00  0.00    +0.000 C 
ENDBRANCH  17  24
ENDBRANCH   1  19
TORSDOF 4
ENDMDL
MODEL 5
REMARK VINA RESULT:      -9.5      1.315      8.670
REMARK  Name = 11980903
REMARK  4 active torsions:
REMARK  status: ('A' for Active; 'I' for Inactive)
REMARK    1  A    between atoms: C_1  and  C_19
REMARK    2  A    between atoms: C_2  and  C_6
REMARK    3  A    between atoms: C_8  and  N_14
REMARK    4  A    between atoms: N_17  and  C_24
REMARK                            x       y       z     vdW  Elec       q    Type
REMARK                         _______ _______ _______ _____ _____    ______ ____
ROOT
ATOM      1  C   UNL     1      33.649 -12.525 -24.999  0.00  0.00    +0.002 C 
ATOM      2  C   UNL     1      34.227 -13.744 -25.112  0.00  0.00    +0.015 C 
ENDROOT
BRANCH   2   6
ATOM      3  N   UNL     1      34.329 -16.042 -24.338  0.00  0.00    -0.285 N 
ATOM      4  C   UNL     1      34.404 -17.003 -23.398  0.00  0.00    +0.048 C 
ATOM      5  C   UNL     1      34.464 -16.627 -22.039  0.00  0.00    -0.003 C 
ATOM      6  C   UNL     1      34.308 -14.734 -24.046  0.00  0.00    +0.052 C 
ATOM      7  C   UNL     1      34.543 -17.632 -21.061  0.00  0.00    +0.069 C 
ATOM      8  C   UNL     1      34.560 -18.978 -21.431  0.00  0.00    +0.029 C 
ATOM      9  C   UNL     1      34.444 -15.263 -21.720  0.00  0.00    -0.001 C 
ATOM     10  C   UNL     1      34.365 -14.309 -22.729  0.00  0.00    +0.015 C 
ATOM     11  C   UNL     1      34.422 -18.353 -23.762  0.00  0.00    +0.015 C 
ATOM     12  C   UNL     1      34.500 -19.337 -22.779  0.00  0.00    +0.012 C 
ATOM     13  C   UNL     1      34.265 -16.420 -25.763  0.00  0.00    +0.117 C 
BRANCH   8  14
ATOM     14  N   UNL     1      34.638 -19.979 -20.440  0.00  0.00    -0.307 N 
ATOM     15  C   UNL     1      33.432 -20.569 -19.895  0.00  0.00    +0.112 C 
ATOM     16  C   UNL     1      35.928 -20.441 -19.965  0.00  0.00    +0.112 C 
ENDBRANCH   8  14
ENDBRANCH   2   6
BRANCH   1  19
ATOM     17  N   UNL     1      32.380 -10.512 -22.314  0.00  0.00    -0.273 N 
ATOM     18  C   UNL     1      33.131 -10.658 -23.451  0.00  0.00    +0.033 C 
ATOM     19  C   UNL     1      33.009 -11.955 -23.837  0.00  0.00    +0.011 C 
ATOM     20  C   UNL     1      31.792 -11.709 -21.996  0.00  0.00    +0.033 C 
ATOM     21  C   UNL     1      32.176 -12.633 -22.943  0.00  0.00    +0.012 C 
ATOM     22  C   UNL     1      33.888  -9.532 -24.046  0.00  0.00    +0.048 C 
ATOM     23  C   UNL     1      30.914 -11.883 -20.818  0.00  0.00    +0.048 C 
BRANCH  17  24
ATOM     24  C   UNL     1      32.232  -9.325 -21.590  0.00  0.00    +0.055 C 
ATOM     25  C   UNL     1      32.431  -9.334 -20.218  0.00  0.00    +0.015 C 
ATOM     26  C   UNL     1      31.893  -8.157 -22.257  0.00  0.00    +0.015 C 
ATOM     27  C   UNL     1      32.287  -8.150 -19.495  0.00  0.00    +0.001 C 
ATOM     28  C   UNL     1      31.749  -6.972 -21.534  0.00  0.00    +0.001 C 
ATOM     29  C   UNL     1      31.946  -6.969 -20.154  0.00  0.00    +0.000 C 
ENDBRANCH  17  24
ENDBRANCH   1  19
TORSDOF 4
ENDMDL
MODEL 6
REMARK VINA RESULT:      -9.5      2.305      4.814
REMARK  Name = 11980903
REMARK  4 active torsions:
REMARK  status: ('A' for Active; 'I' for Inactive)
REMARK    1  A    between atoms: C_1  and  C_19
REMARK    2  A    between atoms: C_2  and  C_6
REMARK    3  A    between atoms: C_8  and  N_14
REMARK    4  A    between atoms: N_17  and  C_24
REMARK                            x       y       z     vdW  Elec       q    Type
REMARK                         _______ _______ _______ _____ _____    ______ ____
ROOT
ATOM      1  C   UNL     1      31.824 -12.351 -20.419  0.00  0.00    +0.002 C 
ATOM      2  C   UNL     1      31.303 -11.118 -20.216  0.00  0.00    +0.015 C 
ENDROOT
BRANCH   2   6
ATOM      3  N   UNL     1      31.745  -8.816 -20.845  0.00  0.00    -0.285 N 
ATOM      4  C   UNL     1      31.775  -7.777 -21.700  0.00  0.00    +0.048 C 
ATOM      5  C   UNL     1      31.329  -7.969 -23.026  0.00  0.00    -0.003 C 
ATOM      6  C   UNL     1      31.309 -10.035 -21.191  0.00  0.00    +0.052 C 
ATOM      7  C   UNL     1      31.362  -6.884 -23.916  0.00  0.00    +0.069 C 
ATOM      8  C   UNL     1      31.828  -5.638 -23.493  0.00  0.00    +0.029 C 
ATOM      9  C   UNL     1      30.870  -9.239 -23.400  0.00  0.00    -0.001 C 
ATOM     10  C   UNL     1      30.860 -10.280 -22.478  0.00  0.00    +0.015 C 
ATOM     11  C   UNL     1      32.241  -6.526 -21.284  0.00  0.00    +0.015 C 
ATOM     12  C   UNL     1      32.266  -5.460 -22.180  0.00  0.00    +0.012 C 
ATOM     13  C   UNL     1      32.208  -8.630 -19.456  0.00  0.00    +0.117 C 
BRANCH   8  14
ATOM     14  N   UNL     1      31.856  -4.554 -24.396  0.00  0.00    -0.307 N 
ATOM     15  C   UNL     1      31.293  -3.272 -24.022  0.00  0.00    +0.112 C 
ATOM     16  C   UNL     1      32.462  -4.705 -25.705  0.00  0.00    +0.112 C 
ENDBRANCH   8  14
ENDBRANCH   2   6
BRANCH   1  19
ATOM     17  N   UNL     1      33.412 -14.214 -23.042  0.00  0.00    -0.273 N 
ATOM     18  C   UNL     1      32.814 -14.150 -21.810  0.00  0.00    +0.033 C 
ATOM     19  C   UNL     1      32.480 -12.848 -21.605  0.00  0.00    +0.011 C 
ATOM     20  C   UNL     1      33.450 -12.963 -23.600  0.00  0.00    +0.033 C 
ATOM     21  C   UNL     1      32.868 -12.086 -22.710  0.00  0.00    +0.012 C 
ATOM     22  C   UNL     1      32.626 -15.349 -20.961  0.00  0.00    +0.048 C 
ATOM     23  C   UNL     1      34.036 -12.696 -24.931  0.00  0.00    +0.048 C 
BRANCH  17  24
ATOM     24  C   UNL     1      33.907 -15.378 -23.639  0.00  0.00    +0.055 C 
ATOM     25  C   UNL     1      34.791 -16.182 -22.936  0.00  0.00    +0.015 C 
ATOM     26  C   UNL     1      33.503 -15.709 -24.924  0.00  0.00    +0.015 C 
ATOM     27  C   UNL     1      35.283 -17.344 -23.530  0.00  0.00    +0.001 C 
ATOM     28  C   UNL     1      33.995 -16.872 -25.518  0.00  0.00    +0.001 C 
ATOM     29  C   UNL     1      34.885 -17.689 -24.821  0.00  0.00    +0.000 C 
ENDBRANCH  17  24
ENDBRANCH   1  19
TORSDOF 4
ENDMDL
MODEL 7
REMARK VINA RESULT:      -9.1      3.369      6.338
REMARK  Name = 11980903
REMARK  4 active torsions:
REMARK  status: ('A' for Active; 'I' for Inactive)
REMARK    1  A    between atoms: C_1  and  C_19
REMARK    2  A    between atoms: C_2  and  C_6
REMARK    3  A    between atoms: C_8  and  N_14
REMARK    4  A    between atoms: N_17  and  C_24
REMARK                            x       y       z     vdW  Elec       q    Type
REMARK                         _______ _______ _______ _____ _____    ______ ____
ROOT
ATOM      1  C   UNL     1      31.583  -9.108 -21.269  0.00  0.00    +0.002 C 
ATOM      2  C   UNL     1      31.795  -7.812 -21.598  0.00  0.00    +0.015 C 
ENDROOT
BRANCH   2   6
ATOM      3  N   UNL     1      32.145  -6.506 -23.613  0.00  0.00    -0.285 N 
ATOM      4  C   UNL     1      32.870  -6.047 -24.650  0.00  0.00    +0.048 C 
ATOM      5  C   UNL     1      34.210  -6.472 -24.789  0.00  0.00    -0.003 C 
ATOM      6  C   UNL     1      32.634  -7.354 -22.697  0.00  0.00    +0.052 C 
ATOM      7  C   UNL     1      34.964  -5.991 -25.871  0.00  0.00    +0.069 C 
ATOM      8  C   UNL     1      34.395  -5.109 -26.792  0.00  0.00    +0.029 C 
ATOM      9  C   UNL     1      34.733  -7.358 -23.838  0.00  0.00    -0.001 C 
ATOM     10  C   UNL     1      33.941  -7.803 -22.785  0.00  0.00    +0.015 C 
ATOM     11  C   UNL     1      32.307  -5.163 -25.575  0.00  0.00    +0.015 C 
ATOM     12  C   UNL     1      33.070  -4.697 -26.644  0.00  0.00    +0.012 C 
ATOM     13  C   UNL     1      30.744  -6.071 -23.454  0.00  0.00    +0.117 C 
BRANCH   8  14
ATOM     14  N   UNL     1      35.162  -4.633 -27.877  0.00  0.00    -0.307 N 
ATOM     15  C   UNL     1      34.523  -4.274 -29.127  0.00  0.00    +0.112 C 
ATOM     16  C   UNL     1      36.599  -4.483 -27.748  0.00  0.00    +0.112 C 
ENDBRANCH   8  14
ENDBRANCH   2   6
BRANCH   1  19
ATOM     17  N   UNL     1      32.810 -12.337 -22.241  0.00  0.00    -0.273 N 
ATOM     18  C   UNL     1      32.269 -11.492 -21.307  0.00  0.00    +0.033 C 
ATOM     19  C   UNL     1      32.124 -10.283 -21.911  0.00  0.00    +0.011 C 
ATOM     20  C   UNL     1      33.000 -11.660 -23.417  0.00  0.00    +0.033 C 
ATOM     21  C   UNL     1      32.575 -10.363 -23.232  0.00  0.00    +0.012 C 
ATOM     22  C   UNL     1      31.947 -11.939 -19.932  0.00  0.00    +0.048 C 
ATOM     23  C   UNL     1      33.571 -12.295 -24.625  0.00  0.00    +0.048 C 
BRANCH  17  24
ATOM     24  C   UNL     1      33.120 -13.684 -22.028  0.00  0.00    +0.055 C 
ATOM     25  C   UNL     1      34.309 -14.197 -22.526  0.00  0.00    +0.015 C 
ATOM     26  C   UNL     1      32.237 -14.483 -21.318  0.00  0.00    +0.015 C 
ATOM     27  C   UNL     1      34.620 -15.539 -22.311  0.00  0.00    +0.001 C 
ATOM     28  C   UNL     1      32.549 -15.826 -21.103  0.00  0.00    +0.001 C 
ATOM     29  C   UNL     1      33.740 -16.354 -21.600  0.00  0.00    +0.000 C 
ENDBRANCH  17  24
ENDBRANCH   1  19
TORSDOF 4
ENDMDL
MODEL 8
REMARK VINA RESULT:      -9.0      3.644      7.375
REMARK  Name = 11980903
REMARK  4 active torsions:
REMARK  status: ('A' for Active; 'I' for Inactive)
REMARK    1  A    between atoms: C_1  and  C_19
REMARK    2  A    between atoms: C_2  and  C_6
REMARK    3  A    between atoms: C_8  and  N_14
REMARK    4  A    between atoms: N_17  and  C_24
REMARK                            x       y       z     vdW  Elec       q    Type
REMARK                         _______ _______ _______ _____ _____    ______ ____
ROOT
ATOM      1  C   UNL     1      32.399  -8.820 -21.786  0.00  0.00    +0.002 C 
ATOM      2  C   UNL     1      32.065  -7.513 -21.898  0.00  0.00    +0.015 C 
ENDROOT
BRANCH   2   6
ATOM      3  N   UNL     1      31.532  -5.610 -23.306  0.00  0.00    -0.285 N 
ATOM      4  C   UNL     1      31.696  -4.809 -24.376  0.00  0.00    +0.048 C 
ATOM      5  C   UNL     1      32.717  -5.108 -25.304  0.00  0.00    -0.003 C 
ATOM      6  C   UNL     1      32.295  -6.688 -23.076  0.00  0.00    +0.052 C 
ATOM      7  C   UNL     1      32.886  -4.271 -26.418  0.00  0.00    +0.069 C 
ATOM      8  C   UNL     1      32.057  -3.163 -26.601  0.00  0.00    +0.029 C 
ATOM      9  C   UNL     1      33.523  -6.232 -25.074  0.00  0.00    -0.001 C 
ATOM     10  C   UNL     1      33.311  -7.027 -23.953  0.00  0.00    +0.015 C 
ATOM     11  C   UNL     1      30.869  -3.698 -24.565  0.00  0.00    +0.015 C 
ATOM     12  C   UNL     1      31.051  -2.878 -25.677  0.00  0.00    +0.012 C 
ATOM     13  C   UNL     1      30.469  -5.310 -22.328  0.00  0.00    +0.117 C 
BRANCH   8  14
ATOM     14  N   UNL     1      32.235  -2.329 -27.725  0.00  0.00    -0.307 N 
ATOM     15  C   UNL     1      33.566  -2.016 -28.205  0.00  0.00    +0.112 C 
ATOM     16  C   UNL     1      31.086  -1.786 -28.424  0.00  0.00    +0.112 C 
ENDBRANCH   8  14
ENDBRANCH   2   6
BRANCH   1  19
ATOM     17  N   UNL     1      33.538 -11.396 -24.008  0.00  0.00    -0.273 N 
ATOM     18  C   UNL     1      32.717 -10.959 -23.002  0.00  0.00    +0.033 C 
ATOM     19  C   UNL     1      33.036  -9.657 -22.775  0.00  0.00    +0.011 C 
ATOM     20  C   UNL     1      34.362 -10.376 -24.406  0.00  0.00    +0.033 C 
ATOM     21  C   UNL     1      34.062  -9.270 -23.641  0.00  0.00    +0.012 C 
ATOM     22  C   UNL     1      31.710 -11.840 -22.366  0.00  0.00    +0.048 C 
ATOM     23  C   UNL     1      35.368 -10.529 -25.479  0.00  0.00    +0.048 C 
BRANCH  17  24
ATOM     24  C   UNL     1      33.536 -12.686 -24.549  0.00  0.00    +0.055 C 
ATOM     25  C   UNL     1      33.912 -13.759 -23.754  0.00  0.00    +0.015 C 
ATOM     26  C   UNL     1      33.154 -12.872 -25.869  0.00  0.00    +0.015 C 
ATOM     27  C   UNL     1      33.908 -15.046 -24.292  0.00  0.00    +0.001 C 
ATOM     28  C   UNL     1      33.148 -14.160 -26.406  0.00  0.00    +0.001 C 
ATOM     29  C   UNL     1      33.526 -15.246 -25.618  0.00  0.00    +0.000 C 
ENDBRANCH  17  24
ENDBRANCH   1  19
TORSDOF 4
ENDMDL
MODEL 9
REMARK VINA RESULT:      -9.0      4.595     11.504
REMARK  Name = 11980903
REMARK  4 active torsions:
REMARK  status: ('A' for Active; 'I' for Inactive)
REMARK    1  A    between atoms: C_1  and  C_19
REMARK    2  A    between atoms: C_2  and  C_6
REMARK    3  A    between atoms: C_8  and  N_14
REMARK    4  A    between atoms: N_17  and  C_24
REMARK                            x       y       z     vdW  Elec       q    Type
REMARK                         _______ _______ _______ _____ _____    ______ ____
ROOT
ATOM      1  C   UNL     1      32.845 -21.643 -20.041  0.00  0.00    +0.002 C 
ATOM      2  C   UNL     1      32.926 -22.539 -19.029  0.00  0.00    +0.015 C 
ENDROOT
BRANCH   2   6
ATOM      3  N   UNL     1      33.778 -23.107 -16.829  0.00  0.00    -0.285 N 
ATOM      4  C   UNL     1      34.732 -23.192 -15.883  0.00  0.00    +0.048 C 
ATOM      5  C   UNL     1      36.034 -22.731 -16.180  0.00  0.00    -0.003 C 
ATOM      6  C   UNL     1      34.003 -22.602 -18.050  0.00  0.00    +0.052 C 
ATOM      7  C   UNL     1      37.026 -22.822 -15.191  0.00  0.00    +0.069 C 
ATOM      8  C   UNL     1      36.728 -23.360 -13.938  0.00  0.00    +0.029 C 
ATOM      9  C   UNL     1      36.281 -22.201 -17.453  0.00  0.00    -0.001 C 
ATOM     10  C   UNL     1      35.260 -22.135 -18.395  0.00  0.00    +0.015 C 
ATOM     11  C   UNL     1      34.440 -23.730 -14.625  0.00  0.00    +0.015 C 
ATOM     12  C   UNL     1      35.438 -23.812 -13.656  0.00  0.00    +0.012 C 
ATOM     13  C   UNL     1      32.414 -23.585 -16.533  0.00  0.00    +0.117 C 
BRANCH   8  14
ATOM     14  N   UNL     1      37.733 -23.445 -12.951  0.00  0.00    -0.307 N 
ATOM     15  C   UNL     1      37.703 -22.573 -11.794  0.00  0.00    +0.112 C 
ATOM     16  C   UNL     1      38.801 -24.417 -13.076  0.00  0.00    +0.112 C 
ENDBRANCH   8  14
ENDBRANCH   2   6
BRANCH   1  19
ATOM     17  N   UNL     1      34.580 -18.635 -20.942  0.00  0.00    -0.273 N 
ATOM     18  C   UNL     1      33.419 -19.327 -20.719  0.00  0.00    +0.033 C 
ATOM     19  C   UNL     1      33.778 -20.589 -20.364  0.00  0.00    +0.011 C 
ATOM     20  C   UNL     1      35.654 -19.458 -20.728  0.00  0.00    +0.033 C 
ATOM     21  C   UNL     1      35.171 -20.695 -20.362  0.00  0.00    +0.012 C 
ATOM     22  C   UNL     1      32.085 -18.700 -20.870  0.00  0.00    +0.048 C 
ATOM     23  C   UNL     1      37.054 -19.008 -20.887  0.00  0.00    +0.048 C 
BRANCH  17  24
ATOM     24  C   UNL     1      34.659 -17.293 -21.329  0.00  0.00    +0.055 C 
ATOM     25  C   UNL     1      34.768 -16.977 -22.675  0.00  0.00    +0.015 C 
ATOM     26  C   UNL     1      34.623 -16.301 -20.361  0.00  0.00    +0.015 C 
ATOM     27  C   UNL     1      34.843 -15.639 -23.062  0.00  0.00    +0.001 C 
ATOM     28  C   UNL     1      34.698 -14.962 -20.748  0.00  0.00    +0.001 C 
ATOM     29  C   UNL     1      34.808 -14.632 -22.098  0.00  0.00    +0.000 C 
ENDBRANCH  17  24
ENDBRANCH   1  19
TORSDOF 4
ENDMDL
