MODEL 1
REMARK VINA RESULT:      -8.5      0.000      0.000
REMARK  Name = 37497
REMARK  7 active torsions:
REMARK  status: ('A' for Active; 'I' for Inactive)
REMARK    1  A    between atoms: N_2  and  C_5
REMARK    2  A    between atoms: C_3  and  C_13
REMARK    3  A    between atoms: C_13  and  N_14
REMARK    4  A    between atoms: C_13  and  C_21
REMARK    5  A    between atoms: N_14  and  C_16
REMARK    6  A    between atoms: N_14  and  C_18
REMARK    7  A    between atoms: C_18  and  C_19
REMARK                            x       y       z     vdW  Elec       q    Type
REMARK                         _______ _______ _______ _____ _____    ______ ____
ROOT
ATOM      1  O   UNL     1      35.082 -16.719 -20.447  0.00  0.00    -0.277 OA
ATOM      2  N   UNL     1      34.610 -18.630 -21.725  0.00  0.00    -0.286 N 
ATOM      3  C   UNL     1      34.701 -17.263 -21.480  0.00  0.00    +0.207 C 
ATOM      4  H   UNL     1      34.259 -18.893 -22.607  0.00  0.00    +0.155 HD
ENDROOT
BRANCH   2   5
ATOM      5  C   UNL     1      34.965 -19.688 -20.854  0.00  0.00    +0.042 C 
ATOM      6  C   UNL     1      33.966 -20.425 -20.235  0.00  0.00    -0.009 C 
ATOM      7  C   UNL     1      36.305 -19.967 -20.632  0.00  0.00    -0.009 C 
ATOM      8  C   UNL     1      34.315 -21.467 -19.375  0.00  0.00    -0.003 C 
ATOM      9  C   UNL     1      36.655 -21.010 -19.773  0.00  0.00    -0.003 C 
ATOM     10  C   UNL     1      32.518 -20.137 -20.462  0.00  0.00    +0.032 C 
ATOM     11  C   UNL     1      37.393 -19.183 -21.290  0.00  0.00    +0.032 C 
ATOM     12  C   UNL     1      35.660 -21.758 -19.144  0.00  0.00    -0.001 C 
ENDBRANCH   2   5
BRANCH   3  13
ATOM     13  C   UNL     1      34.216 -16.449 -22.680  0.00  0.00    +0.021 C 
BRANCH  13  14
ATOM     14  N   UNL     1      33.992 -15.093 -22.174  0.00  0.00    +0.394 N 
ATOM     15  H   UNL     1      34.645 -14.921 -21.409  0.00  0.00    -0.079 HD
BRANCH  14  16
ATOM     16  C   UNL     1      32.631 -14.961 -21.658  0.00  0.00    -0.077 C 
ATOM     17  C   UNL     1      32.605 -14.202 -20.348  0.00  0.00    -0.025 C 
ENDBRANCH  14  16
BRANCH  14  18
ATOM     18  C   UNL     1      34.240 -14.108 -23.224  0.00  0.00    -0.077 C 
BRANCH  18  19
ATOM     19  C   UNL     1      32.930 -13.713 -23.901  0.00  0.00    -0.023 C 
ATOM     20  C   UNL     1      32.947 -14.055 -25.382  0.00  0.00    -0.002 C 
ENDBRANCH  18  19
ENDBRANCH  14  18
ENDBRANCH  13  14
BRANCH  13  21
ATOM     21  C   UNL     1      35.248 -16.404 -23.815  0.00  0.00    -0.012 C 
ATOM     22  C   UNL     1      34.812 -17.227 -25.021  0.00  0.00    -0.002 C 
ENDBRANCH  13  21
ENDBRANCH   3  13
TORSDOF 7
ENDMDL
MODEL 2
REMARK VINA RESULT:      -8.4      0.051      1.925
REMARK  Name = 37497
REMARK  7 active torsions:
REMARK  status: ('A' for Active; 'I' for Inactive)
REMARK    1  A    between atoms: N_2  and  C_5
REMARK    2  A    between atoms: C_3  and  C_13
REMARK    3  A    between atoms: C_13  and  N_14
REMARK    4  A    between atoms: C_13  and  C_21
REMARK    5  A    between atoms: N_14  and  C_16
REMARK    6  A    between atoms: N_14  and  C_18
REMARK    7  A    between atoms: C_18  and  C_19
REMARK                            x       y       z     vdW  Elec       q    Type
REMARK                         _______ _______ _______ _____ _____    ______ ____
ROOT
ATOM      1  O   UNL     1      35.053 -16.692 -20.432  0.00  0.00    -0.277 OA
ATOM      2  N   UNL     1      34.603 -18.601 -21.722  0.00  0.00    -0.286 N 
ATOM      3  C   UNL     1      34.684 -17.234 -21.470  0.00  0.00    +0.207 C 
ATOM      4  H   UNL     1      34.262 -18.862 -22.607  0.00  0.00    +0.155 HD
ENDROOT
BRANCH   2   5
ATOM      5  C   UNL     1      34.956 -19.660 -20.851  0.00  0.00    +0.042 C 
ATOM      6  C   UNL     1      36.296 -19.937 -20.623  0.00  0.00    -0.009 C 
ATOM      7  C   UNL     1      33.956 -20.404 -20.242  0.00  0.00    -0.009 C 
ATOM      8  C   UNL     1      36.644 -20.981 -19.766  0.00  0.00    -0.003 C 
ATOM      9  C   UNL     1      34.304 -21.448 -19.385  0.00  0.00    -0.003 C 
ATOM     10  C   UNL     1      37.386 -19.146 -21.271  0.00  0.00    +0.032 C 
ATOM     11  C   UNL     1      32.508 -20.119 -20.477  0.00  0.00    +0.032 C 
ATOM     12  C   UNL     1      35.647 -21.736 -19.147  0.00  0.00    -0.001 C 
ENDBRANCH   2   5
BRANCH   3  13
ATOM     13  C   UNL     1      34.205 -16.418 -22.671  0.00  0.00    +0.021 C 
BRANCH  13  14
ATOM     14  N   UNL     1      33.989 -15.061 -22.166  0.00  0.00    +0.394 N 
ATOM     15  H   UNL     1      34.653 -14.887 -21.411  0.00  0.00    -0.079 HD
BRANCH  14  16
ATOM     16  C   UNL     1      32.635 -14.924 -21.634  0.00  0.00    -0.077 C 
ATOM     17  C   UNL     1      32.618 -14.093 -20.368  0.00  0.00    -0.025 C 
ENDBRANCH  14  16
BRANCH  14  18
ATOM     18  C   UNL     1      34.226 -14.079 -23.223  0.00  0.00    -0.077 C 
BRANCH  18  19
ATOM     19  C   UNL     1      32.915 -13.721 -23.918  0.00  0.00    -0.023 C 
ATOM     20  C   UNL     1      33.009 -13.933 -25.421  0.00  0.00    -0.002 C 
ENDBRANCH  18  19
ENDBRANCH  14  18
ENDBRANCH  13  14
BRANCH  13  21
ATOM     21  C   UNL     1      35.237 -16.381 -23.806  0.00  0.00    -0.012 C 
ATOM     22  C   UNL     1      34.793 -17.198 -25.014  0.00  0.00    -0.002 C 
ENDBRANCH  13  21
ENDBRANCH   3  13
TORSDOF 7
ENDMDL
MODEL 3
REMARK VINA RESULT:      -7.4      2.388      4.034
REMARK  Name = 37497
REMARK  7 active torsions:
REMARK  status: ('A' for Active; 'I' for Inactive)
REMARK    1  A    between atoms: N_2  and  C_5
REMARK    2  A    between atoms: C_3  and  C_13
REMARK    3  A    between atoms: C_13  and  N_14
REMARK    4  A    between atoms: C_13  and  C_21
REMARK    5  A    between atoms: N_14  and  C_16
REMARK    6  A    between atoms: N_14  and  C_18
REMARK    7  A    between atoms: C_18  and  C_19
REMARK                            x       y       z     vdW  Elec       q    Type
REMARK                         _______ _______ _______ _____ _____    ______ ____
ROOT
ATOM      1  O   UNL     1      32.058 -14.951 -22.182  0.00  0.00    -0.277 OA
ATOM      2  N   UNL     1      34.037 -15.267 -23.402  0.00  0.00    -0.286 N 
ATOM      3  C   UNL     1      32.864 -14.611 -23.044  0.00  0.00    +0.207 C 
ATOM      4  H   UNL     1      34.556 -14.864 -24.135  0.00  0.00    +0.155 HD
ENDROOT
BRANCH   2   5
ATOM      5  C   UNL     1      34.573 -16.447 -22.833  0.00  0.00    +0.042 C 
ATOM      6  C   UNL     1      34.887 -16.472 -21.482  0.00  0.00    -0.009 C 
ATOM      7  C   UNL     1      34.777 -17.559 -23.638  0.00  0.00    -0.009 C 
ATOM      8  C   UNL     1      35.416 -17.634 -20.922  0.00  0.00    -0.003 C 
ATOM      9  C   UNL     1      35.305 -18.723 -23.077  0.00  0.00    -0.003 C 
ATOM     10  C   UNL     1      34.674 -15.283 -20.603  0.00  0.00    +0.032 C 
ATOM     11  C   UNL     1      34.445 -17.550 -25.094  0.00  0.00    +0.032 C 
ATOM     12  C   UNL     1      35.625 -18.760 -21.720  0.00  0.00    -0.001 C 
ENDBRANCH   2   5
BRANCH   3  13
ATOM     13  C   UNL     1      32.636 -13.366 -23.904  0.00  0.00    +0.021 C 
BRANCH  13  14
ATOM     14  N   UNL     1      33.085 -12.236 -23.089  0.00  0.00    +0.394 N 
ATOM     15  H   UNL     1      33.622 -12.597 -22.300  0.00  0.00    -0.079 HD
BRANCH  14  16
ATOM     16  C   UNL     1      31.937 -11.497 -22.567  0.00  0.00    -0.077 C 
ATOM     17  C   UNL     1      31.715 -11.783 -21.096  0.00  0.00    -0.025 C 
ENDBRANCH  14  16
BRANCH  14  18
ATOM     18  C   UNL     1      33.949 -11.353 -23.871  0.00  0.00    -0.077 C 
BRANCH  18  19
ATOM     19  C   UNL     1      33.503  -9.902 -23.717  0.00  0.00    -0.023 C 
ATOM     20  C   UNL     1      34.639  -8.938 -24.022  0.00  0.00    -0.002 C 
ENDBRANCH  18  19
ENDBRANCH  14  18
ENDBRANCH  13  14
BRANCH  13  21
ATOM     21  C   UNL     1      33.438 -13.401 -25.211  0.00  0.00    -0.012 C 
ATOM     22  C   UNL     1      32.730 -14.201 -26.298  0.00  0.00    -0.002 C 
ENDBRANCH  13  21
ENDBRANCH   3  13
TORSDOF 7
ENDMDL
MODEL 4
REMARK VINA RESULT:      -7.4      2.376      4.005
REMARK  Name = 37497
REMARK  7 active torsions:
REMARK  status: ('A' for Active; 'I' for Inactive)
REMARK    1  A    between atoms: N_2  and  C_5
REMARK    2  A    between atoms: C_3  and  C_13
REMARK    3  A    between atoms: C_13  and  N_14
REMARK    4  A    between atoms: C_13  and  C_21
REMARK    5  A    between atoms: N_14  and  C_16
REMARK    6  A    between atoms: N_14  and  C_18
REMARK    7  A    between atoms: C_18  and  C_19
REMARK                            x       y       z     vdW  Elec       q    Type
REMARK                         _______ _______ _______ _____ _____    ______ ____
ROOT
ATOM      1  O   UNL     1      32.083 -15.008 -22.159  0.00  0.00    -0.277 OA
ATOM      2  N   UNL     1      34.056 -15.307 -23.394  0.00  0.00    -0.286 N 
ATOM      3  C   UNL     1      32.881 -14.660 -23.025  0.00  0.00    +0.207 C 
ATOM      4  H   UNL     1      34.567 -14.898 -24.130  0.00  0.00    +0.155 HD
ENDROOT
BRANCH   2   5
ATOM      5  C   UNL     1      34.604 -16.485 -22.833  0.00  0.00    +0.042 C 
ATOM      6  C   UNL     1      34.821 -17.589 -23.645  0.00  0.00    -0.009 C 
ATOM      7  C   UNL     1      34.913 -16.517 -21.481  0.00  0.00    -0.009 C 
ATOM      8  C   UNL     1      35.360 -18.751 -23.092  0.00  0.00    -0.003 C 
ATOM      9  C   UNL     1      35.453 -17.678 -20.929  0.00  0.00    -0.003 C 
ATOM     10  C   UNL     1      34.493 -17.573 -25.102  0.00  0.00    +0.032 C 
ATOM     11  C   UNL     1      34.685 -15.337 -20.593  0.00  0.00    +0.032 C 
ATOM     12  C   UNL     1      35.675 -18.795 -21.734  0.00  0.00    -0.001 C 
ENDBRANCH   2   5
BRANCH   3  13
ATOM     13  C   UNL     1      32.639 -13.414 -23.879  0.00  0.00    +0.021 C 
BRANCH  13  14
ATOM     14  N   UNL     1      33.093 -12.284 -23.067  0.00  0.00    +0.394 N 
ATOM     15  H   UNL     1      33.619 -12.647 -22.271  0.00  0.00    -0.079 HD
BRANCH  14  16
ATOM     16  C   UNL     1      31.950 -11.528 -22.560  0.00  0.00    -0.077 C 
ATOM     17  C   UNL     1      31.678 -11.843 -21.103  0.00  0.00    -0.025 C 
ENDBRANCH  14  16
BRANCH  14  18
ATOM     18  C   UNL     1      33.975 -11.417 -23.846  0.00  0.00    -0.077 C 
BRANCH  18  19
ATOM     19  C   UNL     1      33.527  -9.962 -23.729  0.00  0.00    -0.023 C 
ATOM     20  C   UNL     1      34.661  -9.005 -24.064  0.00  0.00    -0.002 C 
ENDBRANCH  18  19
ENDBRANCH  14  18
ENDBRANCH  13  14
BRANCH  13  21
ATOM     21  C   UNL     1      33.425 -13.443 -25.196  0.00  0.00    -0.012 C 
ATOM     22  C   UNL     1      32.715 -14.258 -26.271  0.00  0.00    -0.002 C 
ENDBRANCH  13  21
ENDBRANCH   3  13
TORSDOF 7
ENDMDL
MODEL 5
REMARK VINA RESULT:      -7.3      6.625     10.732
REMARK  Name = 37497
REMARK  7 active torsions:
REMARK  status: ('A' for Active; 'I' for Inactive)
REMARK    1  A    between atoms: N_2  and  C_5
REMARK    2  A    between atoms: C_3  and  C_13
REMARK    3  A    between atoms: C_13  and  N_14
REMARK    4  A    between atoms: C_13  and  C_21
REMARK    5  A    between atoms: N_14  and  C_16
REMARK    6  A    between atoms: N_14  and  C_18
REMARK    7  A    between atoms: C_18  and  C_19
REMARK                            x       y       z     vdW  Elec       q    Type
REMARK                         _______ _______ _______ _____ _____    ______ ____
ROOT
ATOM      1  O   UNL     1      35.910 -25.573 -15.832  0.00  0.00    -0.277 OA
ATOM      2  N   UNL     1      35.027 -23.426 -15.489  0.00  0.00    -0.286 N 
ATOM      3  C   UNL     1      35.371 -24.725 -15.127  0.00  0.00    +0.207 C 
ATOM      4  H   UNL     1      34.577 -22.885 -14.801  0.00  0.00    +0.155 HD
ENDROOT
BRANCH   2   5
ATOM      5  C   UNL     1      35.251 -22.791 -16.735  0.00  0.00    +0.042 C 
ATOM      6  C   UNL     1      34.225 -22.736 -17.666  0.00  0.00    -0.009 C 
ATOM      7  C   UNL     1      36.494 -22.235 -17.002  0.00  0.00    -0.009 C 
ATOM      8  C   UNL     1      34.446 -22.111 -18.894  0.00  0.00    -0.003 C 
ATOM      9  C   UNL     1      36.715 -21.610 -18.230  0.00  0.00    -0.003 C 
ATOM     10  C   UNL     1      32.881 -23.329 -17.394  0.00  0.00    +0.032 C 
ATOM     11  C   UNL     1      37.610 -22.286 -16.011  0.00  0.00    +0.032 C 
ATOM     12  C   UNL     1      35.691 -21.548 -19.175  0.00  0.00    -0.001 C 
ENDBRANCH   2   5
BRANCH   3  13
ATOM     13  C   UNL     1      34.954 -25.029 -13.687  0.00  0.00    +0.021 C 
BRANCH  13  14
ATOM     14  N   UNL     1      36.142 -24.774 -12.869  0.00  0.00    +0.394 N 
ATOM     15  H   UNL     1      36.713 -24.070 -13.337  0.00  0.00    -0.079 HD
BRANCH  14  16
ATOM     16  C   UNL     1      36.935 -25.993 -12.728  0.00  0.00    -0.077 C 
ATOM     17  C   UNL     1      38.337 -25.809 -13.273  0.00  0.00    -0.025 C 
ENDBRANCH  14  16
BRANCH  14  18
ATOM     18  C   UNL     1      35.757 -24.259 -11.556  0.00  0.00    -0.077 C 
BRANCH  18  19
ATOM     19  C   UNL     1      36.844 -23.338 -11.009  0.00  0.00    -0.023 C 
ATOM     20  C   UNL     1      37.532 -22.569 -12.126  0.00  0.00    -0.002 C 
ENDBRANCH  18  19
ENDBRANCH  14  18
ENDBRANCH  13  14
BRANCH  13  21
ATOM     21  C   UNL     1      33.804 -24.136 -13.207  0.00  0.00    -0.012 C 
ATOM     22  C   UNL     1      32.445 -24.653 -13.663  0.00  0.00    -0.002 C 
ENDBRANCH  13  21
ENDBRANCH   3  13
TORSDOF 7
ENDMDL
MODEL 6
REMARK VINA RESULT:      -7.3      1.823      7.005
REMARK  Name = 37497
REMARK  7 active torsions:
REMARK  status: ('A' for Active; 'I' for Inactive)
REMARK    1  A    between atoms: N_2  and  C_5
REMARK    2  A    between atoms: C_3  and  C_13
REMARK    3  A    between atoms: C_13  and  N_14
REMARK    4  A    between atoms: C_13  and  C_21
REMARK    5  A    between atoms: N_14  and  C_16
REMARK    6  A    between atoms: N_14  and  C_18
REMARK    7  A    between atoms: C_18  and  C_19
REMARK                            x       y       z     vdW  Elec       q    Type
REMARK                         _______ _______ _______ _____ _____    ______ ____
ROOT
ATOM      1  O   UNL     1      35.687 -15.926 -23.609  0.00  0.00    -0.277 OA
ATOM      2  N   UNL     1      33.443 -15.242 -23.666  0.00  0.00    -0.286 N 
ATOM      3  C   UNL     1      34.540 -15.939 -23.170  0.00  0.00    +0.207 C 
ATOM      4  H   UNL     1      32.587 -15.389 -23.202  0.00  0.00    +0.155 HD
ENDROOT
BRANCH   2   5
ATOM      5  C   UNL     1      33.414 -14.346 -24.761  0.00  0.00    +0.042 C 
ATOM      6  C   UNL     1      33.234 -14.842 -26.044  0.00  0.00    -0.009 C 
ATOM      7  C   UNL     1      33.568 -12.986 -24.533  0.00  0.00    -0.009 C 
ATOM      8  C   UNL     1      33.207 -13.958 -27.124  0.00  0.00    -0.003 C 
ATOM      9  C   UNL     1      33.540 -12.102 -25.612  0.00  0.00    -0.003 C 
ATOM     10  C   UNL     1      33.068 -16.303 -26.308  0.00  0.00    +0.032 C 
ATOM     11  C   UNL     1      33.762 -12.435 -23.158  0.00  0.00    +0.032 C 
ATOM     12  C   UNL     1      33.360 -12.588 -26.907  0.00  0.00    -0.001 C 
ENDBRANCH   2   5
BRANCH   3  13
ATOM     13  C   UNL     1      34.153 -16.808 -21.972  0.00  0.00    +0.021 C 
BRANCH  13  14
ATOM     14  N   UNL     1      34.730 -18.127 -22.238  0.00  0.00    +0.394 N 
ATOM     15  H   UNL     1      35.709 -18.006 -22.502  0.00  0.00    -0.079 HD
BRANCH  14  16
ATOM     16  C   UNL     1      34.029 -18.777 -23.343  0.00  0.00    -0.077 C 
ATOM     17  C   UNL     1      34.999 -19.378 -24.339  0.00  0.00    -0.025 C 
ENDBRANCH  14  16
BRANCH  14  18
ATOM     18  C   UNL     1      34.677 -18.959 -21.037  0.00  0.00    -0.077 C 
BRANCH  18  19
ATOM     19  C   UNL     1      33.339 -19.689 -20.958  0.00  0.00    -0.023 C 
ATOM     20  C   UNL     1      33.375 -20.799 -19.918  0.00  0.00    -0.002 C 
ENDBRANCH  18  19
ENDBRANCH  14  18
ENDBRANCH  13  14
BRANCH  13  21
ATOM     21  C   UNL     1      34.710 -16.265 -20.650  0.00  0.00    -0.012 C 
ATOM     22  C   UNL     1      34.362 -14.796 -20.439  0.00  0.00    -0.002 C 
ENDBRANCH  13  21
ENDBRANCH   3  13
TORSDOF 7
ENDMDL
MODEL 7
REMARK VINA RESULT:      -7.3      6.622     10.875
REMARK  Name = 37497
REMARK  7 active torsions:
REMARK  status: ('A' for Active; 'I' for Inactive)
REMARK    1  A    between atoms: N_2  and  C_5
REMARK    2  A    between atoms: C_3  and  C_13
REMARK    3  A    between atoms: C_13  and  N_14
REMARK    4  A    between atoms: C_13  and  C_21
REMARK    5  A    between atoms: N_14  and  C_16
REMARK    6  A    between atoms: N_14  and  C_18
REMARK    7  A    between atoms: C_18  and  C_19
REMARK                            x       y       z     vdW  Elec       q    Type
REMARK                         _______ _______ _______ _____ _____    ______ ____
ROOT
ATOM      1  O   UNL     1      35.966 -25.545 -15.802  0.00  0.00    -0.277 OA
ATOM      2  N   UNL     1      35.024 -23.418 -15.488  0.00  0.00    -0.286 N 
ATOM      3  C   UNL     1      35.395 -24.705 -15.111  0.00  0.00    +0.207 C 
ATOM      4  H   UNL     1      34.550 -22.885 -14.810  0.00  0.00    +0.155 HD
ENDROOT
BRANCH   2   5
ATOM      5  C   UNL     1      35.250 -22.786 -16.735  0.00  0.00    +0.042 C 
ATOM      6  C   UNL     1      36.492 -22.229 -17.002  0.00  0.00    -0.009 C 
ATOM      7  C   UNL     1      34.224 -22.734 -17.668  0.00  0.00    -0.009 C 
ATOM      8  C   UNL     1      36.714 -21.605 -18.229  0.00  0.00    -0.003 C 
ATOM      9  C   UNL     1      34.447 -22.110 -18.896  0.00  0.00    -0.003 C 
ATOM     10  C   UNL     1      37.607 -22.277 -16.008  0.00  0.00    +0.032 C 
ATOM     11  C   UNL     1      32.881 -23.328 -17.396  0.00  0.00    +0.032 C 
ATOM     12  C   UNL     1      35.691 -21.546 -19.176  0.00  0.00    -0.001 C 
ENDBRANCH   2   5
BRANCH   3  13
ATOM     13  C   UNL     1      34.965 -25.011 -13.675  0.00  0.00    +0.021 C 
BRANCH  13  14
ATOM     14  N   UNL     1      36.139 -24.737 -12.845  0.00  0.00    +0.394 N 
ATOM     15  H   UNL     1      36.732 -24.064 -13.332  0.00  0.00    -0.079 HD
BRANCH  14  16
ATOM     16  C   UNL     1      36.909 -25.961 -12.631  0.00  0.00    -0.077 C 
ATOM     17  C   UNL     1      38.318 -25.832 -13.171  0.00  0.00    -0.025 C 
ENDBRANCH  14  16
BRANCH  14  18
ATOM     18  C   UNL     1      35.735 -24.156 -11.565  0.00  0.00    -0.077 C 
BRANCH  18  19
ATOM     19  C   UNL     1      36.820 -23.217 -11.044  0.00  0.00    -0.023 C 
ATOM     20  C   UNL     1      37.574 -22.554 -12.185  0.00  0.00    -0.002 C 
ENDBRANCH  18  19
ENDBRANCH  14  18
ENDBRANCH  13  14
BRANCH  13  21
ATOM     21  C   UNL     1      33.797 -24.131 -13.212  0.00  0.00    -0.012 C 
ATOM     22  C   UNL     1      32.448 -24.689 -13.650  0.00  0.00    -0.002 C 
ENDBRANCH  13  21
ENDBRANCH   3  13
TORSDOF 7
ENDMDL
MODEL 8
REMARK VINA RESULT:      -7.3      1.668      7.142
REMARK  Name = 37497
REMARK  7 active torsions:
REMARK  status: ('A' for Active; 'I' for Inactive)
REMARK    1  A    between atoms: N_2  and  C_5
REMARK    2  A    between atoms: C_3  and  C_13
REMARK    3  A    between atoms: C_13  and  N_14
REMARK    4  A    between atoms: C_13  and  C_21
REMARK    5  A    between atoms: N_14  and  C_16
REMARK    6  A    between atoms: N_14  and  C_18
REMARK    7  A    between atoms: C_18  and  C_19
REMARK                            x       y       z     vdW  Elec       q    Type
REMARK                         _______ _______ _______ _____ _____    ______ ____
ROOT
ATOM      1  O   UNL     1      35.734 -15.827 -23.666  0.00  0.00    -0.277 OA
ATOM      2  N   UNL     1      33.460 -15.257 -23.760  0.00  0.00    -0.286 N 
ATOM      3  C   UNL     1      34.579 -15.915 -23.259  0.00  0.00    +0.207 C 
ATOM      4  H   UNL     1      32.601 -15.464 -23.324  0.00  0.00    +0.155 HD
ENDROOT
BRANCH   2   5
ATOM      5  C   UNL     1      33.412 -14.323 -24.822  0.00  0.00    +0.042 C 
ATOM      6  C   UNL     1      33.604 -12.975 -24.554  0.00  0.00    -0.009 C 
ATOM      7  C   UNL     1      33.173 -14.771 -26.113  0.00  0.00    -0.009 C 
ATOM      8  C   UNL     1      33.556 -12.054 -25.601  0.00  0.00    -0.003 C 
ATOM      9  C   UNL     1      33.126 -13.850 -27.160  0.00  0.00    -0.003 C 
ATOM     10  C   UNL     1      33.862 -12.476 -23.170  0.00  0.00    +0.032 C 
ATOM     11  C   UNL     1      32.964 -16.218 -26.419  0.00  0.00    +0.032 C 
ATOM     12  C   UNL     1      33.317 -12.492 -26.904  0.00  0.00    -0.001 C 
ENDBRANCH   2   5
BRANCH   3  13
ATOM     13  C   UNL     1      34.207 -16.847 -22.104  0.00  0.00    +0.021 C 
BRANCH  13  14
ATOM     14  N   UNL     1      35.062 -18.025 -22.256  0.00  0.00    +0.394 N 
ATOM     15  H   UNL     1      35.870 -17.769 -22.825  0.00  0.00    -0.079 HD
BRANCH  14  16
ATOM     16  C   UNL     1      34.337 -19.096 -22.938  0.00  0.00    -0.077 C 
ATOM     17  C   UNL     1      34.741 -19.200 -24.394  0.00  0.00    -0.025 C 
ENDBRANCH  14  16
BRANCH  14  18
ATOM     18  C   UNL     1      35.541 -18.481 -20.952  0.00  0.00    -0.077 C 
BRANCH  18  19
ATOM     19  C   UNL     1      35.075 -19.909 -20.685  0.00  0.00    -0.023 C 
ATOM     20  C   UNL     1      36.180 -20.744 -20.058  0.00  0.00    -0.002 C 
ENDBRANCH  18  19
ENDBRANCH  14  18
ENDBRANCH  13  14
BRANCH  13  21
ATOM     21  C   UNL     1      34.459 -16.209 -20.732  0.00  0.00    -0.012 C 
ATOM     22  C   UNL     1      33.442 -15.120 -20.409  0.00  0.00    -0.002 C 
ENDBRANCH  13  21
ENDBRANCH   3  13
TORSDOF 7
ENDMDL
MODEL 9
REMARK VINA RESULT:      -7.3      3.206      7.729
REMARK  Name = 37497
REMARK  7 active torsions:
REMARK  status: ('A' for Active; 'I' for Inactive)
REMARK    1  A    between atoms: N_2  and  C_5
REMARK    2  A    between atoms: C_3  and  C_13
REMARK    3  A    between atoms: C_13  and  N_14
REMARK    4  A    between atoms: C_13  and  C_21
REMARK    5  A    between atoms: N_14  and  C_16
REMARK    6  A    between atoms: N_14  and  C_18
REMARK    7  A    between atoms: C_18  and  C_19
REMARK                            x       y       z     vdW  Elec       q    Type
REMARK                         _______ _______ _______ _____ _____    ______ ____
ROOT
ATOM      1  O   UNL     1      34.635 -13.401 -22.126  0.00  0.00    -0.277 OA
ATOM      2  N   UNL     1      32.674 -12.717 -23.217  0.00  0.00    -0.286 N 
ATOM      3  C   UNL     1      33.603 -13.639 -22.747  0.00  0.00    +0.207 C 
ATOM      4  H   UNL     1      31.911 -13.083 -23.720  0.00  0.00    +0.155 HD
ENDROOT
BRANCH   2   5
ATOM      5  C   UNL     1      32.698 -11.310 -23.056  0.00  0.00    +0.042 C 
ATOM      6  C   UNL     1      31.938 -10.726 -22.054  0.00  0.00    -0.009 C 
ATOM      7  C   UNL     1      33.480 -10.541 -23.905  0.00  0.00    -0.009 C 
ATOM      8  C   UNL     1      31.960  -9.340 -21.896  0.00  0.00    -0.003 C 
ATOM      9  C   UNL     1      33.503  -9.155 -23.747  0.00  0.00    -0.003 C 
ATOM     10  C   UNL     1      31.090 -11.540 -21.132  0.00  0.00    +0.032 C 
ATOM     11  C   UNL     1      34.304 -11.154 -24.990  0.00  0.00    +0.032 C 
ATOM     12  C   UNL     1      32.743  -8.555 -22.743  0.00  0.00    -0.001 C 
ENDBRANCH   2   5
BRANCH   3  13
ATOM     13  C   UNL     1      33.214 -15.067 -23.133  0.00  0.00    +0.021 C 
BRANCH  13  14
ATOM     14  N   UNL     1      34.156 -15.464 -24.181  0.00  0.00    +0.394 N 
ATOM     15  H   UNL     1      34.776 -14.678 -24.375  0.00  0.00    -0.079 HD
BRANCH  14  16
ATOM     16  C   UNL     1      33.439 -15.802 -25.409  0.00  0.00    -0.077 C 
ATOM     17  C   UNL     1      33.109 -14.564 -26.217  0.00  0.00    -0.025 C 
ENDBRANCH  14  16
BRANCH  14  18
ATOM     18  C   UNL     1      34.969 -16.595 -23.736  0.00  0.00    -0.077 C 
BRANCH  18  19
ATOM     19  C   UNL     1      34.858 -17.750 -24.726  0.00  0.00    -0.023 C 
ATOM     20  C   UNL     1      34.815 -19.091 -24.010  0.00  0.00    -0.002 C 
ENDBRANCH  18  19
ENDBRANCH  14  18
ENDBRANCH  13  14
BRANCH  13  21
ATOM     21  C   UNL     1      33.323 -16.044 -21.955  0.00  0.00    -0.012 C 
ATOM     22  C   UNL     1      32.457 -15.619 -20.775  0.00  0.00    -0.002 C 
ENDBRANCH  13  21
ENDBRANCH   3  13
TORSDOF 7
ENDMDL
