MODEL 1
REMARK VINA RESULT:      -8.9      0.000      0.000
REMARK  Name = 65864
REMARK  13 active torsions:
REMARK  status: ('A' for Active; 'I' for Inactive)
REMARK    1  A    between atoms: C_5  and  N_11
REMARK    2  A    between atoms: C_5  and  O_19
REMARK    3  A    between atoms: C_7  and  C_22
REMARK    4  A    between atoms: C_8  and  C_25
REMARK    5  A    between atoms: C_12  and  C_14
REMARK    6  A    between atoms: C_14  and  S_15
REMARK    7  A    between atoms: S_15  and  C_18
REMARK    8  A    between atoms: C_22  and  O_23
REMARK    9  A    between atoms: C_25  and  S_26
REMARK   10  A    between atoms: S_26  and  C_31
REMARK   11  A    between atoms: N_27  and  C_32
REMARK   12  A    between atoms: C_32  and  C_33
REMARK   13  A    between atoms: C_33  and  O_34
REMARK                            x       y       z     vdW  Elec       q    Type
REMARK                         _______ _______ _______ _____ _____    ______ ____
ROOT
ATOM      1  O   UNL     1      36.449 -19.215 -20.360  0.00  0.00    -0.329 OA
ATOM      2  O   UNL     1      32.175 -20.197 -21.021  0.00  0.00    -0.270 OA
ATOM      3  N   UNL     1      34.460 -20.526 -20.572  0.00  0.00    -0.223 N 
ATOM      4  C   UNL     1      35.445 -19.715 -21.255  0.00  0.00    +0.251 C 
ATOM      5  C   UNL     1      34.254 -18.834 -21.702  0.00  0.00    +0.267 C 
ATOM      6  C   UNL     1      33.358 -19.963 -21.100  0.00  0.00    +0.278 C 
ATOM      7  C   UNL     1      34.838 -21.408 -19.618  0.00  0.00    +0.127 C 
ATOM      8  C   UNL     1      36.104 -21.359 -19.141  0.00  0.00    +0.017 C 
ATOM      9  C   UNL     1      37.077 -20.259 -19.592  0.00  0.00    +0.169 C 
ENDROOT
BRANCH   5  11
ATOM     10  O   UNL     1      35.262 -16.248 -22.500  0.00  0.00    -0.274 OA
ATOM     11  N   UNL     1      34.158 -17.577 -20.951  0.00  0.00    -0.275 N 
ATOM     12  C   UNL     1      34.679 -16.378 -21.425  0.00  0.00    +0.236 C 
ATOM     13  H   UNL     1      33.706 -17.584 -20.076  0.00  0.00    +0.152 HD
BRANCH  12  14
ATOM     14  C   UNL     1      34.445 -15.212 -20.494  0.00  0.00    +0.148 C 
BRANCH  14  15
ATOM     15  S   UNL     1      32.678 -14.825 -20.470  0.00  0.00    -0.061 S 
BRANCH  15  18
ATOM     16  F   UNL     1      32.486 -14.342 -23.030  0.00  0.00    -0.186 F 
ATOM     17  F   UNL     1      31.565 -12.838 -21.750  0.00  0.00    -0.186 F 
ATOM     18  C   UNL     1      32.628 -13.676 -21.858  0.00  0.00    +0.367 C 
ENDBRANCH  15  18
ENDBRANCH  14  15
ENDBRANCH  12  14
ENDBRANCH   5  11
BRANCH   5  19
ATOM     19  O   UNL     1      34.075 -18.695 -23.124  0.00  0.00    -0.328 OA
ATOM     20  C   UNL     1      35.118 -19.230 -23.928  0.00  0.00    +0.177 C 
ENDBRANCH   5  19
BRANCH   7  22
ATOM     21  O   UNL     1      32.899 -22.007 -18.381  0.00  0.00    -0.244 OA
ATOM     22  C   UNL     1      33.823 -22.332 -19.103  0.00  0.00    +0.352 C 
BRANCH  22  23
ATOM     23  O   UNL     1      34.078 -23.578 -19.554  0.00  0.00    -0.476 OA
ATOM     24  H   UNL     1      34.526 -24.192 -19.007  0.00  0.00    +0.295 HD
ENDBRANCH  22  23
ENDBRANCH   7  22
BRANCH   8  25
ATOM     25  C   UNL     1      36.701 -22.297 -18.127  0.00  0.00    +0.091 C 
BRANCH  25  26
ATOM     26  S   UNL     1      36.502 -21.603 -16.475  0.00  0.00    -0.070 S 
BRANCH  26  31
ATOM     27  N   UNL     1      36.229 -23.998 -15.118  0.00  0.00    -0.206 N 
ATOM     28  N   UNL     1      34.328 -23.041 -15.531  0.00  0.00    -0.101 NA
ATOM     29  N   UNL     1      35.302 -24.816 -14.599  0.00  0.00    -0.042 NA
ATOM     30  N   UNL     1      34.142 -24.225 -14.854  0.00  0.00    -0.022 NA
ATOM     31  C   UNL     1      35.627 -22.920 -15.683  0.00  0.00    +0.211 A 
BRANCH  27  32
ATOM     32  C   UNL     1      37.629 -24.330 -15.023  0.00  0.00    +0.163 C 
BRANCH  32  33
ATOM     33  C   UNL     1      37.860 -25.806 -14.730  0.00  0.00    +0.164 C 
BRANCH  33  34
ATOM     34  O   UNL     1      37.329 -26.594 -15.787  0.00  0.00    -0.380 OA
ATOM     35  H   UNL     1      36.941 -26.013 -16.460  0.00  0.00    +0.211 HD
ENDBRANCH  33  34
ENDBRANCH  32  33
ENDBRANCH  27  32
ENDBRANCH  26  31
ENDBRANCH  25  26
ENDBRANCH   8  25
TORSDOF 13
ENDMDL
MODEL 2
REMARK VINA RESULT:      -8.6      1.590      1.743
REMARK  Name = 65864
REMARK  13 active torsions:
REMARK  status: ('A' for Active; 'I' for Inactive)
REMARK    1  A    between atoms: C_5  and  N_11
REMARK    2  A    between atoms: C_5  and  O_19
REMARK    3  A    between atoms: C_7  and  C_22
REMARK    4  A    between atoms: C_8  and  C_25
REMARK    5  A    between atoms: C_12  and  C_14
REMARK    6  A    between atoms: C_14  and  S_15
REMARK    7  A    between atoms: S_15  and  C_18
REMARK    8  A    between atoms: C_22  and  O_23
REMARK    9  A    between atoms: C_25  and  S_26
REMARK   10  A    between atoms: S_26  and  C_31
REMARK   11  A    between atoms: N_27  and  C_32
REMARK   12  A    between atoms: C_32  and  C_33
REMARK   13  A    between atoms: C_33  and  O_34
REMARK                            x       y       z     vdW  Elec       q    Type
REMARK                         _______ _______ _______ _____ _____    ______ ____
ROOT
ATOM      1  O   UNL     1      36.714 -20.154 -19.220  0.00  0.00    -0.329 OA
ATOM      2  O   UNL     1      32.645 -20.506 -20.949  0.00  0.00    -0.270 OA
ATOM      3  N   UNL     1      34.624 -21.135 -19.847  0.00  0.00    -0.223 N 
ATOM      4  C   UNL     1      35.894 -20.611 -20.305  0.00  0.00    +0.251 C 
ATOM      5  C   UNL     1      35.059 -19.624 -21.155  0.00  0.00    +0.267 C 
ATOM      6  C   UNL     1      33.830 -20.485 -20.717  0.00  0.00    +0.278 C 
ATOM      7  C   UNL     1      34.560 -21.911 -18.741  0.00  0.00    +0.127 C 
ATOM      8  C   UNL     1      35.645 -22.000 -17.935  0.00  0.00    +0.017 C 
ATOM      9  C   UNL     1      36.901 -21.158 -18.205  0.00  0.00    +0.169 C 
ENDROOT
BRANCH   5  11
ATOM     10  O   UNL     1      33.890 -17.270 -22.352  0.00  0.00    -0.274 OA
ATOM     11  N   UNL     1      35.027 -18.270 -20.593  0.00  0.00    -0.275 N 
ATOM     12  C   UNL     1      34.436 -17.197 -21.253  0.00  0.00    +0.236 C 
ATOM     13  H   UNL     1      35.441 -18.114 -19.713  0.00  0.00    +0.152 HD
BRANCH  12  14
ATOM     14  C   UNL     1      34.505 -15.903 -20.477  0.00  0.00    +0.148 C 
BRANCH  14  15
ATOM     15  S   UNL     1      34.329 -14.519 -21.629  0.00  0.00    -0.061 S 
BRANCH  15  18
ATOM     16  F   UNL     1      31.860 -15.279 -21.235  0.00  0.00    -0.186 F 
ATOM     17  F   UNL     1      32.431 -13.460 -20.179  0.00  0.00    -0.186 F 
ATOM     18  C   UNL     1      32.589 -14.141 -21.343  0.00  0.00    +0.367 C 
ENDBRANCH  15  18
ENDBRANCH  14  15
ENDBRANCH  12  14
ENDBRANCH   5  11
BRANCH   5  19
ATOM     19  O   UNL     1      35.282 -19.676 -22.577  0.00  0.00    -0.328 OA
ATOM     20  C   UNL     1      36.391 -18.923 -23.050  0.00  0.00    +0.177 C 
ENDBRANCH   5  19
BRANCH   7  22
ATOM     21  O   UNL     1      32.282 -21.984 -18.070  0.00  0.00    -0.244 OA
ATOM     22  C   UNL     1      33.283 -22.566 -18.441  0.00  0.00    +0.352 C 
BRANCH  22  23
ATOM     23  O   UNL     1      33.401 -23.896 -18.639  0.00  0.00    -0.476 OA
ATOM     24  H   UNL     1      33.930 -24.219 -19.341  0.00  0.00    +0.295 HD
ENDBRANCH  22  23
ENDBRANCH   7  22
BRANCH   8  25
ATOM     25  C   UNL     1      35.761 -22.859 -16.705  0.00  0.00    +0.091 C 
BRANCH  25  26
ATOM     26  S   UNL     1      37.342 -22.542 -15.898  0.00  0.00    -0.070 S 
BRANCH  26  31
ATOM     27  N   UNL     1      37.594 -24.714 -14.203  0.00  0.00    -0.206 N 
ATOM     28  N   UNL     1      36.495 -23.071 -13.311  0.00  0.00    -0.101 NA
ATOM     29  N   UNL     1      37.268 -25.134 -12.972  0.00  0.00    -0.042 NA
ATOM     30  N   UNL     1      36.597 -24.124 -12.432  0.00  0.00    -0.022 NA
ATOM     31  C   UNL     1      37.120 -23.456 -14.400  0.00  0.00    +0.211 A 
BRANCH  27  32
ATOM     32  C   UNL     1      38.341 -25.569 -15.090  0.00  0.00    +0.163 C 
BRANCH  32  33
ATOM     33  C   UNL     1      39.841 -25.502 -14.839  0.00  0.00    +0.164 C 
BRANCH  33  34
ATOM     34  O   UNL     1      40.540 -25.983 -15.979  0.00  0.00    -0.380 OA
ATOM     35  H   UNL     1      41.277 -26.546 -15.694  0.00  0.00    +0.211 HD
ENDBRANCH  33  34
ENDBRANCH  32  33
ENDBRANCH  27  32
ENDBRANCH  26  31
ENDBRANCH  25  26
ENDBRANCH   8  25
TORSDOF 13
ENDMDL
MODEL 3
REMARK VINA RESULT:      -8.4      3.903      6.260
REMARK  Name = 65864
REMARK  13 active torsions:
REMARK  status: ('A' for Active; 'I' for Inactive)
REMARK    1  A    between atoms: C_5  and  N_11
REMARK    2  A    between atoms: C_5  and  O_19
REMARK    3  A    between atoms: C_7  and  C_22
REMARK    4  A    between atoms: C_8  and  C_25
REMARK    5  A    between atoms: C_12  and  C_14
REMARK    6  A    between atoms: C_14  and  S_15
REMARK    7  A    between atoms: S_15  and  C_18
REMARK    8  A    between atoms: C_22  and  O_23
REMARK    9  A    between atoms: C_25  and  S_26
REMARK   10  A    between atoms: S_26  and  C_31
REMARK   11  A    between atoms: N_27  and  C_32
REMARK   12  A    between atoms: C_32  and  C_33
REMARK   13  A    between atoms: C_33  and  O_34
REMARK                            x       y       z     vdW  Elec       q    Type
REMARK                         _______ _______ _______ _____ _____    ______ ____
ROOT
ATOM      1  O   UNL     1      35.170 -15.303 -24.011  0.00  0.00    -0.329 OA
ATOM      2  O   UNL     1      31.588 -13.099 -22.603  0.00  0.00    -0.270 OA
ATOM      3  N   UNL     1      33.097 -14.878 -22.894  0.00  0.00    -0.223 N 
ATOM      4  C   UNL     1      33.767 -15.046 -24.167  0.00  0.00    +0.251 C 
ATOM      5  C   UNL     1      33.241 -13.631 -24.508  0.00  0.00    +0.267 C 
ATOM      6  C   UNL     1      32.411 -13.760 -23.191  0.00  0.00    +0.278 C 
ATOM      7  C   UNL     1      33.398 -15.683 -21.849  0.00  0.00    +0.127 C 
ATOM      8  C   UNL     1      34.488 -16.483 -21.926  0.00  0.00    +0.017 C 
ATOM      9  C   UNL     1      35.435 -16.414 -23.133  0.00  0.00    +0.169 C 
ENDROOT
BRANCH   5  11
ATOM     10  O   UNL     1      32.854 -10.769 -24.525  0.00  0.00    -0.274 OA
ATOM     11  N   UNL     1      34.279 -12.598 -24.422  0.00  0.00    -0.275 N 
ATOM     12  C   UNL     1      33.988 -11.238 -24.438  0.00  0.00    +0.236 C 
ATOM     13  H   UNL     1      35.220 -12.879 -24.349  0.00  0.00    +0.152 HD
BRANCH  12  14
ATOM     14  C   UNL     1      35.210 -10.360 -24.318  0.00  0.00    +0.148 C 
BRANCH  14  15
ATOM     15  S   UNL     1      34.806  -8.705 -24.927  0.00  0.00    -0.061 S 
BRANCH  15  18
ATOM     16  F   UNL     1      34.083  -6.626 -23.520  0.00  0.00    -0.186 F 
ATOM     17  F   UNL     1      33.684  -8.547 -22.572  0.00  0.00    -0.186 F 
ATOM     18  C   UNL     1      34.578  -7.876 -23.342  0.00  0.00    +0.367 C 
ENDBRANCH  15  18
ENDBRANCH  14  15
ENDBRANCH  12  14
ENDBRANCH   5  11
BRANCH   5  19
ATOM     19  O   UNL     1      32.402 -13.538 -25.675  0.00  0.00    -0.328 OA
ATOM     20  C   UNL     1      33.087 -13.487 -26.919  0.00  0.00    +0.177 C 
ENDBRANCH   5  19
BRANCH   7  22
ATOM     21  O   UNL     1      32.679 -14.747 -19.786  0.00  0.00    -0.244 OA
ATOM     22  C   UNL     1      32.554 -15.591 -20.653  0.00  0.00    +0.352 C 
BRANCH  22  23
ATOM     23  O   UNL     1      31.636 -16.579 -20.673  0.00  0.00    -0.476 OA
ATOM     24  H   UNL     1      31.279 -16.903 -19.870  0.00  0.00    +0.295 HD
ENDBRANCH  22  23
ENDBRANCH   7  22
BRANCH   8  25
ATOM     25  C   UNL     1      34.930 -17.474 -20.883  0.00  0.00    +0.091 C 
BRANCH  25  26
ATOM     26  S   UNL     1      35.256 -19.065 -21.665  0.00  0.00    -0.070 S 
BRANCH  26  31
ATOM     27  N   UNL     1      34.890 -21.039 -19.763  0.00  0.00    -0.206 N 
ATOM     28  N   UNL     1      33.023 -20.204 -20.481  0.00  0.00    -0.101 NA
ATOM     29  N   UNL     1      33.930 -21.694 -19.094  0.00  0.00    -0.042 NA
ATOM     30  N   UNL     1      32.791 -21.178 -19.537  0.00  0.00    -0.022 NA
ATOM     31  C   UNL     1      34.328 -20.133 -20.605  0.00  0.00    +0.211 A 
BRANCH  27  32
ATOM     32  C   UNL     1      36.279 -21.346 -19.530  0.00  0.00    +0.163 C 
BRANCH  32  33
ATOM     33  C   UNL     1      36.564 -21.697 -18.076  0.00  0.00    +0.164 C 
BRANCH  33  34
ATOM     34  O   UNL     1      37.172 -20.590 -17.425  0.00  0.00    -0.380 OA
ATOM     35  H   UNL     1      36.745 -20.444 -16.567  0.00  0.00    +0.211 HD
ENDBRANCH  33  34
ENDBRANCH  32  33
ENDBRANCH  27  32
ENDBRANCH  26  31
ENDBRANCH  25  26
ENDBRANCH   8  25
TORSDOF 13
ENDMDL
MODEL 4
REMARK VINA RESULT:      -8.2      4.833      9.378
REMARK  Name = 65864
REMARK  13 active torsions:
REMARK  status: ('A' for Active; 'I' for Inactive)
REMARK    1  A    between atoms: C_5  and  N_11
REMARK    2  A    between atoms: C_5  and  O_19
REMARK    3  A    between atoms: C_7  and  C_22
REMARK    4  A    between atoms: C_8  and  C_25
REMARK    5  A    between atoms: C_12  and  C_14
REMARK    6  A    between atoms: C_14  and  S_15
REMARK    7  A    between atoms: S_15  and  C_18
REMARK    8  A    between atoms: C_22  and  O_23
REMARK    9  A    between atoms: C_25  and  S_26
REMARK   10  A    between atoms: S_26  and  C_31
REMARK   11  A    between atoms: N_27  and  C_32
REMARK   12  A    between atoms: C_32  and  C_33
REMARK   13  A    between atoms: C_33  and  O_34
REMARK                            x       y       z     vdW  Elec       q    Type
REMARK                         _______ _______ _______ _____ _____    ______ ____
ROOT
ATOM      1  O   UNL     1      37.052 -21.690 -17.168  0.00  0.00    -0.329 OA
ATOM      2  O   UNL     1      33.464 -24.255 -16.696  0.00  0.00    -0.270 OA
ATOM      3  N   UNL     1      34.818 -22.491 -17.464  0.00  0.00    -0.223 N 
ATOM      4  C   UNL     1      35.765 -21.873 -16.561  0.00  0.00    +0.251 C 
ATOM      5  C   UNL     1      35.482 -23.067 -15.618  0.00  0.00    +0.267 C 
ATOM      6  C   UNL     1      34.340 -23.425 -16.622  0.00  0.00    +0.278 C 
ATOM      7  C   UNL     1      34.767 -22.122 -18.764  0.00  0.00    +0.127 C 
ATOM      8  C   UNL     1      35.758 -21.348 -19.268  0.00  0.00    +0.017 C 
ATOM      9  C   UNL     1      36.979 -20.974 -18.416  0.00  0.00    +0.169 C 
ENDROOT
BRANCH   5  11
ATOM     10  O   UNL     1      37.878 -23.030 -14.005  0.00  0.00    -0.274 OA
ATOM     11  N   UNL     1      36.561 -24.061 -15.613  0.00  0.00    -0.275 N 
ATOM     12  C   UNL     1      37.680 -23.952 -14.794  0.00  0.00    +0.236 C 
ATOM     13  H   UNL     1      36.490 -24.838 -16.215  0.00  0.00    +0.152 HD
BRANCH  12  14
ATOM     14  C   UNL     1      38.649 -25.100 -14.945  0.00  0.00    +0.148 C 
BRANCH  14  15
ATOM     15  S   UNL     1      39.093 -25.711 -13.301  0.00  0.00    -0.061 S 
BRANCH  15  18
ATOM     16  F   UNL     1      36.741 -25.535 -12.178  0.00  0.00    -0.186 F 
ATOM     17  F   UNL     1      36.812 -26.814 -13.941  0.00  0.00    -0.186 F 
ATOM     18  C   UNL     1      37.508 -26.436 -12.838  0.00  0.00    +0.367 C 
ENDBRANCH  15  18
ENDBRANCH  14  15
ENDBRANCH  12  14
ENDBRANCH   5  11
BRANCH   5  19
ATOM     19  O   UNL     1      34.976 -22.730 -14.313  0.00  0.00    -0.328 OA
ATOM     20  C   UNL     1      34.463 -23.817 -13.555  0.00  0.00    +0.177 C 
ENDBRANCH   5  19
BRANCH   7  22
ATOM     21  O   UNL     1      32.729 -21.972 -19.978  0.00  0.00    -0.244 OA
ATOM     22  C   UNL     1      33.663 -22.641 -19.578  0.00  0.00    +0.352 C 
BRANCH  22  23
ATOM     23  O   UNL     1      33.852 -23.957 -19.806  0.00  0.00    -0.476 OA
ATOM     24  H   UNL     1      33.161 -24.566 -19.637  0.00  0.00    +0.295 HD
ENDBRANCH  22  23
ENDBRANCH   7  22
BRANCH   8  25
ATOM     25  C   UNL     1      35.825 -20.804 -20.669  0.00  0.00    +0.091 C 
BRANCH  25  26
ATOM     26  S   UNL     1      36.928 -19.379 -20.709  0.00  0.00    -0.070 S 
BRANCH  26  31
ATOM     27  N   UNL     1      35.301 -18.034 -22.497  0.00  0.00    -0.206 N 
ATOM     28  N   UNL     1      35.307 -17.138 -20.523  0.00  0.00    -0.101 NA
ATOM     29  N   UNL     1      34.476 -16.981 -22.586  0.00  0.00    -0.042 NA
ATOM     30  N   UNL     1      34.483 -16.437 -21.375  0.00  0.00    -0.022 NA
ATOM     31  C   UNL     1      35.801 -18.122 -21.237  0.00  0.00    +0.211 A 
BRANCH  27  32
ATOM     32  C   UNL     1      35.537 -18.873 -23.645  0.00  0.00    +0.163 C 
BRANCH  32  33
ATOM     33  C   UNL     1      34.444 -18.744 -24.697  0.00  0.00    +0.164 C 
BRANCH  33  34
ATOM     34  O   UNL     1      34.667 -17.577 -25.478  0.00  0.00    -0.380 OA
ATOM     35  H   UNL     1      35.486 -17.678 -25.986  0.00  0.00    +0.211 HD
ENDBRANCH  33  34
ENDBRANCH  32  33
ENDBRANCH  27  32
ENDBRANCH  26  31
ENDBRANCH  25  26
ENDBRANCH   8  25
TORSDOF 13
ENDMDL
MODEL 5
REMARK VINA RESULT:      -8.1      4.650      9.489
REMARK  Name = 65864
REMARK  13 active torsions:
REMARK  status: ('A' for Active; 'I' for Inactive)
REMARK    1  A    between atoms: C_5  and  N_11
REMARK    2  A    between atoms: C_5  and  O_19
REMARK    3  A    between atoms: C_7  and  C_22
REMARK    4  A    between atoms: C_8  and  C_25
REMARK    5  A    between atoms: C_12  and  C_14
REMARK    6  A    between atoms: C_14  and  S_15
REMARK    7  A    between atoms: S_15  and  C_18
REMARK    8  A    between atoms: C_22  and  O_23
REMARK    9  A    between atoms: C_25  and  S_26
REMARK   10  A    between atoms: S_26  and  C_31
REMARK   11  A    between atoms: N_27  and  C_32
REMARK   12  A    between atoms: C_32  and  C_33
REMARK   13  A    between atoms: C_33  and  O_34
REMARK                            x       y       z     vdW  Elec       q    Type
REMARK                         _______ _______ _______ _____ _____    ______ ____
ROOT
ATOM      1  O   UNL     1      36.865 -22.244 -16.708  0.00  0.00    -0.329 OA
ATOM      2  O   UNL     1      32.888 -24.206 -16.777  0.00  0.00    -0.270 OA
ATOM      3  N   UNL     1      34.593 -22.679 -17.317  0.00  0.00    -0.223 N 
ATOM      4  C   UNL     1      35.495 -22.220 -16.282  0.00  0.00    +0.251 C 
ATOM      5  C   UNL     1      34.903 -23.355 -15.412  0.00  0.00    +0.267 C 
ATOM      6  C   UNL     1      33.865 -23.526 -16.567  0.00  0.00    +0.278 C 
ATOM      7  C   UNL     1      34.777 -22.305 -18.603  0.00  0.00    +0.127 C 
ATOM      8  C   UNL     1      35.936 -21.699 -18.954  0.00  0.00    +0.017 C 
ATOM      9  C   UNL     1      37.074 -21.524 -17.937  0.00  0.00    +0.169 C 
ENDROOT
BRANCH   5  11
ATOM     10  O   UNL     1      37.211 -23.584 -13.691  0.00  0.00    -0.274 OA
ATOM     11  N   UNL     1      35.801 -24.508 -15.286  0.00  0.00    -0.275 N 
ATOM     12  C   UNL     1      36.892 -24.519 -14.423  0.00  0.00    +0.236 C 
ATOM     13  H   UNL     1      35.624 -25.307 -15.835  0.00  0.00    +0.152 HD
BRANCH  12  14
ATOM     14  C   UNL     1      37.662 -25.817 -14.446  0.00  0.00    +0.148 C 
BRANCH  14  15
ATOM     15  S   UNL     1      38.988 -25.735 -13.217  0.00  0.00    -0.061 S 
BRANCH  15  18
ATOM     16  F   UNL     1      40.954 -26.696 -14.644  0.00  0.00    -0.186 F 
ATOM     17  F   UNL     1      39.981 -24.944 -15.501  0.00  0.00    -0.186 F 
ATOM     18  C   UNL     1      40.385 -25.505 -14.332  0.00  0.00    +0.367 C 
ENDBRANCH  15  18
ENDBRANCH  14  15
ENDBRANCH  12  14
ENDBRANCH   5  11
BRANCH   5  19
ATOM     19  O   UNL     1      34.284 -22.943 -14.179  0.00  0.00    -0.328 OA
ATOM     20  C   UNL     1      33.711 -23.987 -13.403  0.00  0.00    +0.177 C 
ENDBRANCH   5  19
BRANCH   7  22
ATOM     21  O   UNL     1      32.880 -21.863 -19.965  0.00  0.00    -0.244 OA
ATOM     22  C   UNL     1      33.726 -22.642 -19.569  0.00  0.00    +0.352 C 
BRANCH  22  23
ATOM     23  O   UNL     1      33.851 -23.933 -19.939  0.00  0.00    -0.476 OA
ATOM     24  H   UNL     1      33.162 -24.354 -20.413  0.00  0.00    +0.295 HD
ENDBRANCH  22  23
ENDBRANCH   7  22
BRANCH   8  25
ATOM     25  C   UNL     1      36.278 -21.170 -20.320  0.00  0.00    +0.091 C 
BRANCH  25  26
ATOM     26  S   UNL     1      36.446 -19.377 -20.248  0.00  0.00    -0.070 S 
BRANCH  26  31
ATOM     27  N   UNL     1      34.979 -17.687 -21.873  0.00  0.00    -0.206 N 
ATOM     28  N   UNL     1      35.258 -19.656 -22.737  0.00  0.00    -0.101 NA
ATOM     29  N   UNL     1      34.351 -17.645 -23.056  0.00  0.00    -0.042 NA
ATOM     30  N   UNL     1      34.525 -18.852 -23.580  0.00  0.00    -0.022 NA
ATOM     31  C   UNL     1      35.528 -18.915 -21.687  0.00  0.00    +0.211 A 
BRANCH  27  32
ATOM     32  C   UNL     1      34.995 -16.528 -21.015  0.00  0.00    +0.163 C 
BRANCH  32  33
ATOM     33  C   UNL     1      34.108 -15.405 -21.535  0.00  0.00    +0.164 C 
BRANCH  33  34
ATOM     34  O   UNL     1      34.809 -14.659 -22.521  0.00  0.00    -0.380 OA
ATOM     35  H   UNL     1      34.201 -14.036 -22.949  0.00  0.00    +0.211 HD
ENDBRANCH  33  34
ENDBRANCH  32  33
ENDBRANCH  27  32
ENDBRANCH  26  31
ENDBRANCH  25  26
ENDBRANCH   8  25
TORSDOF 13
ENDMDL
MODEL 6
REMARK VINA RESULT:      -8.1      3.525      6.466
REMARK  Name = 65864
REMARK  13 active torsions:
REMARK  status: ('A' for Active; 'I' for Inactive)
REMARK    1  A    between atoms: C_5  and  N_11
REMARK    2  A    between atoms: C_5  and  O_19
REMARK    3  A    between atoms: C_7  and  C_22
REMARK    4  A    between atoms: C_8  and  C_25
REMARK    5  A    between atoms: C_12  and  C_14
REMARK    6  A    between atoms: C_14  and  S_15
REMARK    7  A    between atoms: S_15  and  C_18
REMARK    8  A    between atoms: C_22  and  O_23
REMARK    9  A    between atoms: C_25  and  S_26
REMARK   10  A    between atoms: S_26  and  C_31
REMARK   11  A    between atoms: N_27  and  C_32
REMARK   12  A    between atoms: C_32  and  C_33
REMARK   13  A    between atoms: C_33  and  O_34
REMARK                            x       y       z     vdW  Elec       q    Type
REMARK                         _______ _______ _______ _____ _____    ______ ____
ROOT
ATOM      1  O   UNL     1      34.206 -14.586 -21.874  0.00  0.00    -0.329 OA
ATOM      2  O   UNL     1      32.962 -13.652 -26.028  0.00  0.00    -0.270 OA
ATOM      3  N   UNL     1      34.082 -14.724 -24.259  0.00  0.00    -0.223 N 
ATOM      4  C   UNL     1      34.524 -13.948 -23.120  0.00  0.00    +0.251 C 
ATOM      5  C   UNL     1      33.645 -12.810 -23.688  0.00  0.00    +0.267 C 
ATOM      6  C   UNL     1      33.489 -13.729 -24.943  0.00  0.00    +0.278 C 
ATOM      7  C   UNL     1      34.230 -16.068 -24.274  0.00  0.00    +0.127 C 
ATOM      8  C   UNL     1      34.573 -16.706 -23.130  0.00  0.00    +0.017 C 
ATOM      9  C   UNL     1      34.695 -15.939 -21.804  0.00  0.00    +0.169 C 
ENDROOT
BRANCH   5  11
ATOM     10  O   UNL     1      32.631 -10.372 -22.516  0.00  0.00    -0.274 OA
ATOM     11  N   UNL     1      32.385 -12.638 -22.955  0.00  0.00    -0.275 N 
ATOM     12  C   UNL     1      31.985 -11.415 -22.426  0.00  0.00    +0.236 C 
ATOM     13  H   UNL     1      31.800 -13.420 -22.833  0.00  0.00    +0.152 HD
BRANCH  12  14
ATOM     14  C   UNL     1      30.647 -11.471 -21.731  0.00  0.00    +0.148 C 
BRANCH  14  15
ATOM     15  S   UNL     1      30.666 -10.328 -20.329  0.00  0.00    -0.061 S 
BRANCH  15  18
ATOM     16  F   UNL     1      31.337 -11.194 -17.957  0.00  0.00    -0.186 F 
ATOM     17  F   UNL     1      31.817 -12.554 -19.591  0.00  0.00    -0.186 F 
ATOM     18  C   UNL     1      31.773 -11.243 -19.240  0.00  0.00    +0.367 C 
ENDBRANCH  15  18
ENDBRANCH  14  15
ENDBRANCH  12  14
ENDBRANCH   5  11
BRANCH   5  19
ATOM     19  O   UNL     1      34.329 -11.580 -23.994  0.00  0.00    -0.328 OA
ATOM     20  C   UNL     1      34.234 -11.146 -25.344  0.00  0.00    +0.177 C 
ENDBRANCH   5  19
BRANCH   7  22
ATOM     21  O   UNL     1      32.834 -16.881 -26.017  0.00  0.00    -0.244 OA
ATOM     22  C   UNL     1      33.942 -16.773 -25.528  0.00  0.00    +0.352 C 
BRANCH  22  23
ATOM     23  O   UNL     1      35.087 -17.271 -26.038  0.00  0.00    -0.476 OA
ATOM     24  H   UNL     1      35.827 -16.710 -26.163  0.00  0.00    +0.295 HD
ENDBRANCH  22  23
ENDBRANCH   7  22
BRANCH   8  25
ATOM     25  C   UNL     1      34.833 -18.181 -22.985  0.00  0.00    +0.091 C 
BRANCH  25  26
ATOM     26  S   UNL     1      35.601 -18.503 -21.387  0.00  0.00    -0.070 S 
BRANCH  26  31
ATOM     27  N   UNL     1      34.778 -20.813 -20.105  0.00  0.00    -0.206 N 
ATOM     28  N   UNL     1      33.127 -19.522 -20.663  0.00  0.00    -0.101 NA
ATOM     29  N   UNL     1      33.676 -21.449 -19.684  0.00  0.00    -0.042 NA
ATOM     30  N   UNL     1      32.669 -20.655 -20.028  0.00  0.00    -0.022 NA
ATOM     31  C   UNL     1      34.434 -19.640 -20.699  0.00  0.00    +0.211 A 
BRANCH  27  32
ATOM     32  C   UNL     1      36.080 -21.395 -19.897  0.00  0.00    +0.163 C 
BRANCH  32  33
ATOM     33  C   UNL     1      36.419 -21.552 -18.421  0.00  0.00    +0.164 C 
BRANCH  33  34
ATOM     34  O   UNL     1      35.550 -22.508 -17.828  0.00  0.00    -0.380 OA
ATOM     35  H   UNL     1      35.532 -22.378 -16.868  0.00  0.00    +0.211 HD
ENDBRANCH  33  34
ENDBRANCH  32  33
ENDBRANCH  27  32
ENDBRANCH  26  31
ENDBRANCH  25  26
ENDBRANCH   8  25
TORSDOF 13
ENDMDL
MODEL 7
REMARK VINA RESULT:      -8.0      4.832      9.739
REMARK  Name = 65864
REMARK  13 active torsions:
REMARK  status: ('A' for Active; 'I' for Inactive)
REMARK    1  A    between atoms: C_5  and  N_11
REMARK    2  A    between atoms: C_5  and  O_19
REMARK    3  A    between atoms: C_7  and  C_22
REMARK    4  A    between atoms: C_8  and  C_25
REMARK    5  A    between atoms: C_12  and  C_14
REMARK    6  A    between atoms: C_14  and  S_15
REMARK    7  A    between atoms: S_15  and  C_18
REMARK    8  A    between atoms: C_22  and  O_23
REMARK    9  A    between atoms: C_25  and  S_26
REMARK   10  A    between atoms: S_26  and  C_31
REMARK   11  A    between atoms: N_27  and  C_32
REMARK   12  A    between atoms: C_32  and  C_33
REMARK   13  A    between atoms: C_33  and  O_34
REMARK                            x       y       z     vdW  Elec       q    Type
REMARK                         _______ _______ _______ _____ _____    ______ ____
ROOT
ATOM      1  O   UNL     1      36.305 -23.046 -15.885  0.00  0.00    -0.329 OA
ATOM      2  O   UNL     1      33.470 -24.362 -12.738  0.00  0.00    -0.270 OA
ATOM      3  N   UNL     1      34.266 -23.250 -14.651  0.00  0.00    -0.223 N 
ATOM      4  C   UNL     1      35.618 -22.732 -14.665  0.00  0.00    +0.251 C 
ATOM      5  C   UNL     1      35.836 -23.564 -13.380  0.00  0.00    +0.267 C 
ATOM      6  C   UNL     1      34.294 -23.808 -13.427  0.00  0.00    +0.278 C 
ATOM      7  C   UNL     1      33.491 -23.177 -15.757  0.00  0.00    +0.127 C 
ATOM      8  C   UNL     1      34.058 -22.835 -16.938  0.00  0.00    +0.017 C 
ATOM      9  C   UNL     1      35.576 -22.631 -17.055  0.00  0.00    +0.169 C 
ENDROOT
BRANCH   5  11
ATOM     10  O   UNL     1      36.286 -25.724 -11.516  0.00  0.00    -0.274 OA
ATOM     11  N   UNL     1      36.608 -24.789 -13.615  0.00  0.00    -0.275 N 
ATOM     12  C   UNL     1      36.767 -25.775 -12.646  0.00  0.00    +0.236 C 
ATOM     13  H   UNL     1      37.032 -24.919 -14.495  0.00  0.00    +0.152 HD
BRANCH  12  14
ATOM     14  C   UNL     1      37.583 -26.954 -13.117  0.00  0.00    +0.148 C 
BRANCH  14  15
ATOM     15  S   UNL     1      38.022 -26.707 -14.855  0.00  0.00    -0.061 S 
BRANCH  15  18
ATOM     16  F   UNL     1      39.760 -24.823 -15.361  0.00  0.00    -0.186 F 
ATOM     17  F   UNL     1      39.835 -25.607 -13.329  0.00  0.00    -0.186 F 
ATOM     18  C   UNL     1      39.646 -25.957 -14.627  0.00  0.00    +0.367 C 
ENDBRANCH  15  18
ENDBRANCH  14  15
ENDBRANCH  12  14
ENDBRANCH   5  11
BRANCH   5  19
ATOM     19  O   UNL     1      36.236 -22.823 -12.212  0.00  0.00    -0.328 OA
ATOM     20  C   UNL     1      37.637 -22.734 -11.992  0.00  0.00    +0.177 C 
ENDBRANCH   5  19
BRANCH   7  22
ATOM     21  O   UNL     1      31.539 -24.446 -16.233  0.00  0.00    -0.244 OA
ATOM     22  C   UNL     1      32.076 -23.541 -15.624  0.00  0.00    +0.352 C 
BRANCH  22  23
ATOM     23  O   UNL     1      31.482 -22.721 -14.732  0.00  0.00    -0.476 OA
ATOM     24  H   UNL     1      31.419 -21.803 -14.909  0.00  0.00    +0.295 HD
ENDBRANCH  22  23
ENDBRANCH   7  22
BRANCH   8  25
ATOM     25  C   UNL     1      33.335 -22.652 -18.244  0.00  0.00    +0.091 C 
BRANCH  25  26
ATOM     26  S   UNL     1      34.519 -22.221 -19.533  0.00  0.00    -0.070 S 
BRANCH  26  31
ATOM     27  N   UNL     1      34.511 -19.713 -20.702  0.00  0.00    -0.206 N 
ATOM     28  N   UNL     1      32.531 -20.379 -20.119  0.00  0.00    -0.101 NA
ATOM     29  N   UNL     1      33.687 -18.717 -21.055  0.00  0.00    -0.042 NA
ATOM     30  N   UNL     1      32.477 -19.131 -20.697  0.00  0.00    -0.022 NA
ATOM     31  C   UNL     1      33.799 -20.721 -20.133  0.00  0.00    +0.211 A 
BRANCH  27  32
ATOM     32  C   UNL     1      35.928 -19.607 -20.945  0.00  0.00    +0.163 C 
BRANCH  32  33
ATOM     33  C   UNL     1      36.285 -18.395 -21.795  0.00  0.00    +0.164 C 
BRANCH  33  34
ATOM     34  O   UNL     1      35.829 -18.592 -23.127  0.00  0.00    -0.380 OA
ATOM     35  H   UNL     1      35.617 -17.734 -23.526  0.00  0.00    +0.211 HD
ENDBRANCH  33  34
ENDBRANCH  32  33
ENDBRANCH  27  32
ENDBRANCH  26  31
ENDBRANCH  25  26
ENDBRANCH   8  25
TORSDOF 13
ENDMDL
MODEL 8
REMARK VINA RESULT:      -8.0      3.478      6.059
REMARK  Name = 65864
REMARK  13 active torsions:
REMARK  status: ('A' for Active; 'I' for Inactive)
REMARK    1  A    between atoms: C_5  and  N_11
REMARK    2  A    between atoms: C_5  and  O_19
REMARK    3  A    between atoms: C_7  and  C_22
REMARK    4  A    between atoms: C_8  and  C_25
REMARK    5  A    between atoms: C_12  and  C_14
REMARK    6  A    between atoms: C_14  and  S_15
REMARK    7  A    between atoms: S_15  and  C_18
REMARK    8  A    between atoms: C_22  and  O_23
REMARK    9  A    between atoms: C_25  and  S_26
REMARK   10  A    between atoms: S_26  and  C_31
REMARK   11  A    between atoms: N_27  and  C_32
REMARK   12  A    between atoms: C_32  and  C_33
REMARK   13  A    between atoms: C_33  and  O_34
REMARK                            x       y       z     vdW  Elec       q    Type
REMARK                         _______ _______ _______ _____ _____    ______ ____
ROOT
ATOM      1  O   UNL     1      34.406 -14.768 -21.709  0.00  0.00    -0.329 OA
ATOM      2  O   UNL     1      33.014 -14.518 -25.913  0.00  0.00    -0.270 OA
ATOM      3  N   UNL     1      34.247 -15.246 -24.047  0.00  0.00    -0.223 N 
ATOM      4  C   UNL     1      34.649 -14.289 -23.039  0.00  0.00    +0.251 C 
ATOM      5  C   UNL     1      33.673 -13.309 -23.733  0.00  0.00    +0.267 C 
ATOM      6  C   UNL     1      33.565 -14.403 -24.844  0.00  0.00    +0.278 C 
ATOM      7  C   UNL     1      34.498 -16.565 -23.881  0.00  0.00    +0.127 C 
ATOM      8  C   UNL     1      34.912 -17.009 -22.670  0.00  0.00    +0.017 C 
ATOM      9  C   UNL     1      35.000 -16.058 -21.468  0.00  0.00    +0.169 C 
ENDROOT
BRANCH   5  11
ATOM     10  O   UNL     1      32.641 -10.850 -22.624  0.00  0.00    -0.274 OA
ATOM     11  N   UNL     1      32.419 -13.130 -22.994  0.00  0.00    -0.275 N 
ATOM     12  C   UNL     1      32.009 -11.897 -22.498  0.00  0.00    +0.236 C 
ATOM     13  H   UNL     1      31.844 -13.916 -22.843  0.00  0.00    +0.152 HD
BRANCH  12  14
ATOM     14  C   UNL     1      30.677 -11.948 -21.788  0.00  0.00    +0.148 C 
BRANCH  14  15
ATOM     15  S   UNL     1      30.610 -10.611 -20.571  0.00  0.00    -0.061 S 
BRANCH  15  18
ATOM     16  F   UNL     1      31.279 -11.100 -18.094  0.00  0.00    -0.186 F 
ATOM     17  F   UNL     1      31.893 -12.629 -19.519  0.00  0.00    -0.186 F 
ATOM     18  C   UNL     1      31.750 -11.290 -19.351  0.00  0.00    +0.367 C 
ENDBRANCH  15  18
ENDBRANCH  14  15
ENDBRANCH  12  14
ENDBRANCH   5  11
BRANCH   5  19
ATOM     19  O   UNL     1      34.254 -12.087 -24.226  0.00  0.00    -0.328 OA
ATOM     20  C   UNL     1      33.884 -11.723 -25.549  0.00  0.00    +0.177 C 
ENDBRANCH   5  19
BRANCH   7  22
ATOM     21  O   UNL     1      33.525 -18.438 -24.972  0.00  0.00    -0.244 OA
ATOM     22  C   UNL     1      34.242 -17.457 -25.016  0.00  0.00    +0.352 C 
BRANCH  22  23
ATOM     23  O   UNL     1      34.921 -17.018 -26.096  0.00  0.00    -0.476 OA
ATOM     24  H   UNL     1      35.715 -17.442 -26.355  0.00  0.00    +0.295 HD
ENDBRANCH  22  23
ENDBRANCH   7  22
BRANCH   8  25
ATOM     25  C   UNL     1      35.288 -18.426 -22.332  0.00  0.00    +0.091 C 
BRANCH  25  26
ATOM     26  S   UNL     1      34.066 -19.120 -21.203  0.00  0.00    -0.070 S 
BRANCH  26  31
ATOM     27  N   UNL     1      34.665 -21.176 -19.452  0.00  0.00    -0.206 N 
ATOM     28  N   UNL     1      36.403 -20.001 -20.001  0.00  0.00    -0.101 NA
ATOM     29  N   UNL     1      35.690 -21.734 -18.792  0.00  0.00    -0.042 NA
ATOM     30  N   UNL     1      36.750 -21.011 -19.132  0.00  0.00    -0.022 NA
ATOM     31  C   UNL     1      35.108 -20.122 -20.186  0.00  0.00    +0.211 A 
BRANCH  27  32
ATOM     32  C   UNL     1      33.334 -21.712 -19.318  0.00  0.00    +0.163 C 
BRANCH  32  33
ATOM     33  C   UNL     1      33.240 -22.776 -18.232  0.00  0.00    +0.164 C 
BRANCH  33  34
ATOM     34  O   UNL     1      33.758 -24.006 -18.721  0.00  0.00    -0.380 OA
ATOM     35  H   UNL     1      33.231 -24.741 -18.372  0.00  0.00    +0.211 HD
ENDBRANCH  33  34
ENDBRANCH  32  33
ENDBRANCH  27  32
ENDBRANCH  26  31
ENDBRANCH  25  26
ENDBRANCH   8  25
TORSDOF 13
ENDMDL
MODEL 9
REMARK VINA RESULT:      -7.7      4.583      7.577
REMARK  Name = 65864
REMARK  13 active torsions:
REMARK  status: ('A' for Active; 'I' for Inactive)
REMARK    1  A    between atoms: C_5  and  N_11
REMARK    2  A    between atoms: C_5  and  O_19
REMARK    3  A    between atoms: C_7  and  C_22
REMARK    4  A    between atoms: C_8  and  C_25
REMARK    5  A    between atoms: C_12  and  C_14
REMARK    6  A    between atoms: C_14  and  S_15
REMARK    7  A    between atoms: S_15  and  C_18
REMARK    8  A    between atoms: C_22  and  O_23
REMARK    9  A    between atoms: C_25  and  S_26
REMARK   10  A    between atoms: S_26  and  C_31
REMARK   11  A    between atoms: N_27  and  C_32
REMARK   12  A    between atoms: C_32  and  C_33
REMARK   13  A    between atoms: C_33  and  O_34
REMARK                            x       y       z     vdW  Elec       q    Type
REMARK                         _______ _______ _______ _____ _____    ______ ____
ROOT
ATOM      1  O   UNL     1      33.544 -13.065 -24.164  0.00  0.00    -0.329 OA
ATOM      2  O   UNL     1      32.327 -12.974 -19.900  0.00  0.00    -0.270 OA
ATOM      3  N   UNL     1      32.931 -13.860 -21.992  0.00  0.00    -0.223 N 
ATOM      4  C   UNL     1      32.488 -13.201 -23.202  0.00  0.00    +0.251 C 
ATOM      5  C   UNL     1      32.079 -12.025 -22.284  0.00  0.00    +0.267 C 
ATOM      6  C   UNL     1      32.400 -13.000 -21.105  0.00  0.00    +0.278 C 
ATOM      7  C   UNL     1      33.760 -14.928 -22.056  0.00  0.00    +0.127 C 
ATOM      8  C   UNL     1      34.358 -15.228 -23.234  0.00  0.00    +0.017 C 
ATOM      9  C   UNL     1      34.187 -14.320 -24.460  0.00  0.00    +0.169 C 
ENDROOT
BRANCH   5  11
ATOM     10  O   UNL     1      31.882  -9.702 -23.989  0.00  0.00    -0.274 OA
ATOM     11  N   UNL     1      33.013 -10.895 -22.350  0.00  0.00    -0.275 N 
ATOM     12  C   UNL     1      32.828  -9.818 -23.211  0.00  0.00    +0.236 C 
ATOM     13  H   UNL     1      33.803 -10.900 -21.762  0.00  0.00    +0.152 HD
BRANCH  12  14
ATOM     14  C   UNL     1      33.902  -8.764 -23.094  0.00  0.00    +0.148 C 
BRANCH  14  15
ATOM     15  S   UNL     1      33.118  -7.146 -22.897  0.00  0.00    -0.061 S 
BRANCH  15  18
ATOM     16  F   UNL     1      33.159  -8.006 -20.430  0.00  0.00    -0.186 F 
ATOM     17  F   UNL     1      31.919  -6.245 -20.758  0.00  0.00    -0.186 F 
ATOM     18  C   UNL     1      32.309  -7.422 -21.310  0.00  0.00    +0.367 C 
ENDBRANCH  15  18
ENDBRANCH  14  15
ENDBRANCH  12  14
ENDBRANCH   5  11
BRANCH   5  19
ATOM     19  O   UNL     1      30.689 -11.653 -22.321  0.00  0.00    -0.328 OA
ATOM     20  C   UNL     1      30.211 -10.953 -21.180  0.00  0.00    +0.177 C 
ENDBRANCH   5  19
BRANCH   7  22
ATOM     21  O   UNL     1      35.050 -15.598 -20.176  0.00  0.00    -0.244 OA
ATOM     22  C   UNL     1      34.018 -15.667 -20.816  0.00  0.00    +0.352 C 
BRANCH  22  23
ATOM     23  O   UNL     1      32.942 -16.420 -20.509  0.00  0.00    -0.476 OA
ATOM     24  H   UNL     1      32.082 -16.120 -20.727  0.00  0.00    +0.295 HD
ENDBRANCH  22  23
ENDBRANCH   7  22
BRANCH   8  25
ATOM     25  C   UNL     1      35.257 -16.406 -23.491  0.00  0.00    +0.091 C 
BRANCH  25  26
ATOM     26  S   UNL     1      34.305 -17.931 -23.356  0.00  0.00    -0.070 S 
BRANCH  26  31
ATOM     27  N   UNL     1      34.527 -19.523 -21.105  0.00  0.00    -0.206 N 
ATOM     28  N   UNL     1      36.406 -18.604 -21.678  0.00  0.00    -0.101 NA
ATOM     29  N   UNL     1      35.420 -19.952 -20.201  0.00  0.00    -0.042 NA
ATOM     30  N   UNL     1      36.567 -19.386 -20.557  0.00  0.00    -0.022 NA
ATOM     31  C   UNL     1      35.137 -18.704 -22.001  0.00  0.00    +0.211 A 
BRANCH  27  32
ATOM     32  C   UNL     1      33.151 -19.945 -21.027  0.00  0.00    +0.163 C 
BRANCH  32  33
ATOM     33  C   UNL     1      32.837 -20.673 -19.727  0.00  0.00    +0.164 C 
BRANCH  33  34
ATOM     34  O   UNL     1      33.090 -22.063 -19.882  0.00  0.00    -0.380 OA
ATOM     35  H   UNL     1      32.321 -22.488 -20.291  0.00  0.00    +0.211 HD
ENDBRANCH  33  34
ENDBRANCH  32  33
ENDBRANCH  27  32
ENDBRANCH  26  31
ENDBRANCH  25  26
ENDBRANCH   8  25
TORSDOF 13
ENDMDL
