MODEL 1
REMARK VINA RESULT:     -10.6      0.000      0.000
REMARK  Name = 445957
REMARK  8 active torsions:
REMARK  status: ('A' for Active; 'I' for Inactive)
REMARK    1  A    between atoms: N_2  and  C_15
REMARK    2  A    between atoms: N_3  and  C_28
REMARK    3  A    between atoms: C_12  and  O_18
REMARK    4  A    between atoms: O_18  and  C_19
REMARK    5  A    between atoms: C_19  and  C_20
REMARK    6  A    between atoms: C_20  and  O_21
REMARK    7  A    between atoms: C_20  and  C_23
REMARK    8  A    between atoms: C_23  and  N_24
REMARK                            x       y       z     vdW  Elec       q    Type
REMARK                         _______ _______ _______ _____ _____    ______ ____
ROOT
ATOM      1 BR   UNL     1      35.955 -24.441 -11.930  0.00  0.00    -0.043 Br
ATOM      2  N   UNL     1      37.130 -22.313 -17.396  0.00  0.00    -0.247 N 
ATOM      3  N   UNL     1      33.974 -23.155 -14.005  0.00  0.00    -0.287 N 
ATOM      4  N   UNL     1      35.553 -22.730 -15.709  0.00  0.00    -0.321 NA
ATOM      5  N   UNL     1      37.870 -23.317 -15.409  0.00  0.00    -0.169 NA
ATOM      6  C   UNL     1      36.837 -22.810 -16.111  0.00  0.00    +0.150 C 
ATOM      7  C   UNL     1      35.308 -23.215 -14.474  0.00  0.00    +0.204 C 
ATOM      8  C   UNL     1      36.279 -23.759 -13.658  0.00  0.00    +0.099 C 
ATOM      9  C   UNL     1      37.555 -23.784 -14.183  0.00  0.00    +0.122 C 
ATOM     10  H   UNL     1      38.079 -22.394 -17.645  0.00  0.00    +0.165 HD
ATOM     11  H   UNL     1      33.900 -23.063 -13.028  0.00  0.00    +0.155 HD
ENDROOT
BRANCH   2  15
ATOM     12  C   UNL     1      34.754 -20.558 -20.369  0.00  0.00    +0.139 C 
ATOM     13  C   UNL     1      36.094 -20.205 -20.261  0.00  0.00    +0.038 C 
ATOM     14  C   UNL     1      34.194 -21.487 -19.500  0.00  0.00    +0.038 C 
ATOM     15  C   UNL     1      36.330 -21.722 -18.396  0.00  0.00    +0.058 C 
ATOM     16  C   UNL     1      36.885 -20.788 -19.271  0.00  0.00    +0.018 C 
ATOM     17  C   UNL     1      34.984 -22.072 -18.511  0.00  0.00    +0.018 C 
BRANCH  12  18
ATOM     18  O   UNL     1      33.977 -19.983 -21.340  0.00  0.00    -0.473 OA
BRANCH  18  19
ATOM     19  C   UNL     1      34.143 -18.584 -21.547  0.00  0.00    +0.232 C 
BRANCH  19  20
ATOM     20  C   UNL     1      34.503 -18.341 -23.011  0.00  0.00    +0.133 C 
BRANCH  20  21
ATOM     21  O   UNL     1      34.895 -19.585 -23.596  0.00  0.00    -0.383 OA
ATOM     22  H   UNL     1      35.324 -19.420 -24.451  0.00  0.00    +0.210 HD
ENDBRANCH  20  21
BRANCH  20  23
ATOM     23  C   UNL     1      35.650 -17.344 -23.195  0.00  0.00    -0.044 C 
BRANCH  23  24
ATOM     24  N   UNL     1      35.255 -16.198 -24.003  0.00  0.00    +0.386 N 
ATOM     25  C   UNL     1      34.521 -15.224 -23.192  0.00  0.00    -0.101 C 
ATOM     26  C   UNL     1      34.440 -16.626 -25.142  0.00  0.00    -0.101 C 
ATOM     27  H   UNL     1      36.101 -15.754 -24.358  0.00  0.00    -0.080 HD
ENDBRANCH  23  24
ENDBRANCH  20  23
ENDBRANCH  19  20
ENDBRANCH  18  19
ENDBRANCH  12  18
ENDBRANCH   2  15
BRANCH   3  28
ATOM     28  C   UNL     1      32.735 -23.200 -14.664  0.00  0.00    +0.050 C 
ATOM     29  C   UNL     1      31.545 -23.189 -13.929  0.00  0.00    +0.015 C 
ATOM     30  C   UNL     1      32.682 -23.257 -16.060  0.00  0.00    +0.015 C 
ATOM     31  C   UNL     1      30.315 -23.235 -14.584  0.00  0.00    +0.001 C 
ATOM     32  C   UNL     1      31.451 -23.302 -16.714  0.00  0.00    +0.001 C 
ATOM     33  C   UNL     1      30.267 -23.291 -15.977  0.00  0.00    +0.000 C 
ENDBRANCH   3  28
TORSDOF 8
ENDMDL
MODEL 2
REMARK VINA RESULT:      -8.9      5.623     12.222
REMARK  Name = 445957
REMARK  8 active torsions:
REMARK  status: ('A' for Active; 'I' for Inactive)
REMARK    1  A    between atoms: N_2  and  C_15
REMARK    2  A    between atoms: N_3  and  C_28
REMARK    3  A    between atoms: C_12  and  O_18
REMARK    4  A    between atoms: O_18  and  C_19
REMARK    5  A    between atoms: C_19  and  C_20
REMARK    6  A    between atoms: C_20  and  O_21
REMARK    7  A    between atoms: C_20  and  C_23
REMARK    8  A    between atoms: C_23  and  N_24
REMARK                            x       y       z     vdW  Elec       q    Type
REMARK                         _______ _______ _______ _____ _____    ______ ____
ROOT
ATOM      1 BR   UNL     1      31.294  -7.784 -22.825  0.00  0.00    -0.043 Br
ATOM      2  N   UNL     1      32.140 -13.465 -21.155  0.00  0.00    -0.247 N 
ATOM      3  N   UNL     1      33.418  -9.846 -23.882  0.00  0.00    -0.287 N 
ATOM      4  N   UNL     1      32.781 -11.665 -22.516  0.00  0.00    -0.321 NA
ATOM      5  N   UNL     1      30.965 -11.445 -20.949  0.00  0.00    -0.169 NA
ATOM      6  C   UNL     1      31.954 -12.129 -21.559  0.00  0.00    +0.150 C 
ATOM      7  C   UNL     1      32.574 -10.382 -22.880  0.00  0.00    +0.204 C 
ATOM      8  C   UNL     1      31.596  -9.578 -22.330  0.00  0.00    +0.099 C 
ATOM      9  C   UNL     1      30.814 -10.169 -21.359  0.00  0.00    +0.122 C 
ATOM     10  H   UNL     1      31.512 -13.758 -20.456  0.00  0.00    +0.165 HD
ATOM     11  H   UNL     1      33.571  -8.878 -23.797  0.00  0.00    +0.155 HD
ENDROOT
BRANCH   2  15
ATOM     12  C   UNL     1      34.845 -16.437 -22.346  0.00  0.00    +0.139 C 
ATOM     13  C   UNL     1      34.024 -15.834 -23.292  0.00  0.00    +0.038 C 
ATOM     14  C   UNL     1      34.777 -16.064 -21.008  0.00  0.00    +0.038 C 
ATOM     15  C   UNL     1      33.050 -14.465 -21.556  0.00  0.00    +0.058 C 
ATOM     16  C   UNL     1      33.124 -14.845 -22.896  0.00  0.00    +0.018 C 
ATOM     17  C   UNL     1      33.877 -15.075 -20.612  0.00  0.00    +0.018 C 
BRANCH  12  18
ATOM     18  O   UNL     1      35.728 -17.409 -22.735  0.00  0.00    -0.473 OA
BRANCH  18  19
ATOM     19  C   UNL     1      36.118 -18.354 -21.743  0.00  0.00    +0.232 C 
BRANCH  19  20
ATOM     20  C   UNL     1      35.327 -19.643 -21.951  0.00  0.00    +0.133 C 
BRANCH  20  21
ATOM     21  O   UNL     1      34.728 -19.606 -23.249  0.00  0.00    -0.383 OA
ATOM     22  H   UNL     1      34.744 -18.697 -23.587  0.00  0.00    +0.210 HD
ENDBRANCH  20  21
BRANCH  20  23
ATOM     23  C   UNL     1      34.216 -19.846 -20.917  0.00  0.00    -0.044 C 
BRANCH  23  24
ATOM     24  N   UNL     1      34.660 -20.651 -19.788  0.00  0.00    +0.386 N 
ATOM     25  C   UNL     1      35.911 -21.343 -20.106  0.00  0.00    -0.101 C 
ATOM     26  C   UNL     1      33.629 -21.620 -19.407  0.00  0.00    -0.101 C 
ATOM     27  H   UNL     1      34.825 -20.027 -18.999  0.00  0.00    -0.080 HD
ENDBRANCH  23  24
ENDBRANCH  20  23
ENDBRANCH  19  20
ENDBRANCH  18  19
ENDBRANCH  12  18
ENDBRANCH   2  15
BRANCH   3  28
ATOM     28  C   UNL     1      34.080 -10.430 -24.975  0.00  0.00    +0.050 C 
ATOM     29  C   UNL     1      35.266  -9.869 -25.461  0.00  0.00    +0.015 C 
ATOM     30  C   UNL     1      33.559 -11.575 -25.583  0.00  0.00    +0.015 C 
ATOM     31  C   UNL     1      35.922 -10.448 -26.547  0.00  0.00    +0.001 C 
ATOM     32  C   UNL     1      34.217 -12.154 -26.669  0.00  0.00    +0.001 C 
ATOM     33  C   UNL     1      35.398 -11.591 -27.151  0.00  0.00    +0.000 C 
ENDBRANCH   3  28
TORSDOF 8
ENDMDL
MODEL 3
REMARK VINA RESULT:      -8.8      2.200      4.115
REMARK  Name = 445957
REMARK  8 active torsions:
REMARK  status: ('A' for Active; 'I' for Inactive)
REMARK    1  A    between atoms: N_2  and  C_15
REMARK    2  A    between atoms: N_3  and  C_28
REMARK    3  A    between atoms: C_12  and  O_18
REMARK    4  A    between atoms: O_18  and  C_19
REMARK    5  A    between atoms: C_19  and  C_20
REMARK    6  A    between atoms: C_20  and  O_21
REMARK    7  A    between atoms: C_20  and  C_23
REMARK    8  A    between atoms: C_23  and  N_24
REMARK                            x       y       z     vdW  Elec       q    Type
REMARK                         _______ _______ _______ _____ _____    ______ ____
ROOT
ATOM      1 BR   UNL     1      30.464 -25.039 -13.146  0.00  0.00    -0.043 Br
ATOM      2  N   UNL     1      31.810 -22.062 -18.156  0.00  0.00    -0.247 N 
ATOM      3  N   UNL     1      33.296 -24.415 -14.359  0.00  0.00    -0.287 N 
ATOM      4  N   UNL     1      32.556 -23.234 -16.266  0.00  0.00    -0.321 NA
ATOM      5  N   UNL     1      30.204 -22.901 -16.666  0.00  0.00    -0.169 NA
ATOM      6  C   UNL     1      31.509 -22.766 -16.974  0.00  0.00    +0.150 C 
ATOM      7  C   UNL     1      32.232 -23.903 -15.139  0.00  0.00    +0.204 C 
ATOM      8  C   UNL     1      30.934 -24.108 -14.716  0.00  0.00    +0.099 C 
ATOM      9  C   UNL     1      29.951 -23.579 -15.528  0.00  0.00    +0.122 C 
ATOM     10  H   UNL     1      31.014 -21.739 -18.637  0.00  0.00    +0.165 HD
ATOM     11  H   UNL     1      33.067 -25.234 -13.863  0.00  0.00    +0.155 HD
ENDROOT
BRANCH   2  15
ATOM     12  C   UNL     1      35.428 -21.073 -20.028  0.00  0.00    +0.139 C 
ATOM     13  C   UNL     1      34.251 -20.453 -20.432  0.00  0.00    +0.038 C 
ATOM     14  C   UNL     1      35.416 -22.019 -19.009  0.00  0.00    +0.038 C 
ATOM     15  C   UNL     1      33.027 -21.729 -18.786  0.00  0.00    +0.058 C 
ATOM     16  C   UNL     1      33.046 -20.782 -19.810  0.00  0.00    +0.018 C 
ATOM     17  C   UNL     1      34.212 -22.348 -18.386  0.00  0.00    +0.018 C 
BRANCH  12  18
ATOM     18  O   UNL     1      36.609 -20.751 -20.641  0.00  0.00    -0.473 OA
BRANCH  18  19
ATOM     19  C   UNL     1      36.988 -19.379 -20.622  0.00  0.00    +0.232 C 
BRANCH  19  20
ATOM     20  C   UNL     1      36.766 -18.786 -22.011  0.00  0.00    +0.133 C 
BRANCH  20  21
ATOM     21  O   UNL     1      38.011 -18.269 -22.490  0.00  0.00    -0.383 OA
ATOM     22  H   UNL     1      38.031 -18.320 -23.459  0.00  0.00    +0.210 HD
ENDBRANCH  20  21
BRANCH  20  23
ATOM     23  C   UNL     1      35.739 -17.651 -22.029  0.00  0.00    -0.044 C 
BRANCH  23  24
ATOM     24  N   UNL     1      35.581 -17.077 -23.358  0.00  0.00    +0.386 N 
ATOM     25  C   UNL     1      34.852 -15.808 -23.289  0.00  0.00    -0.101 C 
ATOM     26  C   UNL     1      34.885 -18.012 -24.246  0.00  0.00    -0.101 C 
ATOM     27  H   UNL     1      36.509 -16.898 -23.739  0.00  0.00    -0.080 HD
ENDBRANCH  23  24
ENDBRANCH  20  23
ENDBRANCH  19  20
ENDBRANCH  18  19
ENDBRANCH  12  18
ENDBRANCH   2  15
BRANCH   3  28
ATOM     28  C   UNL     1      34.617 -23.983 -14.156  0.00  0.00    +0.050 C 
ATOM     29  C   UNL     1      35.132 -23.876 -12.860  0.00  0.00    +0.015 C 
ATOM     30  C   UNL     1      35.425 -23.656 -15.249  0.00  0.00    +0.015 C 
ATOM     31  C   UNL     1      36.443 -23.444 -12.660  0.00  0.00    +0.001 C 
ATOM     32  C   UNL     1      36.737 -23.226 -15.047  0.00  0.00    +0.001 C 
ATOM     33  C   UNL     1      37.246 -23.120 -13.753  0.00  0.00    +0.000 C 
ENDBRANCH   3  28
TORSDOF 8
ENDMDL
MODEL 4
REMARK VINA RESULT:      -8.4      4.756      8.667
REMARK  Name = 445957
REMARK  8 active torsions:
REMARK  status: ('A' for Active; 'I' for Inactive)
REMARK    1  A    between atoms: N_2  and  C_15
REMARK    2  A    between atoms: N_3  and  C_28
REMARK    3  A    between atoms: C_12  and  O_18
REMARK    4  A    between atoms: O_18  and  C_19
REMARK    5  A    between atoms: C_19  and  C_20
REMARK    6  A    between atoms: C_20  and  O_21
REMARK    7  A    between atoms: C_20  and  C_23
REMARK    8  A    between atoms: C_23  and  N_24
REMARK                            x       y       z     vdW  Elec       q    Type
REMARK                         _______ _______ _______ _____ _____    ______ ____
ROOT
ATOM      1 BR   UNL     1      28.230 -23.296 -17.218  0.00  0.00    -0.043 Br
ATOM      2  N   UNL     1      32.667 -24.634 -13.436  0.00  0.00    -0.247 N 
ATOM      3  N   UNL     1      31.236 -22.382 -17.315  0.00  0.00    -0.287 N 
ATOM      4  N   UNL     1      31.959 -23.510 -15.369  0.00  0.00    -0.321 NA
ATOM      5  N   UNL     1      30.418 -24.832 -14.073  0.00  0.00    -0.169 NA
ATOM      6  C   UNL     1      31.633 -24.309 -14.335  0.00  0.00    +0.150 C 
ATOM      7  C   UNL     1      30.945 -23.219 -16.211  0.00  0.00    +0.204 C 
ATOM      8  C   UNL     1      29.658 -23.691 -16.052  0.00  0.00    +0.099 C 
ATOM      9  C   UNL     1      29.451 -24.501 -14.954  0.00  0.00    +0.122 C 
ATOM     10  H   UNL     1      32.381 -25.221 -12.699  0.00  0.00    +0.165 HD
ATOM     11  H   UNL     1      30.474 -21.834 -17.610  0.00  0.00    +0.155 HD
ENDROOT
BRANCH   2  15
ATOM     12  C   UNL     1      36.723 -23.590 -13.280  0.00  0.00    +0.139 C 
ATOM     13  C   UNL     1      36.057 -23.585 -14.501  0.00  0.00    +0.038 C 
ATOM     14  C   UNL     1      36.057 -23.939 -12.111  0.00  0.00    +0.038 C 
ATOM     15  C   UNL     1      34.032 -24.284 -13.384  0.00  0.00    +0.058 C 
ATOM     16  C   UNL     1      34.707 -23.933 -14.553  0.00  0.00    +0.018 C 
ATOM     17  C   UNL     1      34.707 -24.286 -12.163  0.00  0.00    +0.018 C 
BRANCH  12  18
ATOM     18  O   UNL     1      38.049 -23.251 -13.230  0.00  0.00    -0.473 OA
BRANCH  18  19
ATOM     19  C   UNL     1      38.907 -24.123 -12.501  0.00  0.00    +0.232 C 
BRANCH  19  20
ATOM     20  C   UNL     1      39.476 -25.169 -13.457  0.00  0.00    +0.133 C 
BRANCH  20  21
ATOM     21  O   UNL     1      40.716 -24.682 -13.978  0.00  0.00    -0.383 OA
ATOM     22  H   UNL     1      41.030 -25.279 -14.676  0.00  0.00    +0.210 HD
ENDBRANCH  20  21
BRANCH  20  23
ATOM     23  C   UNL     1      38.551 -25.479 -14.637  0.00  0.00    -0.044 C 
BRANCH  23  24
ATOM     24  N   UNL     1      37.902 -26.775 -14.497  0.00  0.00    +0.386 N 
ATOM     25  C   UNL     1      36.906 -26.971 -15.553  0.00  0.00    -0.101 C 
ATOM     26  C   UNL     1      37.273 -26.899 -13.180  0.00  0.00    -0.101 C 
ATOM     27  H   UNL     1      38.616 -27.498 -14.586  0.00  0.00    -0.080 HD
ENDBRANCH  23  24
ENDBRANCH  20  23
ENDBRANCH  19  20
ENDBRANCH  18  19
ENDBRANCH  12  18
ENDBRANCH   2  15
BRANCH   3  28
ATOM     28  C   UNL     1      32.403 -22.181 -18.070  0.00  0.00    +0.050 C 
ATOM     29  C   UNL     1      33.557 -22.922 -17.795  0.00  0.00    +0.015 C 
ATOM     30  C   UNL     1      32.419 -21.239 -19.103  0.00  0.00    +0.015 C 
ATOM     31  C   UNL     1      34.716 -22.721 -18.544  0.00  0.00    +0.001 C 
ATOM     32  C   UNL     1      33.578 -21.038 -19.852  0.00  0.00    +0.001 C 
ATOM     33  C   UNL     1      34.727 -21.779 -19.574  0.00  0.00    +0.000 C 
ENDBRANCH   3  28
TORSDOF 8
ENDMDL
MODEL 5
REMARK VINA RESULT:      -8.1     11.180     15.205
REMARK  Name = 445957
REMARK  8 active torsions:
REMARK  status: ('A' for Active; 'I' for Inactive)
REMARK    1  A    between atoms: N_2  and  C_15
REMARK    2  A    between atoms: N_3  and  C_28
REMARK    3  A    between atoms: C_12  and  O_18
REMARK    4  A    between atoms: O_18  and  C_19
REMARK    5  A    between atoms: C_19  and  C_20
REMARK    6  A    between atoms: C_20  and  O_21
REMARK    7  A    between atoms: C_20  and  C_23
REMARK    8  A    between atoms: C_23  and  N_24
REMARK                            x       y       z     vdW  Elec       q    Type
REMARK                         _______ _______ _______ _____ _____    ______ ____
ROOT
ATOM      1 BR   UNL     1      32.688 -14.812 -21.612  0.00  0.00    -0.043 Br
ATOM      2  N   UNL     1      31.425  -8.981 -21.184  0.00  0.00    -0.247 N 
ATOM      3  N   UNL     1      33.021 -12.565 -23.786  0.00  0.00    -0.287 N 
ATOM      4  N   UNL     1      32.221 -10.763 -22.485  0.00  0.00    -0.321 NA
ATOM      5  N   UNL     1      31.493 -11.116 -20.216  0.00  0.00    -0.169 NA
ATOM      6  C   UNL     1      31.727 -10.351 -21.301  0.00  0.00    +0.150 C 
ATOM      7  C   UNL     1      32.499 -12.082 -22.562  0.00  0.00    +0.204 C 
ATOM      8  C   UNL     1      32.304 -12.968 -21.522  0.00  0.00    +0.099 C 
ATOM      9  C   UNL     1      31.794 -12.424 -20.362  0.00  0.00    +0.122 C 
ATOM     10  H   UNL     1      31.069  -8.728 -20.302  0.00  0.00    +0.165 HD
ATOM     11  H   UNL     1      32.781 -13.500 -23.978  0.00  0.00    +0.155 HD
ENDROOT
BRANCH   2  15
ATOM     12  C   UNL     1      31.744  -5.768 -23.857  0.00  0.00    +0.139 C 
ATOM     13  C   UNL     1      32.169  -5.614 -22.541  0.00  0.00    +0.038 C 
ATOM     14  C   UNL     1      31.215  -6.976 -24.293  0.00  0.00    +0.038 C 
ATOM     15  C   UNL     1      31.532  -7.900 -22.083  0.00  0.00    +0.058 C 
ATOM     16  C   UNL     1      32.062  -6.683 -21.651  0.00  0.00    +0.018 C 
ATOM     17  C   UNL     1      31.108  -8.046 -23.404  0.00  0.00    +0.018 C 
BRANCH  12  18
ATOM     18  O   UNL     1      31.847  -4.717 -24.729  0.00  0.00    -0.473 OA
BRANCH  18  19
ATOM     19  C   UNL     1      31.721  -3.411 -24.177  0.00  0.00    +0.232 C 
BRANCH  19  20
ATOM     20  C   UNL     1      31.196  -2.466 -25.255  0.00  0.00    +0.133 C 
BRANCH  20  21
ATOM     21  O   UNL     1      29.767  -2.502 -25.235  0.00  0.00    -0.383 OA
ATOM     22  H   UNL     1      29.455  -2.441 -24.318  0.00  0.00    +0.210 HD
ENDBRANCH  20  21
BRANCH  20  23
ATOM     23  C   UNL     1      31.664  -2.837 -26.665  0.00  0.00    -0.044 C 
BRANCH  23  24
ATOM     24  N   UNL     1      33.099  -3.074 -26.721  0.00  0.00    +0.386 N 
ATOM     25  C   UNL     1      33.823  -1.818 -26.927  0.00  0.00    -0.101 C 
ATOM     26  C   UNL     1      33.424  -4.026 -27.787  0.00  0.00    -0.101 C 
ATOM     27  H   UNL     1      33.390  -3.474 -25.829  0.00  0.00    -0.080 HD
ENDBRANCH  23  24
ENDBRANCH  20  23
ENDBRANCH  19  20
ENDBRANCH  18  19
ENDBRANCH  12  18
ENDBRANCH   2  15
BRANCH   3  28
ATOM     28  C   UNL     1      33.813 -11.969 -24.780  0.00  0.00    +0.050 C 
ATOM     29  C   UNL     1      33.799 -12.469 -26.086  0.00  0.00    +0.015 C 
ATOM     30  C   UNL     1      34.621 -10.871 -24.471  0.00  0.00    +0.015 C 
ATOM     31  C   UNL     1      34.588 -11.877 -27.073  0.00  0.00    +0.001 C 
ATOM     32  C   UNL     1      35.409 -10.279 -25.459  0.00  0.00    +0.001 C 
ATOM     33  C   UNL     1      35.393 -10.782 -26.760  0.00  0.00    +0.000 C 
ENDBRANCH   3  28
TORSDOF 8
ENDMDL
MODEL 6
REMARK VINA RESULT:      -8.1     11.112     15.138
REMARK  Name = 445957
REMARK  8 active torsions:
REMARK  status: ('A' for Active; 'I' for Inactive)
REMARK    1  A    between atoms: N_2  and  C_15
REMARK    2  A    between atoms: N_3  and  C_28
REMARK    3  A    between atoms: C_12  and  O_18
REMARK    4  A    between atoms: O_18  and  C_19
REMARK    5  A    between atoms: C_19  and  C_20
REMARK    6  A    between atoms: C_20  and  O_21
REMARK    7  A    between atoms: C_20  and  C_23
REMARK    8  A    between atoms: C_23  and  N_24
REMARK                            x       y       z     vdW  Elec       q    Type
REMARK                         _______ _______ _______ _____ _____    ______ ____
ROOT
ATOM      1 BR   UNL     1      32.678 -14.875 -21.604  0.00  0.00    -0.043 Br
ATOM      2  N   UNL     1      31.480  -9.041 -21.054  0.00  0.00    -0.247 N 
ATOM      3  N   UNL     1      33.009 -12.592 -23.740  0.00  0.00    -0.287 N 
ATOM      4  N   UNL     1      32.243 -10.807 -22.397  0.00  0.00    -0.321 NA
ATOM      5  N   UNL     1      31.537 -11.195 -20.126  0.00  0.00    -0.169 NA
ATOM      6  C   UNL     1      31.766 -10.412 -21.200  0.00  0.00    +0.150 C 
ATOM      7  C   UNL     1      32.507 -12.126 -22.501  0.00  0.00    +0.204 C 
ATOM      8  C   UNL     1      32.314 -13.029 -21.476  0.00  0.00    +0.099 C 
ATOM      9  C   UNL     1      31.823 -12.502 -20.300  0.00  0.00    +0.122 C 
ATOM     10  H   UNL     1      31.136  -8.801 -20.163  0.00  0.00    +0.165 HD
ATOM     11  H   UNL     1      32.758 -13.521 -23.947  0.00  0.00    +0.155 HD
ENDROOT
BRANCH   2  15
ATOM     12  C   UNL     1      31.799  -5.781 -23.669  0.00  0.00    +0.139 C 
ATOM     13  C   UNL     1      31.307  -6.994 -24.138  0.00  0.00    +0.038 C 
ATOM     14  C   UNL     1      32.186  -5.639 -22.342  0.00  0.00    +0.038 C 
ATOM     15  C   UNL     1      31.588  -7.944 -21.934  0.00  0.00    +0.058 C 
ATOM     16  C   UNL     1      31.201  -8.080 -23.268  0.00  0.00    +0.018 C 
ATOM     17  C   UNL     1      32.080  -6.723 -21.471  0.00  0.00    +0.018 C 
BRANCH  12  18
ATOM     18  O   UNL     1      31.905  -4.717 -24.525  0.00  0.00    -0.473 OA
BRANCH  18  19
ATOM     19  C   UNL     1      31.500  -3.448 -24.022  0.00  0.00    +0.232 C 
BRANCH  19  20
ATOM     20  C   UNL     1      31.152  -2.538 -25.198  0.00  0.00    +0.133 C 
BRANCH  20  21
ATOM     21  O   UNL     1      29.730  -2.399 -25.261  0.00  0.00    -0.383 OA
ATOM     22  H   UNL     1      29.327  -3.268 -25.422  0.00  0.00    +0.210 HD
ENDBRANCH  20  21
BRANCH  20  23
ATOM     23  C   UNL     1      31.640  -3.076 -26.545  0.00  0.00    -0.044 C 
BRANCH  23  24
ATOM     24  N   UNL     1      33.093  -3.136 -26.617  0.00  0.00    +0.386 N 
ATOM     25  C   UNL     1      33.651  -1.812 -26.903  0.00  0.00    -0.101 C 
ATOM     26  C   UNL     1      33.521  -4.096 -27.637  0.00  0.00    -0.101 C 
ATOM     27  H   UNL     1      33.443  -3.447 -25.711  0.00  0.00    -0.080 HD
ENDBRANCH  23  24
ENDBRANCH  20  23
ENDBRANCH  19  20
ENDBRANCH  18  19
ENDBRANCH  12  18
ENDBRANCH   2  15
BRANCH   3  28
ATOM     28  C   UNL     1      33.797 -11.985 -24.732  0.00  0.00    +0.050 C 
ATOM     29  C   UNL     1      34.577 -10.865 -24.425  0.00  0.00    +0.015 C 
ATOM     30  C   UNL     1      33.806 -12.496 -26.033  0.00  0.00    +0.015 C 
ATOM     31  C   UNL     1      35.357 -10.262 -25.411  0.00  0.00    +0.001 C 
ATOM     32  C   UNL     1      34.587 -11.892 -27.018  0.00  0.00    +0.001 C 
ATOM     33  C   UNL     1      35.363 -10.776 -26.708  0.00  0.00    +0.000 C 
ENDBRANCH   3  28
TORSDOF 8
ENDMDL
MODEL 7
REMARK VINA RESULT:      -8.0      7.166     12.876
REMARK  Name = 445957
REMARK  8 active torsions:
REMARK  status: ('A' for Active; 'I' for Inactive)
REMARK    1  A    between atoms: N_2  and  C_15
REMARK    2  A    between atoms: N_3  and  C_28
REMARK    3  A    between atoms: C_12  and  O_18
REMARK    4  A    between atoms: O_18  and  C_19
REMARK    5  A    between atoms: C_19  and  C_20
REMARK    6  A    between atoms: C_20  and  O_21
REMARK    7  A    between atoms: C_20  and  C_23
REMARK    8  A    between atoms: C_23  and  N_24
REMARK                            x       y       z     vdW  Elec       q    Type
REMARK                         _______ _______ _______ _____ _____    ______ ____
ROOT
ATOM      1 BR   UNL     1      32.321  -5.395 -22.367  0.00  0.00    -0.043 Br
ATOM      2  N   UNL     1      34.249 -10.205 -25.354  0.00  0.00    -0.247 N 
ATOM      3  N   UNL     1      31.719  -8.428 -21.803  0.00  0.00    -0.287 N 
ATOM      4  N   UNL     1      32.986  -9.325 -23.583  0.00  0.00    -0.321 NA
ATOM      5  N   UNL     1      34.189  -7.875 -25.085  0.00  0.00    -0.169 NA
ATOM      6  C   UNL     1      33.786  -9.082 -24.640  0.00  0.00    +0.150 C 
ATOM      7  C   UNL     1      32.562  -8.227 -22.922  0.00  0.00    +0.204 C 
ATOM      8  C   UNL     1      32.904  -6.939 -23.278  0.00  0.00    +0.099 C 
ATOM      9  C   UNL     1      33.728  -6.822 -24.379  0.00  0.00    +0.122 C 
ATOM     10  H   UNL     1      34.829  -9.978 -26.116  0.00  0.00    +0.165 HD
ATOM     11  H   UNL     1      31.085  -7.693 -21.646  0.00  0.00    +0.155 HD
ENDROOT
BRANCH   2  15
ATOM     12  C   UNL     1      33.636 -14.323 -24.871  0.00  0.00    +0.139 C 
ATOM     13  C   UNL     1      33.946 -13.539 -23.766  0.00  0.00    +0.038 C 
ATOM     14  C   UNL     1      33.527 -13.755 -26.135  0.00  0.00    +0.038 C 
ATOM     15  C   UNL     1      34.043 -11.591 -25.192  0.00  0.00    +0.058 C 
ATOM     16  C   UNL     1      34.151 -12.168 -23.926  0.00  0.00    +0.018 C 
ATOM     17  C   UNL     1      33.731 -12.384 -26.296  0.00  0.00    +0.018 C 
BRANCH  12  18
ATOM     18  O   UNL     1      33.437 -15.669 -24.714  0.00  0.00    -0.473 OA
BRANCH  18  19
ATOM     19  C   UNL     1      34.207 -16.316 -23.705  0.00  0.00    +0.232 C 
BRANCH  19  20
ATOM     20  C   UNL     1      34.946 -17.498 -24.329  0.00  0.00    +0.133 C 
BRANCH  20  21
ATOM     21  O   UNL     1      34.395 -17.745 -25.626  0.00  0.00    -0.383 OA
ATOM     22  H   UNL     1      34.674 -17.042 -26.235  0.00  0.00    +0.210 HD
ENDBRANCH  20  21
BRANCH  20  23
ATOM     23  C   UNL     1      34.834 -18.785 -23.509  0.00  0.00    -0.044 C 
BRANCH  23  24
ATOM     24  N   UNL     1      34.819 -18.522 -22.077  0.00  0.00    +0.386 N 
ATOM     25  C   UNL     1      36.166 -18.645 -21.516  0.00  0.00    -0.101 C 
ATOM     26  C   UNL     1      33.901 -19.435 -21.393  0.00  0.00    -0.101 C 
ATOM     27  H   UNL     1      34.494 -17.566 -21.933  0.00  0.00    -0.080 HD
ENDBRANCH  23  24
ENDBRANCH  20  23
ENDBRANCH  19  20
ENDBRANCH  18  19
ENDBRANCH  12  18
ENDBRANCH   2  15
BRANCH   3  28
ATOM     28  C   UNL     1      31.612  -9.475 -20.873  0.00  0.00    +0.050 C 
ATOM     29  C   UNL     1      31.764  -9.221 -19.506  0.00  0.00    +0.015 C 
ATOM     30  C   UNL     1      31.353 -10.778 -21.307  0.00  0.00    +0.015 C 
ATOM     31  C   UNL     1      31.659 -10.261 -18.583  0.00  0.00    +0.001 C 
ATOM     32  C   UNL     1      31.248 -11.818 -20.383  0.00  0.00    +0.001 C 
ATOM     33  C   UNL     1      31.400 -11.560 -19.021  0.00  0.00    +0.000 C 
ENDBRANCH   3  28
TORSDOF 8
ENDMDL
MODEL 8
REMARK VINA RESULT:      -7.8     11.649     15.489
REMARK  Name = 445957
REMARK  8 active torsions:
REMARK  status: ('A' for Active; 'I' for Inactive)
REMARK    1  A    between atoms: N_2  and  C_15
REMARK    2  A    between atoms: N_3  and  C_28
REMARK    3  A    between atoms: C_12  and  O_18
REMARK    4  A    between atoms: O_18  and  C_19
REMARK    5  A    between atoms: C_19  and  C_20
REMARK    6  A    between atoms: C_20  and  O_21
REMARK    7  A    between atoms: C_20  and  C_23
REMARK    8  A    between atoms: C_23  and  N_24
REMARK                            x       y       z     vdW  Elec       q    Type
REMARK                         _______ _______ _______ _____ _____    ______ ____
ROOT
ATOM      1 BR   UNL     1      32.329 -14.094 -21.106  0.00  0.00    -0.043 Br
ATOM      2  N   UNL     1      31.715  -8.156 -21.488  0.00  0.00    -0.247 N 
ATOM      3  N   UNL     1      32.841 -12.221 -23.579  0.00  0.00    -0.287 N 
ATOM      4  N   UNL     1      32.277 -10.179 -22.535  0.00  0.00    -0.321 NA
ATOM      5  N   UNL     1      31.580 -10.131 -20.229  0.00  0.00    -0.169 NA
ATOM      6  C   UNL     1      31.864  -9.554 -21.414  0.00  0.00    +0.150 C 
ATOM      7  C   UNL     1      32.409 -11.518 -22.429  0.00  0.00    +0.204 C 
ATOM      8  C   UNL     1      32.149 -12.224 -21.272  0.00  0.00    +0.099 C 
ATOM      9  C   UNL     1      31.733 -11.471 -20.194  0.00  0.00    +0.122 C 
ATOM     10  H   UNL     1      31.413  -7.745 -20.646  0.00  0.00    +0.165 HD
ATOM     11  H   UNL     1      32.496 -13.141 -23.635  0.00  0.00    +0.155 HD
ENDROOT
BRANCH   2  15
ATOM     12  C   UNL     1      32.303  -5.398 -24.589  0.00  0.00    +0.139 C 
ATOM     13  C   UNL     1      31.100  -5.405 -23.892  0.00  0.00    +0.038 C 
ATOM     14  C   UNL     1      33.313  -6.297 -24.267  0.00  0.00    +0.038 C 
ATOM     15  C   UNL     1      31.913  -7.228 -22.531  0.00  0.00    +0.058 C 
ATOM     16  C   UNL     1      30.903  -6.323 -22.860  0.00  0.00    +0.018 C 
ATOM     17  C   UNL     1      33.117  -7.215 -23.235  0.00  0.00    +0.018 C 
BRANCH  12  18
ATOM     18  O   UNL     1      32.494  -4.498 -25.603  0.00  0.00    -0.473 OA
BRANCH  18  19
ATOM     19  C   UNL     1      33.384  -4.886 -26.645  0.00  0.00    +0.232 C 
BRANCH  19  20
ATOM     20  C   UNL     1      33.716  -3.660 -27.493  0.00  0.00    +0.133 C 
BRANCH  20  21
ATOM     21  O   UNL     1      35.121  -3.410 -27.400  0.00  0.00    -0.383 OA
ATOM     22  H   UNL     1      35.274  -2.457 -27.299  0.00  0.00    +0.210 HD
ENDBRANCH  20  21
BRANCH  20  23
ATOM     23  C   UNL     1      32.975  -2.396 -27.048  0.00  0.00    -0.044 C 
BRANCH  23  24
ATOM     24  N   UNL     1      31.548  -2.472 -27.327  0.00  0.00    +0.386 N 
ATOM     25  C   UNL     1      31.247  -1.896 -28.639  0.00  0.00    -0.101 C 
ATOM     26  C   UNL     1      30.781  -1.786 -26.285  0.00  0.00    -0.101 C 
ATOM     27  H   UNL     1      31.278  -3.455 -27.334  0.00  0.00    -0.080 HD
ENDBRANCH  23  24
ENDBRANCH  20  23
ENDBRANCH  19  20
ENDBRANCH  18  19
ENDBRANCH  12  18
ENDBRANCH   2  15
BRANCH   3  28
ATOM     28  C   UNL     1      33.665 -11.859 -24.658  0.00  0.00    +0.050 C 
ATOM     29  C   UNL     1      33.623 -12.588 -25.850  0.00  0.00    +0.015 C 
ATOM     30  C   UNL     1      34.532 -10.768 -24.545  0.00  0.00    +0.015 C 
ATOM     31  C   UNL     1      34.443 -12.230 -26.920  0.00  0.00    +0.001 C 
ATOM     32  C   UNL     1      35.351 -10.411 -25.616  0.00  0.00    +0.001 C 
ATOM     33  C   UNL     1      35.307 -11.141 -26.804  0.00  0.00    +0.000 C 
ENDBRANCH   3  28
TORSDOF 8
ENDMDL
MODEL 9
REMARK VINA RESULT:      -7.8      4.481      8.350
REMARK  Name = 445957
REMARK  8 active torsions:
REMARK  status: ('A' for Active; 'I' for Inactive)
REMARK    1  A    between atoms: N_2  and  C_15
REMARK    2  A    between atoms: N_3  and  C_28
REMARK    3  A    between atoms: C_12  and  O_18
REMARK    4  A    between atoms: O_18  and  C_19
REMARK    5  A    between atoms: C_19  and  C_20
REMARK    6  A    between atoms: C_20  and  O_21
REMARK    7  A    between atoms: C_20  and  C_23
REMARK    8  A    between atoms: C_23  and  N_24
REMARK                            x       y       z     vdW  Elec       q    Type
REMARK                         _______ _______ _______ _____ _____    ______ ____
ROOT
ATOM      1 BR   UNL     1      32.658 -20.342 -20.735  0.00  0.00    -0.043 Br
ATOM      2  N   UNL     1      37.353 -22.209 -17.533  0.00  0.00    -0.247 N 
ATOM      3  N   UNL     1      32.718 -22.381 -18.343  0.00  0.00    -0.287 N 
ATOM      4  N   UNL     1      35.043 -22.299 -17.933  0.00  0.00    -0.321 NA
ATOM      5  N   UNL     1      36.475 -20.891 -19.263  0.00  0.00    -0.169 NA
ATOM      6  C   UNL     1      36.238 -21.780 -18.278  0.00  0.00    +0.150 C 
ATOM      7  C   UNL     1      33.997 -21.865 -18.666  0.00  0.00    +0.204 C 
ATOM      8  C   UNL     1      34.109 -20.958 -19.700  0.00  0.00    +0.099 C 
ATOM      9  C   UNL     1      35.385 -20.500 -19.957  0.00  0.00    +0.122 C 
ATOM     10  H   UNL     1      38.202 -21.802 -17.821  0.00  0.00    +0.165 HD
ATOM     11  H   UNL     1      32.107 -22.437 -19.112  0.00  0.00    +0.155 HD
ENDROOT
BRANCH   2  15
ATOM     12  C   UNL     1      37.768 -24.883 -14.332  0.00  0.00    +0.139 C 
ATOM     13  C   UNL     1      36.500 -24.464 -14.720  0.00  0.00    +0.038 C 
ATOM     14  C   UNL     1      38.900 -24.423 -14.996  0.00  0.00    +0.038 C 
ATOM     15  C   UNL     1      37.493 -23.108 -16.456  0.00  0.00    +0.058 C 
ATOM     16  C   UNL     1      36.362 -23.574 -15.785  0.00  0.00    +0.018 C 
ATOM     17  C   UNL     1      38.762 -23.533 -16.061  0.00  0.00    +0.018 C 
BRANCH  12  18
ATOM     18  O   UNL     1      37.903 -25.755 -13.285  0.00  0.00    -0.473 OA
BRANCH  18  19
ATOM     19  C   UNL     1      38.324 -25.203 -12.041  0.00  0.00    +0.232 C 
BRANCH  19  20
ATOM     20  C   UNL     1      38.085 -23.695 -12.064  0.00  0.00    +0.133 C 
BRANCH  20  21
ATOM     21  O   UNL     1      39.231 -23.044 -11.509  0.00  0.00    -0.383 OA
ATOM     22  H   UNL     1      39.720 -22.593 -12.216  0.00  0.00    +0.210 HD
ENDBRANCH  20  21
BRANCH  20  23
ATOM     23  C   UNL     1      36.854 -23.265 -11.261  0.00  0.00    -0.044 C 
BRANCH  23  24
ATOM     24  N   UNL     1      35.814 -24.282 -11.266  0.00  0.00    +0.386 N 
ATOM     25  C   UNL     1      34.681 -23.859 -12.092  0.00  0.00    -0.101 C 
ATOM     26  C   UNL     1      35.365 -24.570  -9.901  0.00  0.00    -0.101 C 
ATOM     27  H   UNL     1      36.205 -25.135 -11.664  0.00  0.00    -0.080 HD
ENDBRANCH  23  24
ENDBRANCH  20  23
ENDBRANCH  19  20
ENDBRANCH  18  19
ENDBRANCH  12  18
ENDBRANCH   2  15
BRANCH   3  28
ATOM     28  C   UNL     1      32.155 -22.830 -17.138  0.00  0.00    +0.050 C 
ATOM     29  C   UNL     1      30.792 -22.642 -16.885  0.00  0.00    +0.015 C 
ATOM     30  C   UNL     1      32.952 -23.469 -16.183  0.00  0.00    +0.015 C 
ATOM     31  C   UNL     1      30.233 -23.086 -15.687  0.00  0.00    +0.001 C 
ATOM     32  C   UNL     1      32.391 -23.913 -14.986  0.00  0.00    +0.001 C 
ATOM     33  C   UNL     1      31.032 -23.723 -14.737  0.00  0.00    +0.000 C 
ENDBRANCH   3  28
TORSDOF 8
ENDMDL
