MODEL 1
REMARK VINA RESULT:     -10.8      0.000      0.000
REMARK  Name = 35802
REMARK  4 active torsions:
REMARK  status: ('A' for Active; 'I' for Inactive)
REMARK    1  A    between atoms: N_4  and  C_11
REMARK    2  A    between atoms: C_7  and  C_17
REMARK    3  A    between atoms: C_12  and  O_25
REMARK    4  A    between atoms: C_17  and  C_19
REMARK                            x       y       z     vdW  Elec       q    Type
REMARK                         _______ _______ _______ _____ _____    ______ ____
ROOT
ATOM      1  N   UNL     1      34.089 -14.114 -22.256  0.00  0.00    -0.302 N 
ATOM      2  N   UNL     1      33.711 -14.385 -24.429  0.00  0.00    -0.302 N 
ATOM      3  C   UNL     1      34.502 -15.390 -22.543  0.00  0.00    +0.060 C 
ATOM      4  C   UNL     1      34.255 -15.535 -23.906  0.00  0.00    +0.060 C 
ATOM      5  C   UNL     1      35.360 -17.604 -22.392  0.00  0.00    +0.040 C 
ATOM      6  C   UNL     1      35.053 -16.399 -21.752  0.00  0.00    +0.019 C 
ATOM      7  C   UNL     1      34.571 -16.752 -24.533  0.00  0.00    +0.016 C 
ATOM      8  C   UNL     1      35.125 -17.779 -23.758  0.00  0.00    +0.005 C 
ATOM      9  C   UNL     1      33.625 -13.555 -23.415  0.00  0.00    +0.229 C 
ATOM     10  H   UNL     1      34.121 -13.678 -21.375  0.00  0.00    +0.150 HD
ATOM     11  H   UNL     1      33.444 -14.220 -25.364  0.00  0.00    +0.150 HD
ENDROOT
BRANCH   9  13
ATOM     12  O   UNL     1      34.422 -11.246 -25.110  0.00  0.00    -0.226 OA
ATOM     13  N   UNL     1      33.147 -12.270 -23.421  0.00  0.00    -0.240 N 
ATOM     14  C   UNL     1      33.558 -11.219 -24.242  0.00  0.00    +0.404 C 
ATOM     15  H   UNL     1      32.434 -12.066 -22.774  0.00  0.00    +0.156 HD
BRANCH  14  16
ATOM     16  O   UNL     1      32.835 -10.097 -23.936  0.00  0.00    -0.431 OA
ATOM     17  C   UNL     1      32.196 -10.088 -22.655  0.00  0.00    +0.257 C 
ENDBRANCH  14  16
ENDBRANCH   9  13
BRANCH   5  19
ATOM     18  O   UNL     1      37.168 -18.839 -21.568  0.00  0.00    -0.287 OA
ATOM     19  C   UNL     1      35.938 -18.693 -21.620  0.00  0.00    +0.196 C 
BRANCH  19  21
ATOM     20  F   UNL     1      32.795 -22.355 -18.811  0.00  0.00    -0.204 F 
ATOM     21  C   UNL     1      35.097 -19.674 -20.868  0.00  0.00    +0.039 C 
ATOM     22  C   UNL     1      35.724 -20.681 -20.173  0.00  0.00    +0.005 C 
ATOM     23  C   UNL     1      33.730 -19.529 -20.902  0.00  0.00    +0.005 C 
ATOM     24  C   UNL     1      34.939 -21.596 -19.472  0.00  0.00    +0.030 C 
ATOM     25  C   UNL     1      32.945 -20.443 -20.200  0.00  0.00    +0.030 C 
ATOM     26  C   UNL     1      33.549 -21.477 -19.485  0.00  0.00    +0.140 C 
ENDBRANCH  19  21
ENDBRANCH   5  19
TORSDOF 4
ENDMDL
MODEL 2
REMARK VINA RESULT:     -10.8      0.995      1.229
REMARK  Name = 35802
REMARK  4 active torsions:
REMARK  status: ('A' for Active; 'I' for Inactive)
REMARK    1  A    between atoms: N_4  and  C_11
REMARK    2  A    between atoms: C_7  and  C_17
REMARK    3  A    between atoms: C_12  and  O_25
REMARK    4  A    between atoms: C_17  and  C_19
REMARK                            x       y       z     vdW  Elec       q    Type
REMARK                         _______ _______ _______ _____ _____    ______ ____
ROOT
ATOM      1  N   UNL     1      33.864 -14.111 -22.169  0.00  0.00    -0.302 N 
ATOM      2  N   UNL     1      33.507 -14.318 -24.353  0.00  0.00    -0.302 N 
ATOM      3  C   UNL     1      34.335 -15.356 -22.500  0.00  0.00    +0.060 C 
ATOM      4  C   UNL     1      34.100 -15.461 -23.869  0.00  0.00    +0.060 C 
ATOM      5  C   UNL     1      35.290 -17.533 -22.426  0.00  0.00    +0.040 C 
ATOM      6  C   UNL     1      34.927 -16.368 -21.744  0.00  0.00    +0.019 C 
ATOM      7  C   UNL     1      34.472 -16.639 -24.538  0.00  0.00    +0.016 C 
ATOM      8  C   UNL     1      35.069 -17.668 -23.798  0.00  0.00    +0.005 C 
ATOM      9  C   UNL     1      33.380 -13.530 -23.310  0.00  0.00    +0.229 C 
ATOM     10  H   UNL     1      33.873 -13.706 -21.272  0.00  0.00    +0.150 HD
ATOM     11  H   UNL     1      33.237 -14.131 -25.282  0.00  0.00    +0.150 HD
ENDROOT
BRANCH   9  13
ATOM     12  O   UNL     1      31.603 -12.288 -21.276  0.00  0.00    -0.226 OA
ATOM     13  N   UNL     1      32.846 -12.269 -23.271  0.00  0.00    -0.240 N 
ATOM     14  C   UNL     1      32.013 -11.733 -22.288  0.00  0.00    +0.404 C 
ATOM     15  H   UNL     1      33.076 -11.674 -24.021  0.00  0.00    +0.156 HD
BRANCH  14  16
ATOM     16  O   UNL     1      31.698 -10.441 -22.617  0.00  0.00    -0.431 OA
ATOM     17  C   UNL     1      32.722  -9.691 -23.280  0.00  0.00    +0.257 C 
ENDBRANCH  14  16
ENDBRANCH   9  13
BRANCH   5  19
ATOM     18  O   UNL     1      37.145 -18.757 -21.695  0.00  0.00    -0.287 OA
ATOM     19  C   UNL     1      35.912 -18.624 -21.691  0.00  0.00    +0.196 C 
BRANCH  19  21
ATOM     20  F   UNL     1      32.936 -22.342 -18.777  0.00  0.00    -0.204 F 
ATOM     21  C   UNL     1      35.116 -19.619 -20.911  0.00  0.00    +0.039 C 
ATOM     22  C   UNL     1      35.787 -20.590 -20.204  0.00  0.00    +0.005 C 
ATOM     23  C   UNL     1      33.744 -19.524 -20.931  0.00  0.00    +0.005 C 
ATOM     24  C   UNL     1      35.043 -21.519 -19.477  0.00  0.00    +0.030 C 
ATOM     25  C   UNL     1      33.001 -20.452 -20.203  0.00  0.00    +0.030 C 
ATOM     26  C   UNL     1      33.650 -21.450 -19.476  0.00  0.00    +0.140 C 
ENDBRANCH  19  21
ENDBRANCH   5  19
TORSDOF 4
ENDMDL
MODEL 3
REMARK VINA RESULT:     -10.8      5.227      9.163
REMARK  Name = 35802
REMARK  4 active torsions:
REMARK  status: ('A' for Active; 'I' for Inactive)
REMARK    1  A    between atoms: N_4  and  C_11
REMARK    2  A    between atoms: C_7  and  C_17
REMARK    3  A    between atoms: C_12  and  O_25
REMARK    4  A    between atoms: C_17  and  C_19
REMARK                            x       y       z     vdW  Elec       q    Type
REMARK                         _______ _______ _______ _____ _____    ______ ____
ROOT
ATOM      1  N   UNL     1      35.110 -22.097 -18.484  0.00  0.00    -0.302 N 
ATOM      2  N   UNL     1      32.898 -22.092 -18.706  0.00  0.00    -0.302 N 
ATOM      3  C   UNL     1      34.843 -21.189 -19.478  0.00  0.00    +0.060 C 
ATOM      4  C   UNL     1      33.456 -21.206 -19.598  0.00  0.00    +0.060 C 
ATOM      5  C   UNL     1      35.043 -19.559 -21.198  0.00  0.00    +0.040 C 
ATOM      6  C   UNL     1      35.671 -20.381 -20.257  0.00  0.00    +0.019 C 
ATOM      7  C   UNL     1      32.842 -20.372 -20.547  0.00  0.00    +0.016 C 
ATOM      8  C   UNL     1      33.653 -19.552 -21.342  0.00  0.00    +0.005 C 
ATOM      9  C   UNL     1      33.915 -22.609 -18.055  0.00  0.00    +0.229 C 
ATOM     10  H   UNL     1      36.000 -22.336 -18.140  0.00  0.00    +0.150 HD
ATOM     11  H   UNL     1      31.942 -22.296 -18.583  0.00  0.00    +0.150 HD
ENDROOT
BRANCH   9  13
ATOM     12  O   UNL     1      35.333 -22.638 -15.442  0.00  0.00    -0.226 OA
ATOM     13  N   UNL     1      33.883 -23.545 -17.055  0.00  0.00    -0.240 N 
ATOM     14  C   UNL     1      34.572 -23.511 -15.841  0.00  0.00    +0.404 C 
ATOM     15  H   UNL     1      33.310 -24.331 -17.210  0.00  0.00    +0.156 HD
BRANCH  14  16
ATOM     16  O   UNL     1      34.271 -24.634 -15.118  0.00  0.00    -0.431 OA
ATOM     17  C   UNL     1      33.470 -24.434 -13.947  0.00  0.00    +0.257 C 
ENDBRANCH  14  16
ENDBRANCH   9  13
BRANCH   5  19
ATOM     18  O   UNL     1      37.079 -18.624 -21.870  0.00  0.00    -0.287 OA
ATOM     19  C   UNL     1      35.853 -18.693 -22.041  0.00  0.00    +0.196 C 
BRANCH  19  21
ATOM     20  F   UNL     1      33.649 -15.577 -26.116  0.00  0.00    -0.204 F 
ATOM     21  C   UNL     1      35.263 -17.859 -23.131  0.00  0.00    +0.039 C 
ATOM     22  C   UNL     1      35.040 -16.523 -22.891  0.00  0.00    +0.005 C 
ATOM     23  C   UNL     1      34.967 -18.460 -24.332  0.00  0.00    +0.005 C 
ATOM     24  C   UNL     1      34.489 -15.745 -23.909  0.00  0.00    +0.030 C 
ATOM     25  C   UNL     1      34.417 -17.682 -25.350  0.00  0.00    +0.030 C 
ATOM     26  C   UNL     1      34.178 -16.324 -25.138  0.00  0.00    +0.140 C 
ENDBRANCH  19  21
ENDBRANCH   5  19
TORSDOF 4
ENDMDL
MODEL 4
REMARK VINA RESULT:     -10.7      5.216      8.990
REMARK  Name = 35802
REMARK  4 active torsions:
REMARK  status: ('A' for Active; 'I' for Inactive)
REMARK    1  A    between atoms: N_4  and  C_11
REMARK    2  A    between atoms: C_7  and  C_17
REMARK    3  A    between atoms: C_12  and  O_25
REMARK    4  A    between atoms: C_17  and  C_19
REMARK                            x       y       z     vdW  Elec       q    Type
REMARK                         _______ _______ _______ _____ _____    ______ ____
ROOT
ATOM      1  N   UNL     1      32.692 -21.923 -18.896  0.00  0.00    -0.302 N 
ATOM      2  N   UNL     1      34.619 -22.505 -17.953  0.00  0.00    -0.302 N 
ATOM      3  C   UNL     1      33.665 -21.301 -19.636  0.00  0.00    +0.060 C 
ATOM      4  C   UNL     1      34.858 -21.680 -19.027  0.00  0.00    +0.060 C 
ATOM      5  C   UNL     1      34.823 -20.003 -21.258  0.00  0.00    +0.040 C 
ATOM      6  C   UNL     1      33.605 -20.466 -20.752  0.00  0.00    +0.019 C 
ATOM      7  C   UNL     1      36.074 -21.206 -19.549  0.00  0.00    +0.016 C 
ATOM      8  C   UNL     1      36.037 -20.365 -20.669  0.00  0.00    +0.005 C 
ATOM      9  C   UNL     1      33.312 -22.630 -17.902  0.00  0.00    +0.229 C 
ATOM     10  H   UNL     1      31.722 -21.872 -19.051  0.00  0.00    +0.150 HD
ATOM     11  H   UNL     1      35.284 -22.913 -17.351  0.00  0.00    +0.150 HD
ENDROOT
BRANCH   9  13
ATOM     12  O   UNL     1      30.471 -22.309 -17.088  0.00  0.00    -0.226 OA
ATOM     13  N   UNL     1      32.573 -23.358 -17.005  0.00  0.00    -0.240 N 
ATOM     14  C   UNL     1      31.236 -23.165 -16.658  0.00  0.00    +0.404 C 
ATOM     15  H   UNL     1      33.039 -24.100 -16.556  0.00  0.00    +0.156 HD
BRANCH  14  16
ATOM     16  O   UNL     1      30.869 -24.101 -15.728  0.00  0.00    -0.431 OA
ATOM     17  C   UNL     1      29.517 -24.566 -15.801  0.00  0.00    +0.257 C 
ENDBRANCH  14  16
ENDBRANCH   9  13
BRANCH   5  19
ATOM     18  O   UNL     1      34.914 -19.605 -23.561  0.00  0.00    -0.287 OA
ATOM     19  C   UNL     1      34.826 -19.128 -22.421  0.00  0.00    +0.196 C 
BRANCH  19  21
ATOM     20  F   UNL     1      34.452 -13.574 -21.986  0.00  0.00    -0.204 F 
ATOM     21  C   UNL     1      34.726 -17.642 -22.303  0.00  0.00    +0.039 C 
ATOM     22  C   UNL     1      34.614 -17.086 -21.050  0.00  0.00    +0.005 C 
ATOM     23  C   UNL     1      34.749 -16.889 -23.454  0.00  0.00    +0.005 C 
ATOM     24  C   UNL     1      34.520 -15.698 -20.942  0.00  0.00    +0.030 C 
ATOM     25  C   UNL     1      34.656 -15.502 -23.346  0.00  0.00    +0.030 C 
ATOM     26  C   UNL     1      34.542 -14.906 -22.090  0.00  0.00    +0.140 C 
ENDBRANCH  19  21
ENDBRANCH   5  19
TORSDOF 4
ENDMDL
MODEL 5
REMARK VINA RESULT:     -10.7      3.411      5.320
REMARK  Name = 35802
REMARK  4 active torsions:
REMARK  status: ('A' for Active; 'I' for Inactive)
REMARK    1  A    between atoms: N_4  and  C_11
REMARK    2  A    between atoms: C_7  and  C_17
REMARK    3  A    between atoms: C_12  and  O_25
REMARK    4  A    between atoms: C_17  and  C_19
REMARK                            x       y       z     vdW  Elec       q    Type
REMARK                         _______ _______ _______ _____ _____    ______ ____
ROOT
ATOM      1  N   UNL     1      33.765 -18.663 -21.150  0.00  0.00    -0.302 N 
ATOM      2  N   UNL     1      35.967 -18.365 -21.111  0.00  0.00    -0.302 N 
ATOM      3  C   UNL     1      34.273 -19.772 -20.523  0.00  0.00    +0.060 C 
ATOM      4  C   UNL     1      35.650 -19.562 -20.512  0.00  0.00    +0.060 C 
ATOM      5  C   UNL     1      34.512 -21.859 -19.408  0.00  0.00    +0.040 C 
ATOM      6  C   UNL     1      33.666 -20.905 -19.982  0.00  0.00    +0.019 C 
ATOM      7  C   UNL     1      36.485 -20.531 -19.929  0.00  0.00    +0.016 C 
ATOM      8  C   UNL     1      35.897 -21.677 -19.380  0.00  0.00    +0.005 C 
ATOM      9  C   UNL     1      34.817 -17.852 -21.482  0.00  0.00    +0.229 C 
ATOM     10  H   UNL     1      32.815 -18.481 -21.329  0.00  0.00    +0.150 HD
ATOM     11  H   UNL     1      36.865 -17.977 -21.235  0.00  0.00    +0.150 HD
ENDROOT
BRANCH   9  13
ATOM     12  O   UNL     1      34.883 -15.082 -20.405  0.00  0.00    -0.226 OA
ATOM     13  N   UNL     1      34.596 -16.661 -22.123  0.00  0.00    -0.240 N 
ATOM     14  C   UNL     1      34.640 -15.381 -21.568  0.00  0.00    +0.404 C 
ATOM     15  H   UNL     1      34.384 -16.714 -23.083  0.00  0.00    +0.156 HD
BRANCH  14  16
ATOM     16  O   UNL     1      34.363 -14.457 -22.540  0.00  0.00    -0.431 OA
ATOM     17  C   UNL     1      33.734 -14.957 -23.725  0.00  0.00    +0.257 C 
ENDBRANCH  14  16
ENDBRANCH   9  13
BRANCH   5  19
ATOM     18  O   UNL     1      33.836 -24.097 -19.504  0.00  0.00    -0.287 OA
ATOM     19  C   UNL     1      33.937 -23.063 -18.827  0.00  0.00    +0.196 C 
BRANCH  19  21
ATOM     20  F   UNL     1      32.107 -23.258 -13.555  0.00  0.00    -0.204 F 
ATOM     21  C   UNL     1      33.448 -23.115 -17.416  0.00  0.00    +0.039 C 
ATOM     22  C   UNL     1      34.370 -23.251 -16.404  0.00  0.00    +0.005 C 
ATOM     23  C   UNL     1      32.095 -23.026 -17.186  0.00  0.00    +0.005 C 
ATOM     24  C   UNL     1      33.912 -23.300 -15.087  0.00  0.00    +0.030 C 
ATOM     25  C   UNL     1      31.637 -23.074 -15.869  0.00  0.00    +0.030 C 
ATOM     26  C   UNL     1      32.546 -23.211 -14.820  0.00  0.00    +0.140 C 
ENDBRANCH  19  21
ENDBRANCH   5  19
TORSDOF 4
ENDMDL
MODEL 6
REMARK VINA RESULT:     -10.3      4.624      8.640
REMARK  Name = 35802
REMARK  4 active torsions:
REMARK  status: ('A' for Active; 'I' for Inactive)
REMARK    1  A    between atoms: N_4  and  C_11
REMARK    2  A    between atoms: C_7  and  C_17
REMARK    3  A    between atoms: C_12  and  O_25
REMARK    4  A    between atoms: C_17  and  C_19
REMARK                            x       y       z     vdW  Elec       q    Type
REMARK                         _______ _______ _______ _____ _____    ______ ____
ROOT
ATOM      1  N   UNL     1      32.825 -20.858 -19.992  0.00  0.00    -0.302 N 
ATOM      2  N   UNL     1      34.758 -21.526 -19.123  0.00  0.00    -0.302 N 
ATOM      3  C   UNL     1      33.792 -20.161 -20.671  0.00  0.00    +0.060 C 
ATOM      4  C   UNL     1      34.990 -20.596 -20.109  0.00  0.00    +0.060 C 
ATOM      5  C   UNL     1      34.939 -18.702 -22.159  0.00  0.00    +0.040 C 
ATOM      6  C   UNL     1      33.724 -19.217 -21.696  0.00  0.00    +0.019 C 
ATOM      7  C   UNL     1      36.201 -20.068 -20.587  0.00  0.00    +0.016 C 
ATOM      8  C   UNL     1      36.157 -19.119 -21.617  0.00  0.00    +0.005 C 
ATOM      9  C   UNL     1      33.452 -21.660 -19.079  0.00  0.00    +0.229 C 
ATOM     10  H   UNL     1      31.854 -20.793 -20.137  0.00  0.00    +0.150 HD
ATOM     11  H   UNL     1      35.428 -21.992 -18.570  0.00  0.00    +0.150 HD
ENDROOT
BRANCH   9  13
ATOM     12  O   UNL     1      34.357 -23.406 -16.849  0.00  0.00    -0.226 OA
ATOM     13  N   UNL     1      32.720 -22.477 -18.257  0.00  0.00    -0.240 N 
ATOM     14  C   UNL     1      33.196 -23.279 -17.220  0.00  0.00    +0.404 C 
ATOM     15  H   UNL     1      31.748 -22.499 -18.416  0.00  0.00    +0.156 HD
BRANCH  14  16
ATOM     16  O   UNL     1      32.147 -23.941 -16.640  0.00  0.00    -0.431 OA
ATOM     17  C   UNL     1      31.041 -23.130 -16.226  0.00  0.00    +0.257 C 
ENDBRANCH  14  16
ENDBRANCH   9  13
BRANCH   5  19
ATOM     18  O   UNL     1      35.372 -18.004 -24.349  0.00  0.00    -0.287 OA
ATOM     19  C   UNL     1      34.933 -17.714 -23.227  0.00  0.00    +0.196 C 
BRANCH  19  21
ATOM     20  F   UNL     1      32.979 -12.535 -22.494  0.00  0.00    -0.204 F 
ATOM     21  C   UNL     1      34.410 -16.328 -23.031  0.00  0.00    +0.039 C 
ATOM     22  C   UNL     1      33.895 -15.658 -24.117  0.00  0.00    +0.005 C 
ATOM     23  C   UNL     1      34.464 -15.776 -21.772  0.00  0.00    +0.005 C 
ATOM     24  C   UNL     1      33.408 -14.364 -23.934  0.00  0.00    +0.030 C 
ATOM     25  C   UNL     1      33.976 -14.483 -21.589  0.00  0.00    +0.030 C 
ATOM     26  C   UNL     1      33.448 -13.777 -22.670  0.00  0.00    +0.140 C 
ENDBRANCH  19  21
ENDBRANCH   5  19
TORSDOF 4
ENDMDL
MODEL 7
REMARK VINA RESULT:     -10.1      1.280      1.952
REMARK  Name = 35802
REMARK  4 active torsions:
REMARK  status: ('A' for Active; 'I' for Inactive)
REMARK    1  A    between atoms: N_4  and  C_11
REMARK    2  A    between atoms: C_7  and  C_17
REMARK    3  A    between atoms: C_12  and  O_25
REMARK    4  A    between atoms: C_17  and  C_19
REMARK                            x       y       z     vdW  Elec       q    Type
REMARK                         _______ _______ _______ _____ _____    ______ ____
ROOT
ATOM      1  N   UNL     1      34.139 -13.477 -23.562  0.00  0.00    -0.302 N 
ATOM      2  N   UNL     1      32.598 -13.134 -21.998  0.00  0.00    -0.302 N 
ATOM      3  C   UNL     1      34.103 -14.633 -22.824  0.00  0.00    +0.060 C 
ATOM      4  C   UNL     1      33.133 -14.393 -21.854  0.00  0.00    +0.060 C 
ATOM      5  C   UNL     1      34.511 -16.817 -21.977  0.00  0.00    +0.040 C 
ATOM      6  C   UNL     1      34.813 -15.830 -22.920  0.00  0.00    +0.019 C 
ATOM      7  C   UNL     1      32.843 -15.397 -20.915  0.00  0.00    +0.016 C 
ATOM      8  C   UNL     1      33.543 -16.607 -20.991  0.00  0.00    +0.005 C 
ATOM      9  C   UNL     1      33.222 -12.613 -23.029  0.00  0.00    +0.229 C 
ATOM     10  H   UNL     1      34.720 -13.300 -24.337  0.00  0.00    +0.150 HD
ATOM     11  H   UNL     1      31.898 -12.714 -21.446  0.00  0.00    +0.150 HD
ENDROOT
BRANCH   9  13
ATOM     12  O   UNL     1      31.989 -10.180 -21.844  0.00  0.00    -0.226 OA
ATOM     13  N   UNL     1      33.043 -11.369 -23.577  0.00  0.00    -0.240 N 
ATOM     14  C   UNL     1      32.456 -10.256 -22.975  0.00  0.00    +0.404 C 
ATOM     15  H   UNL     1      33.366 -11.247 -24.499  0.00  0.00    +0.156 HD
BRANCH  14  16
ATOM     16  O   UNL     1      32.468  -9.206 -23.854  0.00  0.00    -0.431 OA
ATOM     17  C   UNL     1      31.487  -8.185 -23.630  0.00  0.00    +0.257 C 
ENDBRANCH  14  16
ENDBRANCH   9  13
BRANCH   5  19
ATOM     18  O   UNL     1      36.183 -18.238 -22.789  0.00  0.00    -0.287 OA
ATOM     19  C   UNL     1      35.219 -18.088 -22.025  0.00  0.00    +0.196 C 
BRANCH  19  21
ATOM     20  F   UNL     1      33.755 -22.443 -18.852  0.00  0.00    -0.204 F 
ATOM     21  C   UNL     1      34.828 -19.253 -21.176  0.00  0.00    +0.039 C 
ATOM     22  C   UNL     1      35.816 -19.955 -20.524  0.00  0.00    +0.005 C 
ATOM     23  C   UNL     1      33.495 -19.579 -21.080  0.00  0.00    +0.005 C 
ATOM     24  C   UNL     1      35.450 -21.043 -19.732  0.00  0.00    +0.030 C 
ATOM     25  C   UNL     1      33.129 -20.666 -20.287  0.00  0.00    +0.030 C 
ATOM     26  C   UNL     1      34.106 -21.398 -19.613  0.00  0.00    +0.140 C 
ENDBRANCH  19  21
ENDBRANCH   5  19
TORSDOF 4
ENDMDL
MODEL 8
REMARK VINA RESULT:     -10.0      5.079      8.748
REMARK  Name = 35802
REMARK  4 active torsions:
REMARK  status: ('A' for Active; 'I' for Inactive)
REMARK    1  A    between atoms: N_4  and  C_11
REMARK    2  A    between atoms: C_7  and  C_17
REMARK    3  A    between atoms: C_12  and  O_25
REMARK    4  A    between atoms: C_17  and  C_19
REMARK                            x       y       z     vdW  Elec       q    Type
REMARK                         _______ _______ _______ _____ _____    ______ ____
ROOT
ATOM      1  N   UNL     1      32.731 -21.242 -19.242  0.00  0.00    -0.302 N 
ATOM      2  N   UNL     1      34.103 -22.581 -18.117  0.00  0.00    -0.302 N 
ATOM      3  C   UNL     1      33.993 -20.925 -19.678  0.00  0.00    +0.060 C 
ATOM      4  C   UNL     1      34.831 -21.775 -18.960  0.00  0.00    +0.060 C 
ATOM      5  C   UNL     1      35.841 -19.944 -20.809  0.00  0.00    +0.040 C 
ATOM      6  C   UNL     1      34.458 -19.997 -20.611  0.00  0.00    +0.019 C 
ATOM      7  C   UNL     1      36.218 -21.708 -19.173  0.00  0.00    +0.016 C 
ATOM      8  C   UNL     1      36.708 -20.784 -20.104  0.00  0.00    +0.005 C 
ATOM      9  C   UNL     1      32.850 -22.236 -18.310  0.00  0.00    +0.229 C 
ATOM     10  H   UNL     1      31.892 -20.829 -19.545  0.00  0.00    +0.150 HD
ATOM     11  H   UNL     1      34.447 -23.269 -17.500  0.00  0.00    +0.150 HD
ENDROOT
BRANCH   9  13
ATOM     12  O   UNL     1      32.506 -23.273 -15.545  0.00  0.00    -0.226 OA
ATOM     13  N   UNL     1      31.734 -22.753 -17.703  0.00  0.00    -0.240 N 
ATOM     14  C   UNL     1      31.626 -23.227 -16.396  0.00  0.00    +0.404 C 
ATOM     15  H   UNL     1      30.918 -22.793 -18.252  0.00  0.00    +0.156 HD
BRANCH  14  16
ATOM     16  O   UNL     1      30.345 -23.658 -16.175  0.00  0.00    -0.431 OA
ATOM     17  C   UNL     1      29.301 -22.759 -16.567  0.00  0.00    +0.257 C 
ENDBRANCH  14  16
ENDBRANCH   9  13
BRANCH   5  19
ATOM     18  O   UNL     1      37.574 -18.644 -21.693  0.00  0.00    -0.287 OA
ATOM     19  C   UNL     1      36.387 -18.996 -21.768  0.00  0.00    +0.196 C 
BRANCH  19  21
ATOM     20  F   UNL     1      33.314 -16.798 -25.879  0.00  0.00    -0.204 F 
ATOM     21  C   UNL     1      35.565 -18.409 -22.869  0.00  0.00    +0.039 C 
ATOM     22  C   UNL     1      35.099 -19.242 -23.859  0.00  0.00    +0.005 C 
ATOM     23  C   UNL     1      35.307 -17.058 -22.847  0.00  0.00    +0.005 C 
ATOM     24  C   UNL     1      34.332 -18.692 -24.887  0.00  0.00    +0.030 C 
ATOM     25  C   UNL     1      34.539 -16.509 -23.873  0.00  0.00    +0.030 C 
ATOM     26  C   UNL     1      34.051 -17.326 -24.893  0.00  0.00    +0.140 C 
ENDBRANCH  19  21
ENDBRANCH   5  19
TORSDOF 4
ENDMDL
MODEL 9
REMARK VINA RESULT:      -9.9      5.113      9.330
REMARK  Name = 35802
REMARK  4 active torsions:
REMARK  status: ('A' for Active; 'I' for Inactive)
REMARK    1  A    between atoms: N_4  and  C_11
REMARK    2  A    between atoms: C_7  and  C_17
REMARK    3  A    between atoms: C_12  and  O_25
REMARK    4  A    between atoms: C_17  and  C_19
REMARK                            x       y       z     vdW  Elec       q    Type
REMARK                         _______ _______ _______ _____ _____    ______ ____
ROOT
ATOM      1  N   UNL     1      37.023 -21.086 -18.634  0.00  0.00    -0.302 N 
ATOM      2  N   UNL     1      35.198 -22.127 -17.907  0.00  0.00    -0.302 N 
ATOM      3  C   UNL     1      36.032 -20.753 -19.523  0.00  0.00    +0.060 C 
ATOM      4  C   UNL     1      34.903 -21.416 -19.047  0.00  0.00    +0.060 C 
ATOM      5  C   UNL     1      34.810 -19.835 -21.345  0.00  0.00    +0.040 C 
ATOM      6  C   UNL     1      36.027 -19.954 -20.666  0.00  0.00    +0.019 C 
ATOM      7  C   UNL     1      33.689 -21.284 -19.741  0.00  0.00    +0.016 C 
ATOM      8  C   UNL     1      33.660 -20.487 -20.892  0.00  0.00    +0.005 C 
ATOM      9  C   UNL     1      36.475 -21.908 -17.687  0.00  0.00    +0.229 C 
ATOM     10  H   UNL     1      37.959 -20.787 -18.670  0.00  0.00    +0.150 HD
ATOM     11  H   UNL     1      34.584 -22.681 -17.371  0.00  0.00    +0.150 HD
ENDROOT
BRANCH   9  13
ATOM     12  O   UNL     1      35.872 -24.051 -15.717  0.00  0.00    -0.226 OA
ATOM     13  N   UNL     1      37.246 -22.396 -16.664  0.00  0.00    -0.240 N 
ATOM     14  C   UNL     1      36.914 -23.409 -15.763  0.00  0.00    +0.404 C 
ATOM     15  H   UNL     1      38.134 -21.986 -16.553  0.00  0.00    +0.156 HD
BRANCH  14  16
ATOM     16  O   UNL     1      37.954 -23.601 -14.894  0.00  0.00    -0.431 OA
ATOM     17  C   UNL     1      37.602 -24.036 -13.576  0.00  0.00    +0.257 C 
ENDBRANCH  14  16
ENDBRANCH   9  13
BRANCH   5  19
ATOM     18  O   UNL     1      34.767 -19.544 -23.666  0.00  0.00    -0.287 OA
ATOM     19  C   UNL     1      34.741 -19.015 -22.545  0.00  0.00    +0.196 C 
BRANCH  19  21
ATOM     20  F   UNL     1      34.367 -13.448 -22.339  0.00  0.00    -0.204 F 
ATOM     21  C   UNL     1      34.641 -17.525 -22.491  0.00  0.00    +0.039 C 
ATOM     22  C   UNL     1      34.739 -16.815 -23.665  0.00  0.00    +0.005 C 
ATOM     23  C   UNL     1      34.455 -16.923 -21.268  0.00  0.00    +0.005 C 
ATOM     24  C   UNL     1      34.646 -15.424 -23.613  0.00  0.00    +0.030 C 
ATOM     25  C   UNL     1      34.361 -15.532 -21.216  0.00  0.00    +0.030 C 
ATOM     26  C   UNL     1      34.456 -14.783 -22.389  0.00  0.00    +0.140 C 
ENDBRANCH  19  21
ENDBRANCH   5  19
TORSDOF 4
ENDMDL
