MODEL 1
REMARK VINA RESULT:     -10.4      0.000      0.000
REMARK  Name = 449394
REMARK  10 active torsions:
REMARK  status: ('A' for Active; 'I' for Inactive)
REMARK    1  A    between atoms: C_1  and  C_22
REMARK    2  A    between atoms: C_4  and  O_7
REMARK    3  A    between atoms: O_7  and  C_8
REMARK    4  A    between atoms: C_11  and  N_16
REMARK    5  A    between atoms: C_12  and  N_19
REMARK    6  A    between atoms: C_13  and  O_20
REMARK    7  A    between atoms: C_22  and  CA_23
REMARK    8  A    between atoms: CA_23  and  N_25
REMARK    9  A    between atoms: CA_23  and  C_30
REMARK   10  A    between atoms: C_30  and  O_31
REMARK                            x       y       z     vdW  Elec       q    Type
REMARK                         _______ _______ _______ _____ _____    ______ ____
ROOT
ATOM      1  C   UNL     1      34.234 -22.140 -19.090  0.00  0.00    -0.020 C 
ATOM      2  C   UNL     1      35.611 -22.098 -18.946  0.00  0.00    -0.001 C 
ATOM      3  C   UNL     1      33.563 -21.222 -19.883  0.00  0.00    -0.001 C 
ATOM      4  C   UNL     1      35.678 -20.181 -20.415  0.00  0.00    +0.145 C 
ATOM      5  C   UNL     1      36.337 -21.112 -19.614  0.00  0.00    +0.037 C 
ATOM      6  C   UNL     1      34.291 -20.237 -20.550  0.00  0.00    +0.037 C 
ENDROOT
BRANCH   4   7
ATOM      7  O   UNL     1      36.388 -19.220 -21.067  0.00  0.00    -0.453 OA
BRANCH   7   8
ATOM      8  C   UNL     1      35.677 -18.225 -21.718  0.00  0.00    +0.149 C 
ATOM      9  C   UNL     1      35.431 -18.349 -23.073  0.00  0.00    +0.065 C 
ATOM     10  C   UNL     1      35.231 -17.132 -20.995  0.00  0.00    +0.065 C 
ATOM     11  C   UNL     1      34.515 -16.131 -21.650  0.00  0.00    +0.181 C 
ATOM     12  C   UNL     1      34.715 -17.347 -23.728  0.00  0.00    +0.181 C 
ATOM     13  C   UNL     1      34.257 -16.238 -23.017  0.00  0.00    +0.179 C 
BRANCH  11  16
ATOM     14  O   UNL     1      34.890 -14.330 -20.259  0.00  0.00    -0.126 OA
ATOM     15  O   UNL     1      32.835 -14.731 -20.920  0.00  0.00    -0.126 OA
ATOM     16  N   UNL     1      34.058 -15.008 -20.907  0.00  0.00    +0.061 N 
ENDBRANCH  11  16
BRANCH  12  19
ATOM     17  O   UNL     1      33.818 -18.471 -25.530  0.00  0.00    -0.126 OA
ATOM     18  O   UNL     1      34.888 -16.591 -25.899  0.00  0.00    -0.126 OA
ATOM     19  N   UNL     1      34.461 -17.476 -25.122  0.00  0.00    +0.061 N 
ENDBRANCH  12  19
BRANCH  13  20
ATOM     20  O   UNL     1      33.556 -15.257 -23.658  0.00  0.00    -0.503 OA
ATOM     21  H   UNL     1      33.963 -14.434 -23.842  0.00  0.00    +0.292 HD
ENDBRANCH  13  20
ENDBRANCH   7   8
ENDBRANCH   4   7
BRANCH   1  22
ATOM     22  C   UNL     1      33.446 -23.206 -18.367  0.00  0.00    +0.057 C 
BRANCH  22  23
ATOM     23  CA  UNL     1      33.401 -22.991 -16.848  0.00  0.00    +0.176 C 
BRANCH  23  25
ATOM     24  O   UNL     1      35.862 -22.366 -15.441  0.00  0.00    -0.275 OA
ATOM     25  N   UNL     1      34.278 -23.910 -16.167  0.00  0.00    -0.297 N 
ATOM     26  C   UNL     1      35.438 -23.516 -15.520  0.00  0.00    +0.223 C 
ATOM     27  C   UNL     1      36.152 -24.671 -14.870  0.00  0.00    +0.095 C 
ATOM     28  H   UNL     1      34.040 -24.866 -16.162  0.00  0.00    +0.150 HD
ENDBRANCH  23  25
BRANCH  23  30
ATOM     29  OXT UNL     1      31.676 -23.719 -15.316  0.00  0.00    -0.248 OA
ATOM     30  C   UNL     1      31.970 -23.123 -16.347  0.00  0.00    +0.332 C 
BRANCH  30  31
ATOM     31  O   UNL     1      31.038 -22.523 -17.125  0.00  0.00    -0.479 OA
ATOM     32  H   UNL     1      31.214 -21.685 -17.506  0.00  0.00    +0.295 HD
ENDBRANCH  30  31
ENDBRANCH  23  30
ENDBRANCH  22  23
ENDBRANCH   1  22
TORSDOF 10
ENDMDL
MODEL 2
REMARK VINA RESULT:     -10.4      0.027      2.739
REMARK  Name = 449394
REMARK  10 active torsions:
REMARK  status: ('A' for Active; 'I' for Inactive)
REMARK    1  A    between atoms: C_1  and  C_22
REMARK    2  A    between atoms: C_4  and  O_7
REMARK    3  A    between atoms: O_7  and  C_8
REMARK    4  A    between atoms: C_11  and  N_16
REMARK    5  A    between atoms: C_12  and  N_19
REMARK    6  A    between atoms: C_13  and  O_20
REMARK    7  A    between atoms: C_22  and  CA_23
REMARK    8  A    between atoms: CA_23  and  N_25
REMARK    9  A    between atoms: CA_23  and  C_30
REMARK   10  A    between atoms: C_30  and  O_31
REMARK                            x       y       z     vdW  Elec       q    Type
REMARK                         _______ _______ _______ _____ _____    ______ ____
ROOT
ATOM      1  C   UNL     1      34.240 -22.150 -19.065  0.00  0.00    -0.020 C 
ATOM      2  C   UNL     1      35.615 -22.098 -18.911  0.00  0.00    -0.001 C 
ATOM      3  C   UNL     1      33.569 -21.243 -19.871  0.00  0.00    -0.001 C 
ATOM      4  C   UNL     1      35.682 -20.193 -20.397  0.00  0.00    +0.145 C 
ATOM      5  C   UNL     1      36.341 -21.113 -19.582  0.00  0.00    +0.037 C 
ATOM      6  C   UNL     1      34.296 -20.259 -20.541  0.00  0.00    +0.037 C 
ENDROOT
BRANCH   4   7
ATOM      7  O   UNL     1      36.390 -19.234 -21.051  0.00  0.00    -0.453 OA
BRANCH   7   8
ATOM      8  C   UNL     1      35.679 -18.240 -21.703  0.00  0.00    +0.149 C 
ATOM      9  C   UNL     1      35.229 -17.149 -20.981  0.00  0.00    +0.065 C 
ATOM     10  C   UNL     1      35.438 -18.364 -23.060  0.00  0.00    +0.065 C 
ATOM     11  C   UNL     1      34.722 -17.363 -23.716  0.00  0.00    +0.181 C 
ATOM     12  C   UNL     1      34.513 -16.148 -21.638  0.00  0.00    +0.181 C 
ATOM     13  C   UNL     1      34.260 -16.254 -23.006  0.00  0.00    +0.179 C 
BRANCH  11  16
ATOM     14  O   UNL     1      34.908 -16.607 -25.887  0.00  0.00    -0.126 OA
ATOM     15  O   UNL     1      33.829 -18.483 -25.522  0.00  0.00    -0.126 OA
ATOM     16  N   UNL     1      34.475 -17.491 -25.111  0.00  0.00    +0.061 N 
ENDBRANCH  11  16
BRANCH  12  19
ATOM     17  O   UNL     1      32.829 -14.750 -20.914  0.00  0.00    -0.126 OA
ATOM     18  O   UNL     1      34.882 -14.346 -20.248  0.00  0.00    -0.126 OA
ATOM     19  N   UNL     1      34.052 -15.026 -20.897  0.00  0.00    +0.061 N 
ENDBRANCH  12  19
BRANCH  13  20
ATOM     20  O   UNL     1      33.560 -15.275 -23.650  0.00  0.00    -0.503 OA
ATOM     21  H   UNL     1      33.374 -15.355 -24.564  0.00  0.00    +0.292 HD
ENDBRANCH  13  20
ENDBRANCH   7   8
ENDBRANCH   4   7
BRANCH   1  22
ATOM     22  C   UNL     1      33.453 -23.215 -18.339  0.00  0.00    +0.057 C 
BRANCH  22  23
ATOM     23  CA  UNL     1      33.409 -22.996 -16.821  0.00  0.00    +0.176 C 
BRANCH  23  25
ATOM     24  O   UNL     1      35.872 -22.351 -15.428  0.00  0.00    -0.275 OA
ATOM     25  N   UNL     1      34.293 -23.907 -16.139  0.00  0.00    -0.297 N 
ATOM     26  C   UNL     1      35.454 -23.504 -15.499  0.00  0.00    +0.223 C 
ATOM     27  C   UNL     1      36.177 -24.652 -14.846  0.00  0.00    +0.095 C 
ATOM     28  H   UNL     1      34.061 -24.864 -16.128  0.00  0.00    +0.150 HD
ENDBRANCH  23  25
BRANCH  23  30
ATOM     29  OXT UNL     1      31.690 -23.746 -15.292  0.00  0.00    -0.248 OA
ATOM     30  C   UNL     1      31.980 -23.137 -16.317  0.00  0.00    +0.332 C 
BRANCH  30  31
ATOM     31  O   UNL     1      31.044 -22.529 -17.084  0.00  0.00    -0.479 OA
ATOM     32  H   UNL     1      31.273 -21.777 -17.595  0.00  0.00    +0.295 HD
ENDBRANCH  30  31
ENDBRANCH  23  30
ENDBRANCH  22  23
ENDBRANCH   1  22
TORSDOF 10
ENDMDL
MODEL 3
REMARK VINA RESULT:     -10.2      1.704      9.062
REMARK  Name = 449394
REMARK  10 active torsions:
REMARK  status: ('A' for Active; 'I' for Inactive)
REMARK    1  A    between atoms: C_1  and  C_22
REMARK    2  A    between atoms: C_4  and  O_7
REMARK    3  A    between atoms: O_7  and  C_8
REMARK    4  A    between atoms: C_11  and  N_16
REMARK    5  A    between atoms: C_12  and  N_19
REMARK    6  A    between atoms: C_13  and  O_20
REMARK    7  A    between atoms: C_22  and  CA_23
REMARK    8  A    between atoms: CA_23  and  N_25
REMARK    9  A    between atoms: CA_23  and  C_30
REMARK   10  A    between atoms: C_30  and  O_31
REMARK                            x       y       z     vdW  Elec       q    Type
REMARK                         _______ _______ _______ _____ _____    ______ ____
ROOT
ATOM      1  C   UNL     1      34.959 -19.727 -20.582  0.00  0.00    -0.020 C 
ATOM      2  C   UNL     1      33.590 -19.921 -20.505  0.00  0.00    -0.001 C 
ATOM      3  C   UNL     1      35.851 -20.669 -20.093  0.00  0.00    -0.001 C 
ATOM      4  C   UNL     1      33.982 -22.047 -19.426  0.00  0.00    +0.145 C 
ATOM      5  C   UNL     1      33.098 -21.090 -19.923  0.00  0.00    +0.037 C 
ATOM      6  C   UNL     1      35.358 -21.837 -19.511  0.00  0.00    +0.037 C 
ENDROOT
BRANCH   4   7
ATOM      7  O   UNL     1      33.501 -23.187 -18.859  0.00  0.00    -0.453 OA
BRANCH   7   8
ATOM      8  C   UNL     1      33.355 -23.209 -17.481  0.00  0.00    +0.149 C 
ATOM      9  C   UNL     1      32.084 -23.201 -16.938  0.00  0.00    +0.065 C 
ATOM     10  C   UNL     1      34.486 -23.240 -16.685  0.00  0.00    +0.065 C 
ATOM     11  C   UNL     1      34.339 -23.263 -15.298  0.00  0.00    +0.181 C 
ATOM     12  C   UNL     1      31.937 -23.224 -15.551  0.00  0.00    +0.181 C 
ATOM     13  C   UNL     1      33.065 -23.256 -14.731  0.00  0.00    +0.179 C 
BRANCH  11  16
ATOM     14  O   UNL     1      36.484 -22.582 -14.795  0.00  0.00    -0.126 OA
ATOM     15  O   UNL     1      35.511 -24.036 -13.468  0.00  0.00    -0.126 OA
ATOM     16  N   UNL     1      35.502 -23.295 -14.480  0.00  0.00    +0.061 N 
ENDBRANCH  11  16
BRANCH  12  19
ATOM     17  O   UNL     1      29.760 -22.467 -15.495  0.00  0.00    -0.126 OA
ATOM     18  O   UNL     1      30.385 -23.960 -14.013  0.00  0.00    -0.126 OA
ATOM     19  N   UNL     1      30.629 -23.217 -14.992  0.00  0.00    +0.061 N 
ENDBRANCH  12  19
BRANCH  13  20
ATOM     20  O   UNL     1      32.922 -23.278 -13.373  0.00  0.00    -0.503 OA
ATOM     21  H   UNL     1      32.710 -22.492 -12.910  0.00  0.00    +0.292 HD
ENDBRANCH  13  20
ENDBRANCH   7   8
ENDBRANCH   4   7
BRANCH   1  22
ATOM     22  C   UNL     1      35.493 -18.462 -21.211  0.00  0.00    +0.057 C 
BRANCH  22  23
ATOM     23  CA  UNL     1      34.384 -17.531 -21.718  0.00  0.00    +0.176 C 
BRANCH  23  25
ATOM     24  O   UNL     1      34.340 -19.117 -24.148  0.00  0.00    -0.275 OA
ATOM     25  N   UNL     1      34.654 -17.083 -23.061  0.00  0.00    -0.297 N 
ATOM     26  C   UNL     1      34.609 -17.919 -24.165  0.00  0.00    +0.223 C 
ATOM     27  C   UNL     1      34.907 -17.190 -25.448  0.00  0.00    +0.095 C 
ATOM     28  H   UNL     1      34.882 -16.135 -23.200  0.00  0.00    +0.150 HD
ENDBRANCH  23  25
BRANCH  23  30
ATOM     29  OXT UNL     1      35.087 -16.014 -19.969  0.00  0.00    -0.248 OA
ATOM     30  C   UNL     1      34.220 -16.353 -20.768  0.00  0.00    +0.332 C 
BRANCH  30  31
ATOM     31  O   UNL     1      33.040 -15.696 -20.875  0.00  0.00    -0.479 OA
ATOM     32  H   UNL     1      32.926 -15.042 -21.537  0.00  0.00    +0.295 HD
ENDBRANCH  30  31
ENDBRANCH  23  30
ENDBRANCH  22  23
ENDBRANCH   1  22
TORSDOF 10
ENDMDL
MODEL 4
REMARK VINA RESULT:     -10.2      1.708      9.071
REMARK  Name = 449394
REMARK  10 active torsions:
REMARK  status: ('A' for Active; 'I' for Inactive)
REMARK    1  A    between atoms: C_1  and  C_22
REMARK    2  A    between atoms: C_4  and  O_7
REMARK    3  A    between atoms: O_7  and  C_8
REMARK    4  A    between atoms: C_11  and  N_16
REMARK    5  A    between atoms: C_12  and  N_19
REMARK    6  A    between atoms: C_13  and  O_20
REMARK    7  A    between atoms: C_22  and  CA_23
REMARK    8  A    between atoms: CA_23  and  N_25
REMARK    9  A    between atoms: CA_23  and  C_30
REMARK   10  A    between atoms: C_30  and  O_31
REMARK                            x       y       z     vdW  Elec       q    Type
REMARK                         _______ _______ _______ _____ _____    ______ ____
ROOT
ATOM      1  C   UNL     1      34.956 -19.731 -20.572  0.00  0.00    -0.020 C 
ATOM      2  C   UNL     1      33.587 -19.921 -20.489  0.00  0.00    -0.001 C 
ATOM      3  C   UNL     1      35.846 -20.678 -20.089  0.00  0.00    -0.001 C 
ATOM      4  C   UNL     1      33.974 -22.052 -19.418  0.00  0.00    +0.145 C 
ATOM      5  C   UNL     1      33.093 -21.089 -19.908  0.00  0.00    +0.037 C 
ATOM      6  C   UNL     1      35.351 -21.846 -19.509  0.00  0.00    +0.037 C 
ENDROOT
BRANCH   4   7
ATOM      7  O   UNL     1      33.492 -23.191 -18.852  0.00  0.00    -0.453 OA
BRANCH   7   8
ATOM      8  C   UNL     1      33.345 -23.214 -17.475  0.00  0.00    +0.149 C 
ATOM      9  C   UNL     1      34.474 -23.260 -16.678  0.00  0.00    +0.065 C 
ATOM     10  C   UNL     1      32.072 -23.190 -16.932  0.00  0.00    +0.065 C 
ATOM     11  C   UNL     1      31.926 -23.212 -15.546  0.00  0.00    +0.181 C 
ATOM     12  C   UNL     1      34.327 -23.282 -15.291  0.00  0.00    +0.181 C 
ATOM     13  C   UNL     1      33.052 -23.258 -14.724  0.00  0.00    +0.179 C 
BRANCH  11  16
ATOM     14  O   UNL     1      29.758 -22.425 -15.491  0.00  0.00    -0.126 OA
ATOM     15  O   UNL     1      30.362 -23.928 -14.010  0.00  0.00    -0.126 OA
ATOM     16  N   UNL     1      30.617 -23.187 -14.988  0.00  0.00    +0.061 N 
ENDBRANCH  11  16
BRANCH  12  19
ATOM     17  O   UNL     1      36.479 -22.628 -14.786  0.00  0.00    -0.126 OA
ATOM     18  O   UNL     1      35.487 -24.068 -13.460  0.00  0.00    -0.126 OA
ATOM     19  N   UNL     1      35.488 -23.328 -14.471  0.00  0.00    +0.061 N 
ENDBRANCH  12  19
BRANCH  13  20
ATOM     20  O   UNL     1      32.907 -23.280 -13.367  0.00  0.00    -0.503 OA
ATOM     21  H   UNL     1      33.655 -23.409 -12.817  0.00  0.00    +0.292 HD
ENDBRANCH  13  20
ENDBRANCH   7   8
ENDBRANCH   4   7
BRANCH   1  22
ATOM     22  C   UNL     1      35.492 -18.467 -21.200  0.00  0.00    +0.057 C 
BRANCH  22  23
ATOM     23  CA  UNL     1      34.384 -17.530 -21.698  0.00  0.00    +0.176 C 
BRANCH  23  25
ATOM     24  O   UNL     1      34.342 -19.122 -24.125  0.00  0.00    -0.275 OA
ATOM     25  N   UNL     1      34.647 -17.084 -23.043  0.00  0.00    -0.297 N 
ATOM     26  C   UNL     1      34.604 -17.922 -24.145  0.00  0.00    +0.223 C 
ATOM     27  C   UNL     1      34.893 -17.195 -25.431  0.00  0.00    +0.095 C 
ATOM     28  H   UNL     1      34.870 -16.134 -23.185  0.00  0.00    +0.150 HD
ENDBRANCH  23  25
BRANCH  23  30
ATOM     29  OXT UNL     1      35.108 -16.016 -19.955  0.00  0.00    -0.248 OA
ATOM     30  C   UNL     1      34.234 -16.351 -20.748  0.00  0.00    +0.332 C 
BRANCH  30  31
ATOM     31  O   UNL     1      33.057 -15.688 -20.846  0.00  0.00    -0.479 OA
ATOM     32  H   UNL     1      32.259 -16.107 -20.588  0.00  0.00    +0.295 HD
ENDBRANCH  30  31
ENDBRANCH  23  30
ENDBRANCH  22  23
ENDBRANCH   1  22
TORSDOF 10
ENDMDL
MODEL 5
REMARK VINA RESULT:     -10.0      1.808      9.198
REMARK  Name = 449394
REMARK  10 active torsions:
REMARK  status: ('A' for Active; 'I' for Inactive)
REMARK    1  A    between atoms: C_1  and  C_22
REMARK    2  A    between atoms: C_4  and  O_7
REMARK    3  A    between atoms: O_7  and  C_8
REMARK    4  A    between atoms: C_11  and  N_16
REMARK    5  A    between atoms: C_12  and  N_19
REMARK    6  A    between atoms: C_13  and  O_20
REMARK    7  A    between atoms: C_22  and  CA_23
REMARK    8  A    between atoms: CA_23  and  N_25
REMARK    9  A    between atoms: CA_23  and  C_30
REMARK   10  A    between atoms: C_30  and  O_31
REMARK                            x       y       z     vdW  Elec       q    Type
REMARK                         _______ _______ _______ _____ _____    ______ ____
ROOT
ATOM      1  C   UNL     1      34.086 -19.999 -20.812  0.00  0.00    -0.020 C 
ATOM      2  C   UNL     1      33.083 -20.742 -20.213  0.00  0.00    -0.001 C 
ATOM      3  C   UNL     1      35.421 -20.212 -20.507  0.00  0.00    -0.001 C 
ATOM      4  C   UNL     1      34.761 -21.953 -18.966  0.00  0.00    +0.145 C 
ATOM      5  C   UNL     1      33.423 -21.726 -19.284  0.00  0.00    +0.037 C 
ATOM      6  C   UNL     1      35.760 -21.196 -19.578  0.00  0.00    +0.037 C 
ENDROOT
BRANCH   4   7
ATOM      7  O   UNL     1      35.092 -22.912 -18.061  0.00  0.00    -0.453 OA
BRANCH   7   8
ATOM      8  C   UNL     1      34.233 -23.114 -16.993  0.00  0.00    +0.149 C 
ATOM      9  C   UNL     1      34.762 -23.374 -15.742  0.00  0.00    +0.065 C 
ATOM     10  C   UNL     1      32.867 -23.049 -17.206  0.00  0.00    +0.065 C 
ATOM     11  C   UNL     1      32.002 -23.251 -16.130  0.00  0.00    +0.181 C 
ATOM     12  C   UNL     1      33.896 -23.576 -14.667  0.00  0.00    +0.181 C 
ATOM     13  C   UNL     1      32.516 -23.514 -14.861  0.00  0.00    +0.179 C 
BRANCH  11  16
ATOM     14  O   UNL     1      29.858 -24.031 -15.797  0.00  0.00    -0.126 OA
ATOM     15  O   UNL     1      30.144 -22.283 -17.092  0.00  0.00    -0.126 OA
ATOM     16  N   UNL     1      30.598 -23.185 -16.350  0.00  0.00    +0.061 N 
ENDBRANCH  11  16
BRANCH  12  19
ATOM     17  O   UNL     1      35.535 -23.318 -13.065  0.00  0.00    -0.126 OA
ATOM     18  O   UNL     1      33.810 -24.592 -12.599  0.00  0.00    -0.126 OA
ATOM     19  N   UNL     1      34.441 -23.842 -13.380  0.00  0.00    +0.061 N 
ENDBRANCH  12  19
BRANCH  13  20
ATOM     20  O   UNL     1      31.669 -23.712 -13.808  0.00  0.00    -0.503 OA
ATOM     21  H   UNL     1      31.138 -24.484 -13.772  0.00  0.00    +0.292 HD
ENDBRANCH  13  20
ENDBRANCH   7   8
ENDBRANCH   4   7
BRANCH   1  22
ATOM     22  C   UNL     1      33.719 -18.934 -21.817  0.00  0.00    +0.057 C 
BRANCH  22  23
ATOM     23  CA  UNL     1      34.517 -17.636 -21.632  0.00  0.00    +0.176 C 
BRANCH  23  25
ATOM     24  O   UNL     1      35.036 -15.250 -20.063  0.00  0.00    -0.275 OA
ATOM     25  N   UNL     1      33.639 -16.510 -21.435  0.00  0.00    -0.297 N 
ATOM     26  C   UNL     1      33.976 -15.409 -20.664  0.00  0.00    +0.223 C 
ATOM     27  C   UNL     1      32.889 -14.368 -20.646  0.00  0.00    +0.095 C 
ATOM     28  H   UNL     1      32.756 -16.525 -21.870  0.00  0.00    +0.150 HD
ENDBRANCH  23  25
BRANCH  23  30
ATOM     29  OXT UNL     1      35.994 -18.333 -23.417  0.00  0.00    -0.248 OA
ATOM     30  C   UNL     1      35.434 -17.415 -22.826  0.00  0.00    +0.332 C 
BRANCH  30  31
ATOM     31  O   UNL     1      35.582 -16.121 -23.198  0.00  0.00    -0.479 OA
ATOM     32  H   UNL     1      36.284 -15.875 -23.769  0.00  0.00    +0.295 HD
ENDBRANCH  30  31
ENDBRANCH  23  30
ENDBRANCH  22  23
ENDBRANCH   1  22
TORSDOF 10
ENDMDL
MODEL 6
REMARK VINA RESULT:      -9.9      1.826      9.096
REMARK  Name = 449394
REMARK  10 active torsions:
REMARK  status: ('A' for Active; 'I' for Inactive)
REMARK    1  A    between atoms: C_1  and  C_22
REMARK    2  A    between atoms: C_4  and  O_7
REMARK    3  A    between atoms: O_7  and  C_8
REMARK    4  A    between atoms: C_11  and  N_16
REMARK    5  A    between atoms: C_12  and  N_19
REMARK    6  A    between atoms: C_13  and  O_20
REMARK    7  A    between atoms: C_22  and  CA_23
REMARK    8  A    between atoms: CA_23  and  N_25
REMARK    9  A    between atoms: CA_23  and  C_30
REMARK   10  A    between atoms: C_30  and  O_31
REMARK                            x       y       z     vdW  Elec       q    Type
REMARK                         _______ _______ _______ _____ _____    ______ ____
ROOT
ATOM      1  C   UNL     1      34.359 -20.172 -20.609  0.00  0.00    -0.020 C 
ATOM      2  C   UNL     1      33.423 -20.954 -19.953  0.00  0.00    -0.001 C 
ATOM      3  C   UNL     1      35.711 -20.267 -20.317  0.00  0.00    -0.001 C 
ATOM      4  C   UNL     1      35.206 -21.963 -18.671  0.00  0.00    +0.145 C 
ATOM      5  C   UNL     1      33.850 -21.855 -18.977  0.00  0.00    +0.037 C 
ATOM      6  C   UNL     1      36.136 -21.169 -19.342  0.00  0.00    +0.037 C 
ENDROOT
BRANCH   4   7
ATOM      7  O   UNL     1      35.621 -22.843 -17.721  0.00  0.00    -0.453 OA
BRANCH   7   8
ATOM      8  C   UNL     1      34.758 -23.111 -16.670  0.00  0.00    +0.149 C 
ATOM      9  C   UNL     1      33.398 -23.168 -16.914  0.00  0.00    +0.065 C 
ATOM     10  C   UNL     1      35.280 -23.315 -15.405  0.00  0.00    +0.065 C 
ATOM     11  C   UNL     1      34.411 -23.586 -14.348  0.00  0.00    +0.181 C 
ATOM     12  C   UNL     1      32.530 -23.438 -15.856  0.00  0.00    +0.181 C 
ATOM     13  C   UNL     1      33.036 -23.648 -14.573  0.00  0.00    +0.179 C 
BRANCH  11  16
ATOM     14  O   UNL     1      34.403 -24.638 -12.296  0.00  0.00    -0.126 OA
ATOM     15  O   UNL     1      35.951 -23.132 -12.692  0.00  0.00    -0.126 OA
ATOM     16  N   UNL     1      34.949 -23.796 -13.048  0.00  0.00    +0.061 N 
ENDBRANCH  11  16
BRANCH  12  19
ATOM     17  O   UNL     1      30.600 -22.595 -16.795  0.00  0.00    -0.126 OA
ATOM     18  O   UNL     1      30.471 -24.451 -15.630  0.00  0.00    -0.126 OA
ATOM     19  N   UNL     1      31.131 -23.498 -16.106  0.00  0.00    +0.061 N 
ENDBRANCH  12  19
BRANCH  13  20
ATOM     20  O   UNL     1      32.186 -23.912 -13.538  0.00  0.00    -0.503 OA
ATOM     21  H   UNL     1      31.817 -24.768 -13.441  0.00  0.00    +0.292 HD
ENDBRANCH  13  20
ENDBRANCH   7   8
ENDBRANCH   4   7
BRANCH   1  22
ATOM     22  C   UNL     1      33.899 -19.195 -21.665  0.00  0.00    +0.057 C 
BRANCH  22  23
ATOM     23  CA  UNL     1      34.611 -17.839 -21.576  0.00  0.00    +0.176 C 
BRANCH  23  25
ATOM     24  O   UNL     1      35.038 -15.372 -20.107  0.00  0.00    -0.275 OA
ATOM     25  N   UNL     1      33.667 -16.770 -21.367  0.00  0.00    -0.297 N 
ATOM     26  C   UNL     1      33.964 -15.623 -20.647  0.00  0.00    +0.223 C 
ATOM     27  C   UNL     1      32.809 -14.659 -20.604  0.00  0.00    +0.095 C 
ATOM     28  H   UNL     1      32.766 -16.859 -21.755  0.00  0.00    +0.150 HD
ENDBRANCH  23  25
BRANCH  23  30
ATOM     29  OXT UNL     1      35.864 -18.517 -23.532  0.00  0.00    -0.248 OA
ATOM     30  C   UNL     1      35.438 -17.604 -22.831  0.00  0.00    +0.332 C 
BRANCH  30  31
ATOM     31  O   UNL     1      35.666 -16.302 -23.126  0.00  0.00    -0.479 OA
ATOM     32  H   UNL     1      35.714 -15.666 -22.439  0.00  0.00    +0.295 HD
ENDBRANCH  30  31
ENDBRANCH  23  30
ENDBRANCH  22  23
ENDBRANCH   1  22
TORSDOF 10
ENDMDL
MODEL 7
REMARK VINA RESULT:      -9.8      2.867      9.921
REMARK  Name = 449394
REMARK  10 active torsions:
REMARK  status: ('A' for Active; 'I' for Inactive)
REMARK    1  A    between atoms: C_1  and  C_22
REMARK    2  A    between atoms: C_4  and  O_7
REMARK    3  A    between atoms: O_7  and  C_8
REMARK    4  A    between atoms: C_11  and  N_16
REMARK    5  A    between atoms: C_12  and  N_19
REMARK    6  A    between atoms: C_13  and  O_20
REMARK    7  A    between atoms: C_22  and  CA_23
REMARK    8  A    between atoms: CA_23  and  N_25
REMARK    9  A    between atoms: CA_23  and  C_30
REMARK   10  A    between atoms: C_30  and  O_31
REMARK                            x       y       z     vdW  Elec       q    Type
REMARK                         _______ _______ _______ _____ _____    ______ ____
ROOT
ATOM      1  C   UNL     1      35.583 -21.797 -19.423  0.00  0.00    -0.020 C 
ATOM      2  C   UNL     1      36.507 -21.639 -18.403  0.00  0.00    -0.001 C 
ATOM      3  C   UNL     1      34.327 -22.330 -19.181  0.00  0.00    -0.001 C 
ATOM      4  C   UNL     1      34.905 -22.561 -16.847  0.00  0.00    +0.145 C 
ATOM      5  C   UNL     1      36.165 -22.023 -17.106  0.00  0.00    +0.037 C 
ATOM      6  C   UNL     1      33.986 -22.714 -17.885  0.00  0.00    +0.037 C 
ENDROOT
BRANCH   4   7
ATOM      7  O   UNL     1      34.573 -22.935 -15.582  0.00  0.00    -0.453 OA
BRANCH   7   8
ATOM      8  C   UNL     1      35.495 -23.683 -14.868  0.00  0.00    +0.149 C 
ATOM      9  C   UNL     1      35.952 -24.874 -15.400  0.00  0.00    +0.065 C 
ATOM     10  C   UNL     1      35.934 -23.218 -13.641  0.00  0.00    +0.065 C 
ATOM     11  C   UNL     1      36.863 -23.971 -12.923  0.00  0.00    +0.181 C 
ATOM     12  C   UNL     1      36.881 -25.628 -14.682  0.00  0.00    +0.181 C 
ATOM     13  C   UNL     1      37.337 -25.176 -13.443  0.00  0.00    +0.179 C 
BRANCH  11  16
ATOM     14  O   UNL     1      36.859 -24.015 -10.617  0.00  0.00    -0.126 OA
ATOM     15  O   UNL     1      38.155 -22.563 -11.633  0.00  0.00    -0.126 OA
ATOM     16  N   UNL     1      37.315 -23.493 -11.662  0.00  0.00    +0.061 N 
ENDBRANCH  11  16
BRANCH  12  19
ATOM     17  O   UNL     1      38.394 -27.365 -14.759  0.00  0.00    -0.126 OA
ATOM     18  O   UNL     1      36.711 -27.382 -16.167  0.00  0.00    -0.126 OA
ATOM     19  N   UNL     1      37.352 -26.853 -15.230  0.00  0.00    +0.061 N 
ENDBRANCH  12  19
BRANCH  13  20
ATOM     20  O   UNL     1      38.246 -25.913 -12.740  0.00  0.00    -0.503 OA
ATOM     21  H   UNL     1      39.082 -26.107 -13.114  0.00  0.00    +0.292 HD
ENDBRANCH  13  20
ENDBRANCH   7   8
ENDBRANCH   4   7
BRANCH   1  22
ATOM     22  C   UNL     1      35.952 -21.383 -20.827  0.00  0.00    +0.057 C 
BRANCH  22  23
ATOM     23  CA  UNL     1      35.384 -20.011 -21.215  0.00  0.00    +0.176 C 
BRANCH  23  25
ATOM     24  O   UNL     1      34.457 -17.717 -22.732  0.00  0.00    -0.275 OA
ATOM     25  N   UNL     1      35.048 -19.965 -22.616  0.00  0.00    -0.297 N 
ATOM     26  C   UNL     1      34.611 -18.817 -23.256  0.00  0.00    +0.223 C 
ATOM     27  C   UNL     1      34.355 -19.041 -24.723  0.00  0.00    +0.095 C 
ATOM     28  H   UNL     1      35.133 -20.793 -23.144  0.00  0.00    +0.150 HD
ENDBRANCH  23  25
BRANCH  23  30
ATOM     29  OXT UNL     1      37.590 -19.050 -20.964  0.00  0.00    -0.248 OA
ATOM     30  C   UNL     1      36.376 -18.916 -20.852  0.00  0.00    +0.332 C 
BRANCH  30  31
ATOM     31  O   UNL     1      35.816 -17.769 -20.398  0.00  0.00    -0.479 OA
ATOM     32  H   UNL     1      36.360 -17.073 -20.085  0.00  0.00    +0.295 HD
ENDBRANCH  30  31
ENDBRANCH  23  30
ENDBRANCH  22  23
ENDBRANCH   1  22
TORSDOF 10
ENDMDL
MODEL 8
REMARK VINA RESULT:      -9.7      2.776      9.855
REMARK  Name = 449394
REMARK  10 active torsions:
REMARK  status: ('A' for Active; 'I' for Inactive)
REMARK    1  A    between atoms: C_1  and  C_22
REMARK    2  A    between atoms: C_4  and  O_7
REMARK    3  A    between atoms: O_7  and  C_8
REMARK    4  A    between atoms: C_11  and  N_16
REMARK    5  A    between atoms: C_12  and  N_19
REMARK    6  A    between atoms: C_13  and  O_20
REMARK    7  A    between atoms: C_22  and  CA_23
REMARK    8  A    between atoms: CA_23  and  N_25
REMARK    9  A    between atoms: CA_23  and  C_30
REMARK   10  A    between atoms: C_30  and  O_31
REMARK                            x       y       z     vdW  Elec       q    Type
REMARK                         _______ _______ _______ _____ _____    ______ ____
ROOT
ATOM      1  C   UNL     1      35.115 -21.674 -19.390  0.00  0.00    -0.020 C 
ATOM      2  C   UNL     1      33.853 -22.203 -19.173  0.00  0.00    -0.001 C 
ATOM      3  C   UNL     1      36.078 -21.675 -18.394  0.00  0.00    -0.001 C 
ATOM      4  C   UNL     1      34.505 -22.756 -16.913  0.00  0.00    +0.145 C 
ATOM      5  C   UNL     1      33.547 -22.748 -17.925  0.00  0.00    +0.037 C 
ATOM      6  C   UNL     1      35.771 -22.220 -17.147  0.00  0.00    +0.037 C 
ENDROOT
BRANCH   4   7
ATOM      7  O   UNL     1      34.205 -23.288 -15.697  0.00  0.00    -0.453 OA
BRANCH   7   8
ATOM      8  C   UNL     1      35.229 -23.898 -14.991  0.00  0.00    +0.149 C 
ATOM      9  C   UNL     1      35.779 -25.069 -15.479  0.00  0.00    +0.065 C 
ATOM     10  C   UNL     1      35.674 -23.320 -13.815  0.00  0.00    +0.065 C 
ATOM     11  C   UNL     1      36.706 -23.934 -13.105  0.00  0.00    +0.181 C 
ATOM     12  C   UNL     1      36.811 -25.683 -14.768  0.00  0.00    +0.181 C 
ATOM     13  C   UNL     1      37.274 -25.115 -13.582  0.00  0.00    +0.179 C 
BRANCH  11  16
ATOM     14  O   UNL     1      36.915 -23.910 -10.809  0.00  0.00    -0.126 OA
ATOM     15  O   UNL     1      37.800 -22.261 -11.957  0.00  0.00    -0.126 OA
ATOM     16  N   UNL     1      37.163 -23.339 -11.897  0.00  0.00    +0.061 N 
ENDBRANCH  11  16
BRANCH  12  19
ATOM     17  O   UNL     1      38.428 -27.326 -14.747  0.00  0.00    -0.126 OA
ATOM     18  O   UNL     1      36.811 -27.471 -16.225  0.00  0.00    -0.126 OA
ATOM     19  N   UNL     1      37.378 -26.887 -15.272  0.00  0.00    +0.061 N 
ENDBRANCH  12  19
BRANCH  13  20
ATOM     20  O   UNL     1      38.284 -25.716 -12.886  0.00  0.00    -0.503 OA
ATOM     21  H   UNL     1      38.680 -25.276 -12.160  0.00  0.00    +0.292 HD
ENDBRANCH  13  20
ENDBRANCH   7   8
ENDBRANCH   4   7
BRANCH   1  22
ATOM     22  C   UNL     1      35.447 -21.084 -20.739  0.00  0.00    +0.057 C 
BRANCH  22  23
ATOM     23  CA  UNL     1      34.788 -19.718 -20.974  0.00  0.00    +0.176 C 
BRANCH  23  25
ATOM     24  O   UNL     1      36.219 -18.695 -23.283  0.00  0.00    -0.275 OA
ATOM     25  N   UNL     1      34.301 -19.602 -22.325  0.00  0.00    -0.297 N 
ATOM     26  C   UNL     1      35.061 -19.098 -23.368  0.00  0.00    +0.223 C 
ATOM     27  C   UNL     1      34.319 -19.112 -24.678  0.00  0.00    +0.095 C 
ATOM     28  H   UNL     1      33.380 -19.896 -22.517  0.00  0.00    +0.150 HD
ENDBRANCH  23  25
BRANCH  23  30
ATOM     29  OXT UNL     1      35.430 -17.435 -20.495  0.00  0.00    -0.248 OA
ATOM     30  C   UNL     1      35.772 -18.604 -20.647  0.00  0.00    +0.332 C 
BRANCH  30  31
ATOM     31  O   UNL     1      37.061 -19.000 -20.528  0.00  0.00    -0.479 OA
ATOM     32  H   UNL     1      37.473 -19.473 -21.225  0.00  0.00    +0.295 HD
ENDBRANCH  30  31
ENDBRANCH  23  30
ENDBRANCH  22  23
ENDBRANCH   1  22
TORSDOF 10
ENDMDL
MODEL 9
REMARK VINA RESULT:      -9.7      2.775     10.196
REMARK  Name = 449394
REMARK  10 active torsions:
REMARK  status: ('A' for Active; 'I' for Inactive)
REMARK    1  A    between atoms: C_1  and  C_22
REMARK    2  A    between atoms: C_4  and  O_7
REMARK    3  A    between atoms: O_7  and  C_8
REMARK    4  A    between atoms: C_11  and  N_16
REMARK    5  A    between atoms: C_12  and  N_19
REMARK    6  A    between atoms: C_13  and  O_20
REMARK    7  A    between atoms: C_22  and  CA_23
REMARK    8  A    between atoms: CA_23  and  N_25
REMARK    9  A    between atoms: CA_23  and  C_30
REMARK   10  A    between atoms: C_30  and  O_31
REMARK                            x       y       z     vdW  Elec       q    Type
REMARK                         _______ _______ _______ _____ _____    ______ ____
ROOT
ATOM      1  C   UNL     1      35.119 -21.662 -19.405  0.00  0.00    -0.020 C 
ATOM      2  C   UNL     1      33.855 -22.179 -19.176  0.00  0.00    -0.001 C 
ATOM      3  C   UNL     1      36.092 -21.672 -18.418  0.00  0.00    -0.001 C 
ATOM      4  C   UNL     1      34.523 -22.742 -16.923  0.00  0.00    +0.145 C 
ATOM      5  C   UNL     1      33.556 -22.723 -17.926  0.00  0.00    +0.037 C 
ATOM      6  C   UNL     1      35.792 -22.217 -17.169  0.00  0.00    +0.037 C 
ENDROOT
BRANCH   4   7
ATOM      7  O   UNL     1      34.231 -23.273 -15.705  0.00  0.00    -0.453 OA
BRANCH   7   8
ATOM      8  C   UNL     1      35.257 -23.890 -15.008  0.00  0.00    +0.149 C 
ATOM      9  C   UNL     1      35.727 -23.308 -13.846  0.00  0.00    +0.065 C 
ATOM     10  C   UNL     1      35.783 -25.075 -15.493  0.00  0.00    +0.065 C 
ATOM     11  C   UNL     1      36.815 -25.697 -14.791  0.00  0.00    +0.181 C 
ATOM     12  C   UNL     1      36.760 -23.930 -13.144  0.00  0.00    +0.181 C 
ATOM     13  C   UNL     1      37.304 -25.125 -13.616  0.00  0.00    +0.179 C 
BRANCH  11  16
ATOM     14  O   UNL     1      36.807 -27.462 -16.275  0.00  0.00    -0.126 OA
ATOM     15  O   UNL     1      38.363 -27.404 -14.728  0.00  0.00    -0.126 OA
ATOM     16  N   UNL     1      37.355 -26.914 -15.289  0.00  0.00    +0.061 N 
ENDBRANCH  11  16
BRANCH  12  19
ATOM     17  O   UNL     1      37.086 -23.936 -10.862  0.00  0.00    -0.126 OA
ATOM     18  O   UNL     1      37.812 -22.216 -12.016  0.00  0.00    -0.126 OA
ATOM     19  N   UNL     1      37.244 -23.331 -11.948  0.00  0.00    +0.061 N 
ENDBRANCH  12  19
BRANCH  13  20
ATOM     20  O   UNL     1      38.314 -25.734 -12.929  0.00  0.00    -0.503 OA
ATOM     21  H   UNL     1      39.100 -25.983 -13.374  0.00  0.00    +0.292 HD
ENDBRANCH  13  20
ENDBRANCH   7   8
ENDBRANCH   4   7
BRANCH   1  22
ATOM     22  C   UNL     1      35.444 -21.072 -20.756  0.00  0.00    +0.057 C 
BRANCH  22  23
ATOM     23  CA  UNL     1      34.785 -19.706 -20.988  0.00  0.00    +0.176 C 
BRANCH  23  25
ATOM     24  O   UNL     1      36.228 -18.701 -23.297  0.00  0.00    -0.275 OA
ATOM     25  N   UNL     1      34.299 -19.586 -22.339  0.00  0.00    -0.297 N 
ATOM     26  C   UNL     1      35.066 -19.091 -23.382  0.00  0.00    +0.223 C 
ATOM     27  C   UNL     1      34.324 -19.097 -24.692  0.00  0.00    +0.095 C 
ATOM     28  H   UNL     1      33.375 -19.869 -22.530  0.00  0.00    +0.150 HD
ENDBRANCH  23  25
BRANCH  23  30
ATOM     29  OXT UNL     1      35.426 -17.423 -20.506  0.00  0.00    -0.248 OA
ATOM     30  C   UNL     1      35.767 -18.592 -20.655  0.00  0.00    +0.332 C 
BRANCH  30  31
ATOM     31  O   UNL     1      37.056 -18.990 -20.528  0.00  0.00    -0.479 OA
ATOM     32  H   UNL     1      37.404 -19.185 -19.680  0.00  0.00    +0.295 HD
ENDBRANCH  30  31
ENDBRANCH  23  30
ENDBRANCH  22  23
ENDBRANCH   1  22
TORSDOF 10
ENDMDL
