MODEL 1
REMARK VINA RESULT:      -4.0      0.000      0.000
REMARK  Name = 24478
REMARK  2 active torsions:
REMARK  status: ('A' for Active; 'I' for Inactive)
REMARK    1  A    between atoms: S_1  and  O_4
REMARK    2  A    between atoms: S_1  and  O_6
REMARK                            x       y       z     vdW  Elec       q    Type
REMARK                         _______ _______ _______ _____ _____    ______ ____
ROOT
ATOM      1  S   UNL     1      40.432 -25.705 -14.602  0.00  0.00    +0.065 S 
ATOM      2  S   UNL     1      38.735 -25.764 -13.890  0.00  0.00    +0.105 S 
ATOM      3  O   UNL     1      41.050 -24.456 -14.225  0.00  0.00    -0.149 OA
ENDROOT
BRANCH   1   4
ATOM      4  O   UNL     1      41.266 -26.988 -14.060  0.00  0.00    -0.255 OA
ATOM      5  H   UNL     1      41.800 -26.726 -13.293  0.00  0.00    +0.244 HD
ENDBRANCH   1   4
BRANCH   1   6
ATOM      6  O   UNL     1      40.322 -25.870 -16.215  0.00  0.00    -0.255 OA
ATOM      7  H   UNL     1      39.418 -25.662 -16.499  0.00  0.00    +0.244 HD
ENDBRANCH   1   6
TORSDOF 2
ENDMDL
MODEL 2
REMARK VINA RESULT:      -3.8      5.589      6.064
REMARK  Name = 24478
REMARK  2 active torsions:
REMARK  status: ('A' for Active; 'I' for Inactive)
REMARK    1  A    between atoms: S_1  and  O_4
REMARK    2  A    between atoms: S_1  and  O_6
REMARK                            x       y       z     vdW  Elec       q    Type
REMARK                         _______ _______ _______ _____ _____    ______ ____
ROOT
ATOM      1  S   UNL     1      35.844 -24.682 -11.406  0.00  0.00    +0.065 S 
ATOM      2  S   UNL     1      36.855 -23.210 -11.856  0.00  0.00    +0.105 S 
ATOM      3  O   UNL     1      36.629 -25.871 -11.639  0.00  0.00    -0.149 OA
ENDROOT
BRANCH   1   4
ATOM      4  O   UNL     1      35.390 -24.542  -9.853  0.00  0.00    -0.255 OA
ATOM      5  H   UNL     1      35.727 -25.299  -9.349  0.00  0.00    +0.244 HD
ENDBRANCH   1   4
BRANCH   1   6
ATOM      6  O   UNL     1      34.483 -24.664 -12.292  0.00  0.00    -0.255 OA
ATOM      7  H   UNL     1      34.357 -25.532 -12.707  0.00  0.00    +0.244 HD
ENDBRANCH   1   6
TORSDOF 2
ENDMDL
MODEL 3
REMARK VINA RESULT:      -3.8      5.624      6.182
REMARK  Name = 24478
REMARK  2 active torsions:
REMARK  status: ('A' for Active; 'I' for Inactive)
REMARK    1  A    between atoms: S_1  and  O_4
REMARK    2  A    between atoms: S_1  and  O_6
REMARK                            x       y       z     vdW  Elec       q    Type
REMARK                         _______ _______ _______ _____ _____    ______ ____
ROOT
ATOM      1  S   UNL     1      35.751 -24.464 -11.408  0.00  0.00    +0.065 S 
ATOM      2  S   UNL     1      37.006 -23.148 -11.698  0.00  0.00    +0.105 S 
ATOM      3  O   UNL     1      34.574 -24.162 -12.189  0.00  0.00    -0.149 OA
ENDROOT
BRANCH   1   4
ATOM      4  O   UNL     1      36.400 -25.897 -11.810  0.00  0.00    -0.255 OA
ATOM      5  H   UNL     1      37.282 -25.974 -11.414  0.00  0.00    +0.244 HD
ENDBRANCH   1   4
BRANCH   1   6
ATOM      6  O   UNL     1      35.428 -24.529  -9.817  0.00  0.00    -0.255 OA
ATOM      7  H   UNL     1      35.399 -23.629  -9.457  0.00  0.00    +0.244 HD
ENDBRANCH   1   6
TORSDOF 2
ENDMDL
MODEL 4
REMARK VINA RESULT:      -3.8      5.571      6.097
REMARK  Name = 24478
REMARK  2 active torsions:
REMARK  status: ('A' for Active; 'I' for Inactive)
REMARK    1  A    between atoms: S_1  and  O_4
REMARK    2  A    between atoms: S_1  and  O_6
REMARK                            x       y       z     vdW  Elec       q    Type
REMARK                         _______ _______ _______ _____ _____    ______ ____
ROOT
ATOM      1  S   UNL     1      35.807 -24.637 -11.345  0.00  0.00    +0.065 S 
ATOM      2  S   UNL     1      36.841 -23.188 -11.813  0.00  0.00    +0.105 S 
ATOM      3  O   UNL     1      35.446 -24.519  -9.952  0.00  0.00    -0.149 OA
ENDROOT
BRANCH   1   4
ATOM      4  O   UNL     1      34.504 -24.677 -12.313  0.00  0.00    -0.255 OA
ATOM      5  H   UNL     1      34.218 -25.596 -12.433  0.00  0.00    +0.244 HD
ENDBRANCH   1   4
BRANCH   1   6
ATOM      6  O   UNL     1      36.651 -25.992 -11.645  0.00  0.00    -0.255 OA
ATOM      7  H   UNL     1      37.596 -25.779 -11.700  0.00  0.00    +0.244 HD
ENDBRANCH   1   6
TORSDOF 2
ENDMDL
MODEL 5
REMARK VINA RESULT:      -3.8     12.173     12.912
REMARK  Name = 24478
REMARK  2 active torsions:
REMARK  status: ('A' for Active; 'I' for Inactive)
REMARK    1  A    between atoms: S_1  and  O_4
REMARK    2  A    between atoms: S_1  and  O_6
REMARK                            x       y       z     vdW  Elec       q    Type
REMARK                         _______ _______ _______ _____ _____    ______ ____
ROOT
ATOM      1  S   UNL     1      28.044 -23.050 -16.524  0.00  0.00    +0.065 S 
ATOM      2  S   UNL     1      29.049 -24.101 -15.394  0.00  0.00    +0.105 S 
ATOM      3  O   UNL     1      28.864 -21.957 -16.991  0.00  0.00    -0.149 OA
ENDROOT
BRANCH   1   4
ATOM      4  O   UNL     1      27.502 -23.973 -17.744  0.00  0.00    -0.255 OA
ATOM      5  H   UNL     1      26.696 -24.435 -17.467  0.00  0.00    +0.244 HD
ENDBRANCH   1   4
BRANCH   1   6
ATOM      6  O   UNL     1      26.734 -22.530 -15.716  0.00  0.00    -0.255 OA
ATOM      7  H   UNL     1      25.933 -22.847 -16.162  0.00  0.00    +0.244 HD
ENDBRANCH   1   6
TORSDOF 2
ENDMDL
MODEL 6
REMARK VINA RESULT:      -3.8     11.937     12.736
REMARK  Name = 24478
REMARK  2 active torsions:
REMARK  status: ('A' for Active; 'I' for Inactive)
REMARK    1  A    between atoms: S_1  and  O_4
REMARK    2  A    between atoms: S_1  and  O_6
REMARK                            x       y       z     vdW  Elec       q    Type
REMARK                         _______ _______ _______ _____ _____    ______ ____
ROOT
ATOM      1  S   UNL     1      28.168 -23.428 -16.553  0.00  0.00    +0.065 S 
ATOM      2  S   UNL     1      29.064 -24.471 -15.328  0.00  0.00    +0.105 S 
ATOM      3  O   UNL     1      27.691 -24.275 -17.621  0.00  0.00    -0.149 OA
ENDROOT
BRANCH   1   4
ATOM      4  O   UNL     1      26.956 -22.661 -15.792  0.00  0.00    -0.255 OA
ATOM      5  H   UNL     1      26.821 -21.789 -16.195  0.00  0.00    +0.244 HD
ENDBRANCH   1   4
BRANCH   1   6
ATOM      6  O   UNL     1      29.181 -22.278 -17.092  0.00  0.00    -0.255 OA
ATOM      7  H   UNL     1      29.455 -21.716 -16.350  0.00  0.00    +0.244 HD
ENDBRANCH   1   6
TORSDOF 2
ENDMDL
MODEL 7
REMARK VINA RESULT:      -3.7      3.022      3.706
REMARK  Name = 24478
REMARK  2 active torsions:
REMARK  status: ('A' for Active; 'I' for Inactive)
REMARK    1  A    between atoms: S_1  and  O_4
REMARK    2  A    between atoms: S_1  and  O_6
REMARK                            x       y       z     vdW  Elec       q    Type
REMARK                         _______ _______ _______ _____ _____    ______ ____
ROOT
ATOM      1  S   UNL     1      37.286 -26.408 -15.025  0.00  0.00    +0.065 S 
ATOM      2  S   UNL     1      36.175 -24.951 -14.849  0.00  0.00    +0.105 S 
ATOM      3  O   UNL     1      37.275 -27.151 -13.787  0.00  0.00    -0.149 OA
ENDROOT
BRANCH   1   4
ATOM      4  O   UNL     1      36.774 -27.302 -16.280  0.00  0.00    -0.255 OA
ATOM      5  H   UNL     1      35.971 -26.906 -16.652  0.00  0.00    +0.244 HD
ENDBRANCH   1   4
BRANCH   1   6
ATOM      6  O   UNL     1      38.774 -25.880 -15.406  0.00  0.00    -0.255 OA
ATOM      7  H   UNL     1      38.855 -24.943 -15.168  0.00  0.00    +0.244 HD
ENDBRANCH   1   6
TORSDOF 2
ENDMDL
MODEL 8
REMARK VINA RESULT:      -3.7      3.152      3.544
REMARK  Name = 24478
REMARK  2 active torsions:
REMARK  status: ('A' for Active; 'I' for Inactive)
REMARK    1  A    between atoms: S_1  and  O_4
REMARK    2  A    between atoms: S_1  and  O_6
REMARK                            x       y       z     vdW  Elec       q    Type
REMARK                         _______ _______ _______ _____ _____    ______ ____
ROOT
ATOM      1  S   UNL     1      37.415 -26.466 -14.653  0.00  0.00    +0.065 S 
ATOM      2  S   UNL     1      37.449 -24.627 -14.719  0.00  0.00    +0.105 S 
ATOM      3  O   UNL     1      38.763 -26.960 -14.809  0.00  0.00    -0.149 OA
ENDROOT
BRANCH   1   4
ATOM      4  O   UNL     1      36.756 -26.922 -13.241  0.00  0.00    -0.255 OA
ATOM      5  H   UNL     1      36.449 -27.840 -13.309  0.00  0.00    +0.244 HD
ENDBRANCH   1   4
BRANCH   1   6
ATOM      6  O   UNL     1      36.427 -27.007 -15.824  0.00  0.00    -0.255 OA
ATOM      7  H   UNL     1      36.016 -27.839 -15.541  0.00  0.00    +0.244 HD
ENDBRANCH   1   6
TORSDOF 2
ENDMDL
MODEL 9
REMARK VINA RESULT:      -3.6      1.784      2.440
REMARK  Name = 24478
REMARK  2 active torsions:
REMARK  status: ('A' for Active; 'I' for Inactive)
REMARK    1  A    between atoms: S_1  and  O_4
REMARK    2  A    between atoms: S_1  and  O_6
REMARK                            x       y       z     vdW  Elec       q    Type
REMARK                         _______ _______ _______ _____ _____    ______ ____
ROOT
ATOM      1  S   UNL     1      38.873 -25.712 -14.741  0.00  0.00    +0.065 S 
ATOM      2  S   UNL     1      38.256 -25.433 -13.029  0.00  0.00    +0.105 S 
ATOM      3  O   UNL     1      40.004 -26.608 -14.685  0.00  0.00    -0.149 OA
ENDROOT
BRANCH   1   4
ATOM      4  O   UNL     1      37.660 -26.313 -15.637  0.00  0.00    -0.255 OA
ATOM      5  H   UNL     1      36.882 -25.740 -15.555  0.00  0.00    +0.244 HD
ENDBRANCH   1   4
BRANCH   1   6
ATOM      6  O   UNL     1      39.264 -24.276 -15.390  0.00  0.00    -0.255 OA
ATOM      7  H   UNL     1      40.031 -24.383 -15.975  0.00  0.00    +0.244 HD
ENDBRANCH   1   6
TORSDOF 2
ENDMDL
