MODEL 1
REMARK VINA RESULT:      -9.1      0.000      0.000
REMARK  Name = 8400
REMARK  4 active torsions:
REMARK  status: ('A' for Active; 'I' for Inactive)
REMARK    1  A    between atoms: C_1  and  C_2
REMARK    2  A    between atoms: C_1  and  O_8
REMARK    3  A    between atoms: C_1  and  C_11
REMARK    4  A    between atoms: C_11  and  C_12
REMARK                            x       y       z     vdW  Elec       q    Type
REMARK                         _______ _______ _______ _____ _____    ______ ____
ROOT
ATOM      1  C   UNL     1      34.969 -17.949 -22.085  0.00  0.00    +0.194 C 
ENDROOT
BRANCH   1   2
ATOM      2  C   UNL     1      34.683 -19.157 -21.221  0.00  0.00    +0.012 C 
ATOM      3  C   UNL     1      35.738 -19.926 -20.761  0.00  0.00    -0.002 C 
ATOM      4  C   UNL     1      33.371 -19.469 -20.906  0.00  0.00    -0.002 C 
ATOM      5  C   UNL     1      35.474 -21.040 -19.964  0.00  0.00    -0.000 C 
ATOM      6  C   UNL     1      33.107 -20.583 -20.110  0.00  0.00    -0.000 C 
ATOM      7  C   UNL     1      34.159 -21.368 -19.638  0.00  0.00    -0.000 C 
ENDBRANCH   1   2
BRANCH   1   8
ATOM      8  O   UNL     1      36.300 -18.031 -22.585  0.00  0.00    -0.373 OA
ATOM      9  H   UNL     1      36.809 -17.265 -22.276  0.00  0.00    +0.211 HD
ENDBRANCH   1   8
BRANCH   1  11
ATOM     10  O   UNL     1      35.256 -16.484 -20.190  0.00  0.00    -0.288 OA
ATOM     11  C   UNL     1      34.784 -16.610 -21.338  0.00  0.00    +0.204 C 
BRANCH  11  12
ATOM     12  C   UNL     1      34.068 -15.506 -21.959  0.00  0.00    +0.037 C 
ATOM     13  C   UNL     1      32.992 -14.915 -21.299  0.00  0.00    +0.003 C 
ATOM     14  C   UNL     1      34.461 -15.039 -23.212  0.00  0.00    +0.003 C 
ATOM     15  C   UNL     1      32.305 -13.855 -21.895  0.00  0.00    +0.000 C 
ATOM     16  C   UNL     1      33.775 -13.979 -23.807  0.00  0.00    +0.000 C 
ATOM     17  C   UNL     1      32.698 -13.388 -23.149  0.00  0.00    +0.000 C 
ENDBRANCH  11  12
ENDBRANCH   1  11
TORSDOF 4
ENDMDL
MODEL 2
REMARK VINA RESULT:      -9.1      1.477      2.283
REMARK  Name = 8400
REMARK  4 active torsions:
REMARK  status: ('A' for Active; 'I' for Inactive)
REMARK    1  A    between atoms: C_1  and  C_2
REMARK    2  A    between atoms: C_1  and  O_8
REMARK    3  A    between atoms: C_1  and  C_11
REMARK    4  A    between atoms: C_11  and  C_12
REMARK                            x       y       z     vdW  Elec       q    Type
REMARK                         _______ _______ _______ _____ _____    ______ ____
ROOT
ATOM      1  C   UNL     1      35.966 -19.114 -21.465  0.00  0.00    +0.194 C 
ENDROOT
BRANCH   1   2
ATOM      2  C   UNL     1      35.088 -20.054 -20.669  0.00  0.00    +0.012 C 
ATOM      3  C   UNL     1      35.677 -21.031 -19.886  0.00  0.00    -0.002 C 
ATOM      4  C   UNL     1      33.711 -19.919 -20.742  0.00  0.00    -0.002 C 
ATOM      5  C   UNL     1      34.867 -21.898 -19.152  0.00  0.00    -0.000 C 
ATOM      6  C   UNL     1      32.901 -20.786 -20.009  0.00  0.00    -0.000 C 
ATOM      7  C   UNL     1      33.479 -21.775 -19.214  0.00  0.00    -0.000 C 
ENDBRANCH   1   2
BRANCH   1   8
ATOM      8  O   UNL     1      37.269 -19.086 -20.890  0.00  0.00    -0.373 OA
ATOM      9  H   UNL     1      37.375 -19.843 -20.292  0.00  0.00    +0.211 HD
ENDBRANCH   1   8
BRANCH   1  11
ATOM     10  O   UNL     1      35.368 -16.987 -20.498  0.00  0.00    -0.288 OA
ATOM     11  C   UNL     1      35.408 -17.676 -21.537  0.00  0.00    +0.204 C 
BRANCH  11  12
ATOM     12  C   UNL     1      34.931 -17.126 -22.796  0.00  0.00    +0.037 C 
ATOM     13  C   UNL     1      34.949 -17.910 -23.950  0.00  0.00    +0.003 C 
ATOM     14  C   UNL     1      34.455 -15.817 -22.850  0.00  0.00    +0.003 C 
ATOM     15  C   UNL     1      34.491 -17.383 -25.158  0.00  0.00    +0.000 C 
ATOM     16  C   UNL     1      33.996 -15.291 -24.057  0.00  0.00    +0.000 C 
ATOM     17  C   UNL     1      34.014 -16.073 -25.211  0.00  0.00    +0.000 C 
ENDBRANCH  11  12
ENDBRANCH   1  11
TORSDOF 4
ENDMDL
MODEL 3
REMARK VINA RESULT:      -9.0      0.192      1.716
REMARK  Name = 8400
REMARK  4 active torsions:
REMARK  status: ('A' for Active; 'I' for Inactive)
REMARK    1  A    between atoms: C_1  and  C_2
REMARK    2  A    between atoms: C_1  and  O_8
REMARK    3  A    between atoms: C_1  and  C_11
REMARK    4  A    between atoms: C_11  and  C_12
REMARK                            x       y       z     vdW  Elec       q    Type
REMARK                         _______ _______ _______ _____ _____    ______ ____
ROOT
ATOM      1  C   UNL     1      34.787 -18.101 -22.089  0.00  0.00    +0.194 C 
ENDROOT
BRANCH   1   2
ATOM      2  C   UNL     1      34.528 -19.286 -21.186  0.00  0.00    +0.012 C 
ATOM      3  C   UNL     1      33.229 -19.578 -20.807  0.00  0.00    -0.002 C 
ATOM      4  C   UNL     1      35.596 -20.056 -20.756  0.00  0.00    -0.002 C 
ATOM      5  C   UNL     1      32.990 -20.671 -19.974  0.00  0.00    -0.000 C 
ATOM      6  C   UNL     1      35.358 -21.149 -19.922  0.00  0.00    -0.000 C 
ATOM      7  C   UNL     1      34.055 -21.456 -19.532  0.00  0.00    -0.000 C 
ENDBRANCH   1   2
BRANCH   1   8
ATOM      8  O   UNL     1      36.058 -18.254 -22.715  0.00  0.00    -0.373 OA
ATOM      9  H   UNL     1      36.280 -19.197 -22.771  0.00  0.00    +0.211 HD
ENDBRANCH   1   8
BRANCH   1  11
ATOM     10  O   UNL     1      35.297 -16.649 -20.231  0.00  0.00    -0.288 OA
ATOM     11  C   UNL     1      34.743 -16.749 -21.345  0.00  0.00    +0.204 C 
BRANCH  11  12
ATOM     12  C   UNL     1      34.063 -15.602 -21.927  0.00  0.00    +0.037 C 
ATOM     13  C   UNL     1      34.552 -15.024 -23.099  0.00  0.00    +0.003 C 
ATOM     14  C   UNL     1      32.923 -15.083 -21.316  0.00  0.00    +0.003 C 
ATOM     15  C   UNL     1      33.900 -13.923 -23.658  0.00  0.00    +0.000 C 
ATOM     16  C   UNL     1      32.271 -13.984 -21.875  0.00  0.00    +0.000 C 
ATOM     17  C   UNL     1      32.759 -13.405 -23.046  0.00  0.00    +0.000 C 
ENDBRANCH  11  12
ENDBRANCH   1  11
TORSDOF 4
ENDMDL
MODEL 4
REMARK VINA RESULT:      -8.8      1.144      5.590
REMARK  Name = 8400
REMARK  4 active torsions:
REMARK  status: ('A' for Active; 'I' for Inactive)
REMARK    1  A    between atoms: C_1  and  C_2
REMARK    2  A    between atoms: C_1  and  O_8
REMARK    3  A    between atoms: C_1  and  C_11
REMARK    4  A    between atoms: C_11  and  C_12
REMARK                            x       y       z     vdW  Elec       q    Type
REMARK                         _______ _______ _______ _____ _____    ______ ____
ROOT
ATOM      1  C   UNL     1      35.255 -17.129 -22.255  0.00  0.00    +0.194 C 
ENDROOT
BRANCH   1   2
ATOM      2  C   UNL     1      34.231 -16.060 -21.945  0.00  0.00    +0.012 C 
ATOM      3  C   UNL     1      33.799 -15.893 -20.641  0.00  0.00    -0.002 C 
ATOM      4  C   UNL     1      33.746 -15.269 -22.973  0.00  0.00    -0.002 C 
ATOM      5  C   UNL     1      32.855 -14.907 -20.355  0.00  0.00    -0.000 C 
ATOM      6  C   UNL     1      32.801 -14.283 -22.688  0.00  0.00    -0.000 C 
ATOM      7  C   UNL     1      32.356 -14.102 -21.379  0.00  0.00    -0.000 C 
ENDBRANCH   1   2
BRANCH   1   8
ATOM      8  O   UNL     1      36.027 -16.730 -23.383  0.00  0.00    -0.373 OA
ATOM      9  H   UNL     1      35.809 -17.296 -24.141  0.00  0.00    +0.211 HD
ENDBRANCH   1   8
BRANCH   1  11
ATOM     10  O   UNL     1      34.258 -18.793 -23.688  0.00  0.00    -0.288 OA
ATOM     11  C   UNL     1      34.625 -18.512 -22.529  0.00  0.00    +0.204 C 
BRANCH  11  12
ATOM     12  C   UNL     1      34.457 -19.478 -21.455  0.00  0.00    +0.037 C 
ATOM     13  C   UNL     1      33.179 -19.789 -20.990  0.00  0.00    +0.003 C 
ATOM     14  C   UNL     1      35.573 -20.094 -20.891  0.00  0.00    +0.003 C 
ATOM     15  C   UNL     1      33.018 -20.716 -19.959  0.00  0.00    +0.000 C 
ATOM     16  C   UNL     1      35.412 -21.021 -19.861  0.00  0.00    +0.000 C 
ATOM     17  C   UNL     1      34.136 -21.332 -19.396  0.00  0.00    +0.000 C 
ENDBRANCH  11  12
ENDBRANCH   1  11
TORSDOF 4
ENDMDL
MODEL 5
REMARK VINA RESULT:      -8.6      1.441      5.900
REMARK  Name = 8400
REMARK  4 active torsions:
REMARK  status: ('A' for Active; 'I' for Inactive)
REMARK    1  A    between atoms: C_1  and  C_2
REMARK    2  A    between atoms: C_1  and  O_8
REMARK    3  A    between atoms: C_1  and  C_11
REMARK    4  A    between atoms: C_11  and  C_12
REMARK                            x       y       z     vdW  Elec       q    Type
REMARK                         _______ _______ _______ _____ _____    ______ ____
ROOT
ATOM      1  C   UNL     1      34.668 -17.506 -21.261  0.00  0.00    +0.194 C 
ENDROOT
BRANCH   1   2
ATOM      2  C   UNL     1      34.522 -17.096 -22.710  0.00  0.00    +0.012 C 
ATOM      3  C   UNL     1      34.736 -18.034 -23.704  0.00  0.00    -0.002 C 
ATOM      4  C   UNL     1      34.177 -15.789 -23.011  0.00  0.00    -0.002 C 
ATOM      5  C   UNL     1      34.601 -17.655 -25.040  0.00  0.00    -0.000 C 
ATOM      6  C   UNL     1      34.043 -15.410 -24.347  0.00  0.00    -0.000 C 
ATOM      7  C   UNL     1      34.255 -16.343 -25.361  0.00  0.00    -0.000 C 
ENDBRANCH   1   2
BRANCH   1   8
ATOM      8  O   UNL     1      35.198 -16.416 -20.513  0.00  0.00    -0.373 OA
ATOM      9  H   UNL     1      36.154 -16.354 -20.663  0.00  0.00    +0.211 HD
ENDBRANCH   1   8
BRANCH   1  11
ATOM     10  O   UNL     1      36.759 -18.695 -21.447  0.00  0.00    -0.288 OA
ATOM     11  C   UNL     1      35.571 -18.745 -21.069  0.00  0.00    +0.204 C 
BRANCH  11  12
ATOM     12  C   UNL     1      35.049 -19.957 -20.458  0.00  0.00    +0.037 C 
ATOM     13  C   UNL     1      35.925 -20.897 -19.916  0.00  0.00    +0.003 C 
ATOM     14  C   UNL     1      33.673 -20.177 -20.413  0.00  0.00    +0.003 C 
ATOM     15  C   UNL     1      35.423 -22.060 -19.330  0.00  0.00    +0.000 C 
ATOM     16  C   UNL     1      33.172 -21.339 -19.827  0.00  0.00    +0.000 C 
ATOM     17  C   UNL     1      34.046 -22.280 -19.285  0.00  0.00    +0.000 C 
ENDBRANCH  11  12
ENDBRANCH   1  11
TORSDOF 4
ENDMDL
MODEL 6
REMARK VINA RESULT:      -8.4      7.906      9.950
REMARK  Name = 8400
REMARK  4 active torsions:
REMARK  status: ('A' for Active; 'I' for Inactive)
REMARK    1  A    between atoms: C_1  and  C_2
REMARK    2  A    between atoms: C_1  and  O_8
REMARK    3  A    between atoms: C_1  and  C_11
REMARK    4  A    between atoms: C_11  and  C_12
REMARK                            x       y       z     vdW  Elec       q    Type
REMARK                         _______ _______ _______ _____ _____    ______ ____
ROOT
ATOM      1  C   UNL     1      32.947  -7.750 -20.804  0.00  0.00    +0.194 C 
ENDROOT
BRANCH   1   2
ATOM      2  C   UNL     1      32.201  -9.064 -20.729  0.00  0.00    +0.012 C 
ATOM      3  C   UNL     1      31.847  -9.708 -21.901  0.00  0.00    -0.002 C 
ATOM      4  C   UNL     1      31.887  -9.595 -19.489  0.00  0.00    -0.002 C 
ATOM      5  C   UNL     1      31.158 -10.920 -21.833  0.00  0.00    -0.000 C 
ATOM      6  C   UNL     1      31.199 -10.806 -19.421  0.00  0.00    -0.000 C 
ATOM      7  C   UNL     1      30.835 -11.468 -20.592  0.00  0.00    -0.000 C 
ENDBRANCH   1   2
BRANCH   1   8
ATOM      8  O   UNL     1      33.075  -7.205 -19.494  0.00  0.00    -0.373 OA
ATOM      9  H   UNL     1      33.993  -6.927 -19.347  0.00  0.00    +0.211 HD
ENDBRANCH   1   8
BRANCH   1  11
ATOM     10  O   UNL     1      31.257  -6.106 -21.312  0.00  0.00    -0.288 OA
ATOM     11  C   UNL     1      32.265  -6.715 -21.724  0.00  0.00    +0.204 C 
BRANCH  11  12
ATOM     12  C   UNL     1      32.784  -6.450 -23.057  0.00  0.00    +0.037 C 
ATOM     13  C   UNL     1      32.100  -5.585 -23.911  0.00  0.00    +0.003 C 
ATOM     14  C   UNL     1      33.965  -7.059 -23.479  0.00  0.00    +0.003 C 
ATOM     15  C   UNL     1      32.598  -5.331 -25.190  0.00  0.00    +0.000 C 
ATOM     16  C   UNL     1      34.463  -6.804 -24.756  0.00  0.00    +0.000 C 
ATOM     17  C   UNL     1      33.780  -5.940 -25.612  0.00  0.00    +0.000 C 
ENDBRANCH  11  12
ENDBRANCH   1  11
TORSDOF 4
ENDMDL
MODEL 7
REMARK VINA RESULT:      -8.3      4.309      6.793
REMARK  Name = 8400
REMARK  4 active torsions:
REMARK  status: ('A' for Active; 'I' for Inactive)
REMARK    1  A    between atoms: C_1  and  C_2
REMARK    2  A    between atoms: C_1  and  O_8
REMARK    3  A    between atoms: C_1  and  C_11
REMARK    4  A    between atoms: C_11  and  C_12
REMARK                            x       y       z     vdW  Elec       q    Type
REMARK                         _______ _______ _______ _____ _____    ______ ____
ROOT
ATOM      1  C   UNL     1      33.780 -22.735 -17.124  0.00  0.00    +0.194 C 
ENDROOT
BRANCH   1   2
ATOM      2  C   UNL     1      35.040 -23.135 -16.389  0.00  0.00    +0.012 C 
ATOM      3  C   UNL     1      36.203 -22.415 -16.598  0.00  0.00    -0.002 C 
ATOM      4  C   UNL     1      35.004 -24.215 -15.523  0.00  0.00    -0.002 C 
ATOM      5  C   UNL     1      37.365 -22.784 -15.920  0.00  0.00    -0.000 C 
ATOM      6  C   UNL     1      36.167 -24.585 -14.846  0.00  0.00    -0.000 C 
ATOM      7  C   UNL     1      37.346 -23.869 -15.044  0.00  0.00    -0.000 C 
ENDBRANCH   1   2
BRANCH   1   8
ATOM      8  O   UNL     1      32.700 -23.556 -16.690  0.00  0.00    -0.373 OA
ATOM      9  H   UNL     1      33.003 -24.475 -16.611  0.00  0.00    +0.211 HD
ENDBRANCH   1   8
BRANCH   1  11
ATOM     10  O   UNL     1      33.924 -23.962 -19.196  0.00  0.00    -0.288 OA
ATOM     11  C   UNL     1      33.914 -22.836 -18.660  0.00  0.00    +0.204 C 
BRANCH  11  12
ATOM     12  C   UNL     1      34.030 -21.637 -19.475  0.00  0.00    +0.037 C 
ATOM     13  C   UNL     1      35.286 -21.196 -19.891  0.00  0.00    +0.003 C 
ATOM     14  C   UNL     1      32.885 -20.931 -19.842  0.00  0.00    +0.003 C 
ATOM     15  C   UNL     1      35.396 -20.046 -20.674  0.00  0.00    +0.000 C 
ATOM     16  C   UNL     1      32.996 -19.782 -20.625  0.00  0.00    +0.000 C 
ATOM     17  C   UNL     1      34.251 -19.340 -21.041  0.00  0.00    +0.000 C 
ENDBRANCH  11  12
ENDBRANCH   1  11
TORSDOF 4
ENDMDL
MODEL 8
REMARK VINA RESULT:      -8.3      3.854      6.208
REMARK  Name = 8400
REMARK  4 active torsions:
REMARK  status: ('A' for Active; 'I' for Inactive)
REMARK    1  A    between atoms: C_1  and  C_2
REMARK    2  A    between atoms: C_1  and  O_8
REMARK    3  A    between atoms: C_1  and  C_11
REMARK    4  A    between atoms: C_11  and  C_12
REMARK                            x       y       z     vdW  Elec       q    Type
REMARK                         _______ _______ _______ _____ _____    ______ ____
ROOT
ATOM      1  C   UNL     1      33.466 -23.098 -18.598  0.00  0.00    +0.194 C 
ENDROOT
BRANCH   1   2
ATOM      2  C   UNL     1      33.061 -23.164 -17.143  0.00  0.00    +0.012 C 
ATOM      3  C   UNL     1      31.741 -22.933 -16.796  0.00  0.00    -0.002 C 
ATOM      4  C   UNL     1      34.019 -23.455 -16.186  0.00  0.00    -0.002 C 
ATOM      5  C   UNL     1      31.368 -22.995 -15.453  0.00  0.00    -0.000 C 
ATOM      6  C   UNL     1      33.646 -23.516 -14.843  0.00  0.00    -0.000 C 
ATOM      7  C   UNL     1      32.320 -23.286 -14.478  0.00  0.00    -0.000 C 
ENDBRANCH   1   2
BRANCH   1   8
ATOM      8  O   UNL     1      33.795 -24.406 -19.057  0.00  0.00    -0.373 OA
ATOM      9  H   UNL     1      32.980 -24.903 -19.228  0.00  0.00    +0.211 HD
ENDBRANCH   1   8
BRANCH   1  11
ATOM     10  O   UNL     1      35.736 -22.356 -18.260  0.00  0.00    -0.288 OA
ATOM     11  C   UNL     1      34.658 -22.150 -18.855  0.00  0.00    +0.204 C 
BRANCH  11  12
ATOM     12  C   UNL     1      34.533 -21.030 -19.774  0.00  0.00    +0.037 C 
ATOM     13  C   UNL     1      33.270 -20.538 -20.105  0.00  0.00    +0.003 C 
ATOM     14  C   UNL     1      35.675 -20.447 -20.322  0.00  0.00    +0.003 C 
ATOM     15  C   UNL     1      33.151 -19.464 -20.988  0.00  0.00    +0.000 C 
ATOM     16  C   UNL     1      35.555 -19.373 -21.203  0.00  0.00    +0.000 C 
ATOM     17  C   UNL     1      34.293 -18.881 -21.535  0.00  0.00    +0.000 C 
ENDBRANCH  11  12
ENDBRANCH   1  11
TORSDOF 4
ENDMDL
MODEL 9
REMARK VINA RESULT:      -8.2      1.923      3.365
REMARK  Name = 8400
REMARK  4 active torsions:
REMARK  status: ('A' for Active; 'I' for Inactive)
REMARK    1  A    between atoms: C_1  and  C_2
REMARK    2  A    between atoms: C_1  and  O_8
REMARK    3  A    between atoms: C_1  and  C_11
REMARK    4  A    between atoms: C_11  and  C_12
REMARK                            x       y       z     vdW  Elec       q    Type
REMARK                         _______ _______ _______ _____ _____    ______ ____
ROOT
ATOM      1  C   UNL     1      34.653 -15.164 -22.138  0.00  0.00    +0.194 C 
ENDROOT
BRANCH   1   2
ATOM      2  C   UNL     1      34.724 -16.667 -22.292  0.00  0.00    +0.012 C 
ATOM      3  C   UNL     1      34.994 -17.208 -23.537  0.00  0.00    -0.002 C 
ATOM      4  C   UNL     1      34.517 -17.471 -21.184  0.00  0.00    -0.002 C 
ATOM      5  C   UNL     1      35.059 -18.594 -23.679  0.00  0.00    -0.000 C 
ATOM      6  C   UNL     1      34.582 -18.858 -21.326  0.00  0.00    -0.000 C 
ATOM      7  C   UNL     1      34.853 -19.418 -22.574  0.00  0.00    -0.000 C 
ENDBRANCH   1   2
BRANCH   1   8
ATOM      8  O   UNL     1      34.729 -14.827 -20.756  0.00  0.00    -0.373 OA
ATOM      9  H   UNL     1      35.297 -15.468 -20.298  0.00  0.00    +0.211 HD
ENDBRANCH   1   8
BRANCH   1  11
ATOM     10  O   UNL     1      32.296 -14.649 -22.118  0.00  0.00    -0.288 OA
ATOM     11  C   UNL     1      33.371 -14.551 -22.744  0.00  0.00    +0.204 C 
BRANCH  11  12
ATOM     12  C   UNL     1      33.410 -13.868 -24.027  0.00  0.00    +0.037 C 
ATOM     13  C   UNL     1      33.778 -12.524 -24.091  0.00  0.00    +0.003 C 
ATOM     14  C   UNL     1      33.080 -14.557 -25.193  0.00  0.00    +0.003 C 
ATOM     15  C   UNL     1      33.815 -11.869 -25.323  0.00  0.00    +0.000 C 
ATOM     16  C   UNL     1      33.118 -13.902 -26.424  0.00  0.00    +0.000 C 
ATOM     17  C   UNL     1      33.485 -12.559 -26.489  0.00  0.00    +0.000 C 
ENDBRANCH  11  12
ENDBRANCH   1  11
TORSDOF 4
ENDMDL
