MODEL 1
REMARK VINA RESULT:      -5.2      0.000      0.000
REMARK  Name = 1993
REMARK  4 active torsions:
REMARK  status: ('A' for Active; 'I' for Inactive)
REMARK    1  A    between atoms: C_1  and  O_3
REMARK    2  A    between atoms: C_1  and  C_7
REMARK    3  A    between atoms: O_3  and  C_5
REMARK    4  A    between atoms: C_7  and  N_8
REMARK                            x       y       z     vdW  Elec       q    Type
REMARK                         _______ _______ _______ _____ _____    ______ ____
ROOT
ATOM      1  C   UNL     1      37.758 -26.196 -14.478  0.00  0.00    +0.149 C 
ATOM      2  C   UNL     1      36.717 -26.822 -15.397  0.00  0.00    +0.045 C 
ENDROOT
BRANCH   1   3
ATOM      3  O   UNL     1      38.974 -26.935 -14.560  0.00  0.00    -0.454 OA
BRANCH   3   5
ATOM      4  O   UNL     1      41.134 -26.514 -13.858  0.00  0.00    -0.250 OA
ATOM      5  C   UNL     1      40.120 -26.199 -14.467  0.00  0.00    +0.317 C 
ATOM      6  C   UNL     1      39.965 -24.920 -15.233  0.00  0.00    +0.121 C 
ENDBRANCH   3   5
ENDBRANCH   1   3
BRANCH   1   7
ATOM      7  C   UNL     1      37.327 -26.112 -13.017  0.00  0.00    -0.029 C 
BRANCH   7   8
ATOM      8  N   UNL     1      37.046 -24.672 -12.612  0.00  0.00    +0.388 N 
ATOM      9  C   UNL     1      35.878 -24.637 -11.637  0.00  0.00    -0.096 C 
ATOM     10  C   UNL     1      38.281 -24.083 -11.944  0.00  0.00    -0.096 C 
ATOM     11  C   UNL     1      36.701 -23.854 -13.848  0.00  0.00    -0.096 C 
ENDBRANCH   7   8
ENDBRANCH   1   7
TORSDOF 4
ENDMDL
MODEL 2
REMARK VINA RESULT:      -5.1     12.420     13.396
REMARK  Name = 1993
REMARK  4 active torsions:
REMARK  status: ('A' for Active; 'I' for Inactive)
REMARK    1  A    between atoms: C_1  and  O_3
REMARK    2  A    between atoms: C_1  and  C_7
REMARK    3  A    between atoms: O_3  and  C_5
REMARK    4  A    between atoms: C_7  and  N_8
REMARK                            x       y       z     vdW  Elec       q    Type
REMARK                         _______ _______ _______ _____ _____    ______ ____
ROOT
ATOM      1  C   UNL     1      34.693 -17.909 -24.033  0.00  0.00    +0.149 C 
ATOM      2  C   UNL     1      34.251 -18.941 -25.063  0.00  0.00    +0.045 C 
ENDROOT
BRANCH   1   3
ATOM      3  O   UNL     1      35.103 -16.717 -24.699  0.00  0.00    -0.454 OA
BRANCH   3   5
ATOM      4  O   UNL     1      33.686 -15.806 -26.280  0.00  0.00    -0.250 OA
ATOM      5  C   UNL     1      34.094 -15.904 -25.131  0.00  0.00    +0.317 C 
ATOM      6  C   UNL     1      33.539 -15.128 -23.974  0.00  0.00    +0.121 C 
ENDBRANCH   3   5
ENDBRANCH   1   3
BRANCH   1   7
ATOM      7  C   UNL     1      35.822 -18.382 -23.123  0.00  0.00    -0.029 C 
BRANCH   7   8
ATOM      8  N   UNL     1      35.353 -18.488 -21.680  0.00  0.00    +0.388 N 
ATOM      9  C   UNL     1      34.119 -19.376 -21.611  0.00  0.00    -0.096 C 
ATOM     10  C   UNL     1      36.461 -19.092 -20.830  0.00  0.00    -0.096 C 
ATOM     11  C   UNL     1      35.009 -17.102 -21.153  0.00  0.00    -0.096 C 
ENDBRANCH   7   8
ENDBRANCH   1   7
TORSDOF 4
ENDMDL
MODEL 3
REMARK VINA RESULT:      -5.0     14.055     15.142
REMARK  Name = 1993
REMARK  4 active torsions:
REMARK  status: ('A' for Active; 'I' for Inactive)
REMARK    1  A    between atoms: C_1  and  O_3
REMARK    2  A    between atoms: C_1  and  C_7
REMARK    3  A    between atoms: O_3  and  C_5
REMARK    4  A    between atoms: C_7  and  N_8
REMARK                            x       y       z     vdW  Elec       q    Type
REMARK                         _______ _______ _______ _____ _____    ______ ____
ROOT
ATOM      1  C   UNL     1      34.113 -15.736 -22.990  0.00  0.00    +0.149 C 
ATOM      2  C   UNL     1      33.817 -16.278 -21.597  0.00  0.00    +0.045 C 
ENDROOT
BRANCH   1   3
ATOM      3  O   UNL     1      35.194 -16.467 -23.565  0.00  0.00    -0.454 OA
BRANCH   3   5
ATOM      4  O   UNL     1      34.776 -16.813 -25.811  0.00  0.00    -0.250 OA
ATOM      5  C   UNL     1      34.881 -17.219 -24.662  0.00  0.00    +0.317 C 
ATOM      6  C   UNL     1      34.679 -18.647 -24.254  0.00  0.00    +0.121 C 
ENDBRANCH   3   5
ENDBRANCH   1   3
BRANCH   1   7
ATOM      7  C   UNL     1      34.450 -14.248 -23.020  0.00  0.00    -0.029 C 
BRANCH   7   8
ATOM      8  N   UNL     1      33.329 -13.448 -23.668  0.00  0.00    +0.388 N 
ATOM      9  C   UNL     1      32.794 -14.207 -24.874  0.00  0.00    -0.096 C 
ATOM     10  C   UNL     1      32.207 -13.242 -22.661  0.00  0.00    -0.096 C 
ATOM     11  C   UNL     1      33.862 -12.095 -24.116  0.00  0.00    -0.096 C 
ENDBRANCH   7   8
ENDBRANCH   1   7
TORSDOF 4
ENDMDL
MODEL 4
REMARK VINA RESULT:      -5.0      2.603      4.615
REMARK  Name = 1993
REMARK  4 active torsions:
REMARK  status: ('A' for Active; 'I' for Inactive)
REMARK    1  A    between atoms: C_1  and  O_3
REMARK    2  A    between atoms: C_1  and  C_7
REMARK    3  A    between atoms: O_3  and  C_5
REMARK    4  A    between atoms: C_7  and  N_8
REMARK                            x       y       z     vdW  Elec       q    Type
REMARK                         _______ _______ _______ _____ _____    ______ ____
ROOT
ATOM      1  C   UNL     1      37.566 -24.164 -12.401  0.00  0.00    +0.149 C 
ATOM      2  C   UNL     1      37.874 -22.807 -11.782  0.00  0.00    +0.045 C 
ENDROOT
BRANCH   1   3
ATOM      3  O   UNL     1      36.942 -25.000 -11.430  0.00  0.00    -0.454 OA
BRANCH   3   5
ATOM      4  O   UNL     1      35.257 -24.530  -9.921  0.00  0.00    -0.250 OA
ATOM      5  C   UNL     1      35.676 -24.640 -11.065  0.00  0.00    +0.317 C 
ATOM      6  C   UNL     1      34.848 -24.391 -12.290  0.00  0.00    +0.121 C 
ENDBRANCH   3   5
ENDBRANCH   1   3
BRANCH   1   7
ATOM      7  C   UNL     1      38.789 -24.884 -12.962  0.00  0.00    -0.029 C 
BRANCH   7   8
ATOM      8  N   UNL     1      38.596 -25.221 -14.434  0.00  0.00    +0.388 N 
ATOM      9  C   UNL     1      39.955 -25.396 -15.096  0.00  0.00    -0.096 C 
ATOM     10  C   UNL     1      37.801 -26.513 -14.558  0.00  0.00    -0.096 C 
ATOM     11  C   UNL     1      37.839 -24.093 -15.120  0.00  0.00    -0.096 C 
ENDBRANCH   7   8
ENDBRANCH   1   7
TORSDOF 4
ENDMDL
MODEL 5
REMARK VINA RESULT:      -4.9      1.676      2.892
REMARK  Name = 1993
REMARK  4 active torsions:
REMARK  status: ('A' for Active; 'I' for Inactive)
REMARK    1  A    between atoms: C_1  and  O_3
REMARK    2  A    between atoms: C_1  and  C_7
REMARK    3  A    between atoms: O_3  and  C_5
REMARK    4  A    between atoms: C_7  and  N_8
REMARK                            x       y       z     vdW  Elec       q    Type
REMARK                         _______ _______ _______ _____ _____    ______ ____
ROOT
ATOM      1  C   UNL     1      37.617 -24.427 -13.440  0.00  0.00    +0.149 C 
ATOM      2  C   UNL     1      38.091 -24.133 -12.023  0.00  0.00    +0.045 C 
ENDROOT
BRANCH   1   3
ATOM      3  O   UNL     1      38.746 -24.588 -14.296  0.00  0.00    -0.454 OA
BRANCH   3   5
ATOM      4  O   UNL     1      38.497 -26.854 -14.674  0.00  0.00    -0.250 OA
ATOM      5  C   UNL     1      39.190 -25.870 -14.452  0.00  0.00    +0.317 C 
ATOM      6  C   UNL     1      40.682 -25.909 -14.312  0.00  0.00    +0.121 C 
ENDBRANCH   3   5
ENDBRANCH   1   3
BRANCH   1   7
ATOM      7  C   UNL     1      36.702 -23.356 -14.025  0.00  0.00    -0.029 C 
BRANCH   7   8
ATOM      8  N   UNL     1      35.334 -23.931 -14.362  0.00  0.00    +0.388 N 
ATOM      9  C   UNL     1      34.538 -24.132 -13.081  0.00  0.00    -0.096 C 
ATOM     10  C   UNL     1      34.590 -22.966 -15.275  0.00  0.00    -0.096 C 
ATOM     11  C   UNL     1      35.503 -25.268 -15.068  0.00  0.00    -0.096 C 
ENDBRANCH   7   8
ENDBRANCH   1   7
TORSDOF 4
ENDMDL
MODEL 6
REMARK VINA RESULT:      -4.8      4.490      5.753
REMARK  Name = 1993
REMARK  4 active torsions:
REMARK  status: ('A' for Active; 'I' for Inactive)
REMARK    1  A    between atoms: C_1  and  O_3
REMARK    2  A    between atoms: C_1  and  C_7
REMARK    3  A    between atoms: O_3  and  C_5
REMARK    4  A    between atoms: C_7  and  N_8
REMARK                            x       y       z     vdW  Elec       q    Type
REMARK                         _______ _______ _______ _____ _____    ______ ____
ROOT
ATOM      1  C   UNL     1      34.380 -23.395 -16.008  0.00  0.00    +0.149 C 
ATOM      2  C   UNL     1      33.102 -23.171 -15.210  0.00  0.00    +0.045 C 
ENDROOT
BRANCH   1   3
ATOM      3  O   UNL     1      34.048 -23.775 -17.341  0.00  0.00    -0.454 OA
BRANCH   3   5
ATOM      4  O   UNL     1      32.570 -22.372 -18.430  0.00  0.00    -0.250 OA
ATOM      5  C   UNL     1      33.706 -22.752 -18.179  0.00  0.00    +0.317 C 
ATOM      6  C   UNL     1      34.944 -22.142 -18.766  0.00  0.00    +0.121 C 
ENDBRANCH   3   5
ENDBRANCH   1   3
BRANCH   1   7
ATOM      7  C   UNL     1      35.310 -24.446 -15.410  0.00  0.00    -0.029 C 
BRANCH   7   8
ATOM      8  N   UNL     1      36.557 -23.800 -14.823  0.00  0.00    +0.388 N 
ATOM      9  C   UNL     1      37.700 -24.805 -14.829  0.00  0.00    -0.096 C 
ATOM     10  C   UNL     1      36.943 -22.590 -15.662  0.00  0.00    -0.096 C 
ATOM     11  C   UNL     1      36.278 -23.359 -13.394  0.00  0.00    -0.096 C 
ENDBRANCH   7   8
ENDBRANCH   1   7
TORSDOF 4
ENDMDL
MODEL 7
REMARK VINA RESULT:      -4.8      3.187      4.862
REMARK  Name = 1993
REMARK  4 active torsions:
REMARK  status: ('A' for Active; 'I' for Inactive)
REMARK    1  A    between atoms: C_1  and  O_3
REMARK    2  A    between atoms: C_1  and  C_7
REMARK    3  A    between atoms: O_3  and  C_5
REMARK    4  A    between atoms: C_7  and  N_8
REMARK                            x       y       z     vdW  Elec       q    Type
REMARK                         _______ _______ _______ _____ _____    ______ ____
ROOT
ATOM      1  C   UNL     1      36.581 -23.438 -15.428  0.00  0.00    +0.149 C 
ATOM      2  C   UNL     1      37.546 -22.524 -16.173  0.00  0.00    +0.045 C 
ENDROOT
BRANCH   1   3
ATOM      3  O   UNL     1      35.337 -22.766 -15.242  0.00  0.00    -0.454 OA
BRANCH   3   5
ATOM      4  O   UNL     1      34.280 -23.660 -17.091  0.00  0.00    -0.250 OA
ATOM      5  C   UNL     1      34.276 -23.287 -15.926  0.00  0.00    +0.317 C 
ATOM      6  C   UNL     1      33.074 -23.341 -15.031  0.00  0.00    +0.121 C 
ENDBRANCH   3   5
ENDBRANCH   1   3
BRANCH   1   7
ATOM      7  C   UNL     1      37.095 -23.913 -14.073  0.00  0.00    -0.029 C 
BRANCH   7   8
ATOM      8  N   UNL     1      37.442 -25.395 -14.110  0.00  0.00    +0.388 N 
ATOM      9  C   UNL     1      36.538 -26.103 -15.107  0.00  0.00    -0.096 C 
ATOM     10  C   UNL     1      38.894 -25.564 -14.533  0.00  0.00    -0.096 C 
ATOM     11  C   UNL     1      37.244 -25.999 -12.727  0.00  0.00    -0.096 C 
ENDBRANCH   7   8
ENDBRANCH   1   7
TORSDOF 4
ENDMDL
MODEL 8
REMARK VINA RESULT:      -4.8      3.099      4.118
REMARK  Name = 1993
REMARK  4 active torsions:
REMARK  status: ('A' for Active; 'I' for Inactive)
REMARK    1  A    between atoms: C_1  and  O_3
REMARK    2  A    between atoms: C_1  and  C_7
REMARK    3  A    between atoms: O_3  and  C_5
REMARK    4  A    between atoms: C_7  and  N_8
REMARK                            x       y       z     vdW  Elec       q    Type
REMARK                         _______ _______ _______ _____ _____    ______ ____
ROOT
ATOM      1  C   UNL     1      35.662 -23.560 -15.145  0.00  0.00    +0.149 C 
ATOM      2  C   UNL     1      34.169 -23.284 -15.024  0.00  0.00    +0.045 C 
ENDROOT
BRANCH   1   3
ATOM      3  O   UNL     1      36.083 -23.323 -16.486  0.00  0.00    -0.454 OA
BRANCH   3   5
ATOM      4  O   UNL     1      37.717 -21.812 -15.867  0.00  0.00    -0.250 OA
ATOM      5  C   UNL     1      36.899 -22.243 -16.668  0.00  0.00    +0.317 C 
ATOM      6  C   UNL     1      36.649 -21.641 -18.018  0.00  0.00    +0.121 C 
ENDBRANCH   3   5
ENDBRANCH   1   3
BRANCH   1   7
ATOM      7  C   UNL     1      36.069 -24.974 -14.740  0.00  0.00    -0.029 C 
BRANCH   7   8
ATOM      8  N   UNL     1      37.262 -24.949 -13.796  0.00  0.00    +0.388 N 
ATOM      9  C   UNL     1      38.550 -25.007 -14.604  0.00  0.00    -0.096 C 
ATOM     10  C   UNL     1      37.234 -23.666 -12.978  0.00  0.00    -0.096 C 
ATOM     11  C   UNL     1      37.196 -26.147 -12.860  0.00  0.00    -0.096 C 
ENDBRANCH   7   8
ENDBRANCH   1   7
TORSDOF 4
ENDMDL
MODEL 9
REMARK VINA RESULT:      -4.7     12.128     13.312
REMARK  Name = 1993
REMARK  4 active torsions:
REMARK  status: ('A' for Active; 'I' for Inactive)
REMARK    1  A    between atoms: C_1  and  O_3
REMARK    2  A    between atoms: C_1  and  C_7
REMARK    3  A    between atoms: O_3  and  C_5
REMARK    4  A    between atoms: C_7  and  N_8
REMARK                            x       y       z     vdW  Elec       q    Type
REMARK                         _______ _______ _______ _____ _____    ______ ____
ROOT
ATOM      1  C   UNL     1      34.435 -16.119 -23.085  0.00  0.00    +0.149 C 
ATOM      2  C   UNL     1      34.067 -15.979 -24.557  0.00  0.00    +0.045 C 
ENDROOT
BRANCH   1   3
ATOM      3  O   UNL     1      34.721 -14.833 -22.541  0.00  0.00    -0.454 OA
BRANCH   3   5
ATOM      4  O   UNL     1      34.968 -14.781 -20.245  0.00  0.00    -0.250 OA
ATOM      5  C   UNL     1      34.301 -14.627 -21.259  0.00  0.00    +0.317 C 
ATOM      6  C   UNL     1      32.871 -14.175 -21.261  0.00  0.00    +0.121 C 
ENDBRANCH   3   5
ENDBRANCH   1   3
BRANCH   1   7
ATOM      7  C   UNL     1      35.623 -17.042 -22.826  0.00  0.00    -0.029 C 
BRANCH   7   8
ATOM      8  N   UNL     1      35.176 -18.327 -22.144  0.00  0.00    +0.388 N 
ATOM      9  C   UNL     1      34.848 -19.374 -23.199  0.00  0.00    -0.096 C 
ATOM     10  C   UNL     1      36.297 -18.842 -21.251  0.00  0.00    -0.096 C 
ATOM     11  C   UNL     1      33.941 -18.053 -21.300  0.00  0.00    -0.096 C 
ENDBRANCH   7   8
ENDBRANCH   1   7
TORSDOF 4
ENDMDL
