MODEL 1
REMARK VINA RESULT:      -7.9      0.000      0.000
REMARK  Name = 448297
REMARK  13 active torsions:
REMARK  status: ('A' for Active; 'I' for Inactive)
REMARK    1  A    between atoms: C_2  and  N_7
REMARK    2  A    between atoms: C_3  and  O_11
REMARK    3  A    between atoms: C_4  and  O_13
REMARK    4  A    between atoms: C_5  and  C_24
REMARK    5  A    between atoms: C_6  and  O_15
REMARK    6  A    between atoms: O_15  and  C_16
REMARK    7  A    between atoms: C_16  and  C_17
REMARK    8  A    between atoms: C_17  and  C_18
REMARK    9  A    between atoms: C_18  and  C_19
REMARK   10  A    between atoms: C_19  and  C_20
REMARK   11  A    between atoms: C_20  and  C_21
REMARK   12  A    between atoms: C_21  and  C_22
REMARK   13  A    between atoms: C_24  and  O_25
REMARK                            x       y       z     vdW  Elec       q    Type
REMARK                         _______ _______ _______ _____ _____    ______ ____
ROOT
ATOM      1  O   UNL     1      35.953 -24.185 -13.339  0.00  0.00    -0.326 OA
ATOM      2  C   UNL     1      38.197 -25.982 -13.479  0.00  0.00    -0.003 C 
ATOM      3  C   UNL     1      37.917 -25.109 -12.247  0.00  0.00    +0.123 C 
ATOM      4  C   UNL     1      37.574 -25.372 -14.743  0.00  0.00    +0.149 C 
ATOM      5  C   UNL     1      36.414 -24.818 -12.140  0.00  0.00    +0.172 C 
ATOM      6  C   UNL     1      36.104 -25.009 -14.495  0.00  0.00    +0.261 C 
ENDROOT
BRANCH   2   7
ATOM      7  N   UNL     1      39.638 -26.178 -13.653  0.00  0.00    +0.385 N 
ATOM      8  H   UNL     1      40.102 -26.115 -12.747  0.00  0.00    -0.089 HD
ATOM      9  H   UNL     1      40.006 -25.459 -14.275  0.00  0.00    -0.089 HD
ATOM     10  H   UNL     1      39.809 -27.099 -14.059  0.00  0.00    -0.089 HD
ENDBRANCH   2   7
BRANCH   3  11
ATOM     11  O   UNL     1      38.640 -23.879 -12.335  0.00  0.00    -0.384 OA
ATOM     12  H   UNL     1      38.746 -23.502 -11.447  0.00  0.00    +0.210 HD
ENDBRANCH   3  11
BRANCH   4  13
ATOM     13  O   UNL     1      37.614 -26.316 -15.813  0.00  0.00    -0.381 OA
ATOM     14  H   UNL     1      38.518 -26.373 -16.160  0.00  0.00    +0.210 HD
ENDBRANCH   4  13
BRANCH   6  15
ATOM     15  O   UNL     1      35.568 -24.338 -15.637  0.00  0.00    -0.329 OA
BRANCH  15  16
ATOM     16  C   UNL     1      35.657 -22.926 -15.503  0.00  0.00    +0.145 C 
BRANCH  16  17
ATOM     17  C   UNL     1      36.418 -22.366 -16.697  0.00  0.00    +0.032 C 
BRANCH  17  18
ATOM     18  C   UNL     1      35.516 -22.221 -17.922  0.00  0.00    +0.003 C 
BRANCH  18  19
ATOM     19  C   UNL     1      36.193 -21.385 -19.011  0.00  0.00    +0.000 C 
BRANCH  19  20
ATOM     20  C   UNL     1      35.257 -21.021 -20.167  0.00  0.00    +0.000 C 
BRANCH  20  21
ATOM     21  C   UNL     1      33.775 -21.077 -19.790  0.00  0.00    +0.000 C 
BRANCH  21  22
ATOM     22  C   UNL     1      32.970 -20.028 -20.560  0.00  0.00    +0.000 C 
ATOM     23  C   UNL     1      33.874 -18.963 -21.161  0.00  0.00    +0.000 C 
ENDBRANCH  21  22
ENDBRANCH  20  21
ENDBRANCH  19  20
ENDBRANCH  18  19
ENDBRANCH  17  18
ENDBRANCH  16  17
ENDBRANCH  15  16
ENDBRANCH   6  15
BRANCH   5  24
ATOM     24  C   UNL     1      36.083 -23.890 -10.977  0.00  0.00    +0.169 C 
BRANCH  24  25
ATOM     25  O   UNL     1      35.416 -24.640  -9.977  0.00  0.00    -0.379 OA
ATOM     26  H   UNL     1      35.767 -24.398  -9.105  0.00  0.00    +0.211 HD
ENDBRANCH  24  25
ENDBRANCH   5  24
TORSDOF 13
ENDMDL
MODEL 2
REMARK VINA RESULT:      -7.7      1.868      3.168
REMARK  Name = 448297
REMARK  13 active torsions:
REMARK  status: ('A' for Active; 'I' for Inactive)
REMARK    1  A    between atoms: C_2  and  N_7
REMARK    2  A    between atoms: C_3  and  O_11
REMARK    3  A    between atoms: C_4  and  O_13
REMARK    4  A    between atoms: C_5  and  C_24
REMARK    5  A    between atoms: C_6  and  O_15
REMARK    6  A    between atoms: O_15  and  C_16
REMARK    7  A    between atoms: C_16  and  C_17
REMARK    8  A    between atoms: C_17  and  C_18
REMARK    9  A    between atoms: C_18  and  C_19
REMARK   10  A    between atoms: C_19  and  C_20
REMARK   11  A    between atoms: C_20  and  C_21
REMARK   12  A    between atoms: C_21  and  C_22
REMARK   13  A    between atoms: C_24  and  O_25
REMARK                            x       y       z     vdW  Elec       q    Type
REMARK                         _______ _______ _______ _____ _____    ______ ____
ROOT
ATOM      1  O   UNL     1      38.404 -24.521 -15.305  0.00  0.00    -0.326 OA
ATOM      2  C   UNL     1      36.987 -24.645 -12.803  0.00  0.00    -0.003 C 
ATOM      3  C   UNL     1      38.146 -25.595 -13.141  0.00  0.00    +0.123 C 
ATOM      4  C   UNL     1      36.323 -24.106 -14.079  0.00  0.00    +0.149 C 
ATOM      5  C   UNL     1      39.111 -24.917 -14.124  0.00  0.00    +0.172 C 
ATOM      6  C   UNL     1      37.382 -23.559 -15.044  0.00  0.00    +0.261 C 
ENDROOT
BRANCH   2   7
ATOM      7  N   UNL     1      36.004 -25.318 -11.950  0.00  0.00    +0.385 N 
ATOM      8  H   UNL     1      35.814 -24.742 -11.130  0.00  0.00    -0.089 HD
ATOM      9  H   UNL     1      36.373 -26.221 -11.654  0.00  0.00    -0.089 HD
ATOM     10  H   UNL     1      35.139 -25.459 -12.475  0.00  0.00    -0.089 HD
ENDBRANCH   2   7
BRANCH   3  11
ATOM     11  O   UNL     1      37.646 -26.805 -13.715  0.00  0.00    -0.384 OA
ATOM     12  H   UNL     1      37.974 -26.891 -14.624  0.00  0.00    +0.210 HD
ENDBRANCH   3  11
BRANCH   4  13
ATOM     13  O   UNL     1      35.437 -23.036 -13.753  0.00  0.00    -0.381 OA
ATOM     14  H   UNL     1      34.605 -23.398 -13.412  0.00  0.00    +0.210 HD
ENDBRANCH   4  13
BRANCH   6  15
ATOM     15  O   UNL     1      36.766 -23.166 -16.272  0.00  0.00    -0.329 OA
BRANCH  15  16
ATOM     16  C   UNL     1      37.100 -21.829 -16.619  0.00  0.00    +0.145 C 
BRANCH  16  17
ATOM     17  C   UNL     1      36.755 -21.601 -18.084  0.00  0.00    +0.032 C 
BRANCH  17  18
ATOM     18  C   UNL     1      35.305 -21.978 -18.386  0.00  0.00    +0.003 C 
BRANCH  18  19
ATOM     19  C   UNL     1      34.839 -21.367 -19.710  0.00  0.00    +0.000 C 
BRANCH  19  20
ATOM     20  C   UNL     1      33.331 -21.107 -19.762  0.00  0.00    +0.000 C 
BRANCH  20  21
ATOM     21  C   UNL     1      32.956 -19.862 -20.569  0.00  0.00    +0.000 C 
BRANCH  21  22
ATOM     22  C   UNL     1      34.133 -19.378 -21.417  0.00  0.00    +0.000 C 
ATOM     23  C   UNL     1      34.225 -17.860 -21.427  0.00  0.00    +0.000 C 
ENDBRANCH  21  22
ENDBRANCH  20  21
ENDBRANCH  19  20
ENDBRANCH  18  19
ENDBRANCH  17  18
ENDBRANCH  16  17
ENDBRANCH  15  16
ENDBRANCH   6  15
BRANCH   5  24
ATOM     24  C   UNL     1      40.243 -25.842 -14.557  0.00  0.00    +0.169 C 
BRANCH  24  25
ATOM     25  O   UNL     1      40.339 -25.805 -15.970  0.00  0.00    -0.379 OA
ATOM     26  H   UNL     1      41.216 -25.478 -16.225  0.00  0.00    +0.211 HD
ENDBRANCH  24  25
ENDBRANCH   5  24
TORSDOF 13
ENDMDL
MODEL 3
REMARK VINA RESULT:      -7.6      3.092      3.928
REMARK  Name = 448297
REMARK  13 active torsions:
REMARK  status: ('A' for Active; 'I' for Inactive)
REMARK    1  A    between atoms: C_2  and  N_7
REMARK    2  A    between atoms: C_3  and  O_11
REMARK    3  A    between atoms: C_4  and  O_13
REMARK    4  A    between atoms: C_5  and  C_24
REMARK    5  A    between atoms: C_6  and  O_15
REMARK    6  A    between atoms: O_15  and  C_16
REMARK    7  A    between atoms: C_16  and  C_17
REMARK    8  A    between atoms: C_17  and  C_18
REMARK    9  A    between atoms: C_18  and  C_19
REMARK   10  A    between atoms: C_19  and  C_20
REMARK   11  A    between atoms: C_20  and  C_21
REMARK   12  A    between atoms: C_21  and  C_22
REMARK   13  A    between atoms: C_24  and  O_25
REMARK                            x       y       z     vdW  Elec       q    Type
REMARK                         _______ _______ _______ _____ _____    ______ ____
ROOT
ATOM      1  O   UNL     1      35.691 -24.358 -13.598  0.00  0.00    -0.326 OA
ATOM      2  C   UNL     1      38.075 -25.966 -13.473  0.00  0.00    -0.003 C 
ATOM      3  C   UNL     1      37.661 -25.016 -12.339  0.00  0.00    +0.123 C 
ATOM      4  C   UNL     1      37.472 -25.522 -14.814  0.00  0.00    +0.149 C 
ATOM      5  C   UNL     1      36.136 -24.844 -12.327  0.00  0.00    +0.172 C 
ATOM      6  C   UNL     1      35.968 -25.263 -14.666  0.00  0.00    +0.261 C 
ENDROOT
BRANCH   2   7
ATOM      7  N   UNL     1      39.534 -26.054 -13.562  0.00  0.00    +0.385 N 
ATOM      8  H   UNL     1      39.796 -26.468 -14.456  0.00  0.00    -0.089 HD
ATOM      9  H   UNL     1      39.886 -26.635 -12.802  0.00  0.00    -0.089 HD
ATOM     10  H   UNL     1      39.936 -25.118 -13.490  0.00  0.00    -0.089 HD
ENDBRANCH   2   7
BRANCH   3  11
ATOM     11  O   UNL     1      38.287 -23.741 -12.504  0.00  0.00    -0.384 OA
ATOM     12  H   UNL     1      38.378 -23.311 -11.640  0.00  0.00    +0.210 HD
ENDBRANCH   3  11
BRANCH   4  13
ATOM     13  O   UNL     1      37.644 -26.548 -15.790  0.00  0.00    -0.381 OA
ATOM     14  H   UNL     1      38.510 -26.968 -15.669  0.00  0.00    +0.210 HD
ENDBRANCH   4  13
BRANCH   6  15
ATOM     15  O   UNL     1      35.441 -24.741 -15.888  0.00  0.00    -0.329 OA
BRANCH  15  16
ATOM     16  C   UNL     1      34.750 -23.517 -15.677  0.00  0.00    +0.145 C 
BRANCH  16  17
ATOM     17  C   UNL     1      33.859 -23.242 -16.881  0.00  0.00    +0.032 C 
BRANCH  17  18
ATOM     18  C   UNL     1      32.379 -23.262 -16.503  0.00  0.00    +0.003 C 
BRANCH  18  19
ATOM     19  C   UNL     1      32.195 -23.192 -14.985  0.00  0.00    +0.000 C 
BRANCH  19  20
ATOM     20  C   UNL     1      30.737 -23.010 -14.556  0.00  0.00    +0.000 C 
BRANCH  20  21
ATOM     21  C   UNL     1      29.775 -22.834 -15.734  0.00  0.00    +0.000 C 
BRANCH  21  22
ATOM     22  C   UNL     1      28.666 -23.888 -15.704  0.00  0.00    +0.000 C 
ATOM     23  C   UNL     1      29.045 -25.069 -14.826  0.00  0.00    +0.000 C 
ENDBRANCH  21  22
ENDBRANCH  20  21
ENDBRANCH  19  20
ENDBRANCH  18  19
ENDBRANCH  17  18
ENDBRANCH  16  17
ENDBRANCH  15  16
ENDBRANCH   6  15
BRANCH   5  24
ATOM     24  C   UNL     1      35.671 -23.850 -11.269  0.00  0.00    +0.169 C 
BRANCH  24  25
ATOM     25  O   UNL     1      36.380 -24.104 -10.069  0.00  0.00    -0.379 OA
ATOM     26  H   UNL     1      37.153 -24.657 -10.262  0.00  0.00    +0.211 HD
ENDBRANCH  24  25
ENDBRANCH   5  24
TORSDOF 13
ENDMDL
MODEL 4
REMARK VINA RESULT:      -7.5      3.304      5.056
REMARK  Name = 448297
REMARK  13 active torsions:
REMARK  status: ('A' for Active; 'I' for Inactive)
REMARK    1  A    between atoms: C_2  and  N_7
REMARK    2  A    between atoms: C_3  and  O_11
REMARK    3  A    between atoms: C_4  and  O_13
REMARK    4  A    between atoms: C_5  and  C_24
REMARK    5  A    between atoms: C_6  and  O_15
REMARK    6  A    between atoms: O_15  and  C_16
REMARK    7  A    between atoms: C_16  and  C_17
REMARK    8  A    between atoms: C_17  and  C_18
REMARK    9  A    between atoms: C_18  and  C_19
REMARK   10  A    between atoms: C_19  and  C_20
REMARK   11  A    between atoms: C_20  and  C_21
REMARK   12  A    between atoms: C_21  and  C_22
REMARK   13  A    between atoms: C_24  and  O_25
REMARK                            x       y       z     vdW  Elec       q    Type
REMARK                         _______ _______ _______ _____ _____    ______ ____
ROOT
ATOM      1  O   UNL     1      32.471 -22.920 -16.760  0.00  0.00    -0.326 OA
ATOM      2  C   UNL     1      33.664 -24.124 -14.434  0.00  0.00    -0.003 C 
ATOM      3  C   UNL     1      32.222 -23.595 -14.439  0.00  0.00    +0.123 C 
ATOM      4  C   UNL     1      34.515 -23.425 -15.505  0.00  0.00    +0.149 C 
ATOM      5  C   UNL     1      31.643 -23.664 -15.859  0.00  0.00    +0.172 C 
ATOM      6  C   UNL     1      33.794 -23.446 -16.859  0.00  0.00    +0.261 C 
ENDROOT
BRANCH   2   7
ATOM      7  N   UNL     1      34.265 -23.965 -13.107  0.00  0.00    +0.385 N 
ATOM      8  H   UNL     1      34.673 -23.033 -13.028  0.00  0.00    -0.089 HD
ATOM      9  H   UNL     1      34.992 -24.667 -12.977  0.00  0.00    -0.089 HD
ATOM     10  H   UNL     1      33.545 -24.082 -12.393  0.00  0.00    -0.089 HD
ENDBRANCH   2   7
BRANCH   3  11
ATOM     11  O   UNL     1      32.187 -22.244 -13.971  0.00  0.00    -0.384 OA
ATOM     12  H   UNL     1      32.882 -21.731 -14.411  0.00  0.00    +0.210 HD
ENDBRANCH   3  11
BRANCH   4  13
ATOM     13  O   UNL     1      35.758 -24.107 -15.663  0.00  0.00    -0.381 OA
ATOM     14  H   UNL     1      36.075 -24.405 -14.796  0.00  0.00    +0.210 HD
ENDBRANCH   4  13
BRANCH   6  15
ATOM     15  O   UNL     1      34.540 -22.695 -17.819  0.00  0.00    -0.329 OA
BRANCH  15  16
ATOM     16  C   UNL     1      33.815 -22.532 -19.031  0.00  0.00    +0.145 C 
BRANCH  16  17
ATOM     17  C   UNL     1      34.319 -21.283 -19.741  0.00  0.00    +0.032 C 
BRANCH  17  18
ATOM     18  C   UNL     1      33.165 -20.438 -20.280  0.00  0.00    +0.003 C 
BRANCH  18  19
ATOM     19  C   UNL     1      33.684 -19.219 -21.047  0.00  0.00    +0.000 C 
BRANCH  19  20
ATOM     20  C   UNL     1      35.151 -19.344 -21.467  0.00  0.00    +0.000 C 
BRANCH  20  21
ATOM     21  C   UNL     1      35.497 -18.527 -22.714  0.00  0.00    +0.000 C 
BRANCH  21  22
ATOM     22  C   UNL     1      34.686 -18.994 -23.924  0.00  0.00    +0.000 C 
ATOM     23  C   UNL     1      34.593 -17.908 -24.985  0.00  0.00    +0.000 C 
ENDBRANCH  21  22
ENDBRANCH  20  21
ENDBRANCH  19  20
ENDBRANCH  18  19
ENDBRANCH  17  18
ENDBRANCH  16  17
ENDBRANCH  15  16
ENDBRANCH   6  15
BRANCH   5  24
ATOM     24  C   UNL     1      30.238 -23.079 -15.942  0.00  0.00    +0.169 C 
BRANCH  24  25
ATOM     25  O   UNL     1      30.131 -22.329 -17.139  0.00  0.00    -0.379 OA
ATOM     26  H   UNL     1      30.031 -22.935 -17.891  0.00  0.00    +0.211 HD
ENDBRANCH  24  25
ENDBRANCH   5  24
TORSDOF 13
ENDMDL
MODEL 5
REMARK VINA RESULT:      -7.4      2.930      4.684
REMARK  Name = 448297
REMARK  13 active torsions:
REMARK  status: ('A' for Active; 'I' for Inactive)
REMARK    1  A    between atoms: C_2  and  N_7
REMARK    2  A    between atoms: C_3  and  O_11
REMARK    3  A    between atoms: C_4  and  O_13
REMARK    4  A    between atoms: C_5  and  C_24
REMARK    5  A    between atoms: C_6  and  O_15
REMARK    6  A    between atoms: O_15  and  C_16
REMARK    7  A    between atoms: C_16  and  C_17
REMARK    8  A    between atoms: C_17  and  C_18
REMARK    9  A    between atoms: C_18  and  C_19
REMARK   10  A    between atoms: C_19  and  C_20
REMARK   11  A    between atoms: C_20  and  C_21
REMARK   12  A    between atoms: C_21  and  C_22
REMARK   13  A    between atoms: C_24  and  O_25
REMARK                            x       y       z     vdW  Elec       q    Type
REMARK                         _______ _______ _______ _____ _____    ______ ____
ROOT
ATOM      1  O   UNL     1      35.388 -23.351 -16.690  0.00  0.00    -0.326 OA
ATOM      2  C   UNL     1      33.136 -23.304 -14.897  0.00  0.00    -0.003 C 
ATOM      3  C   UNL     1      34.547 -23.699 -14.437  0.00  0.00    +0.123 C 
ATOM      4  C   UNL     1      32.960 -23.536 -16.405  0.00  0.00    +0.149 C 
ATOM      5  C   UNL     1      35.599 -23.008 -15.315  0.00  0.00    +0.172 C 
ATOM      6  C   UNL     1      34.124 -22.909 -17.184  0.00  0.00    +0.261 C 
ENDROOT
BRANCH   2   7
ATOM      7  N   UNL     1      32.123 -24.039 -14.136  0.00  0.00    +0.385 N 
ATOM      8  H   UNL     1      31.245 -23.520 -14.149  0.00  0.00    -0.089 HD
ATOM      9  H   UNL     1      32.438 -24.153 -13.173  0.00  0.00    -0.089 HD
ATOM     10  H   UNL     1      31.982 -24.957 -14.559  0.00  0.00    -0.089 HD
ENDBRANCH   2   7
BRANCH   3  11
ATOM     11  O   UNL     1      34.716 -25.117 -14.511  0.00  0.00    -0.384 OA
ATOM     12  H   UNL     1      35.570 -25.320 -14.922  0.00  0.00    +0.210 HD
ENDBRANCH   3  11
BRANCH   4  13
ATOM     13  O   UNL     1      31.753 -22.924 -16.857  0.00  0.00    -0.381 OA
ATOM     14  H   UNL     1      31.888 -21.967 -16.940  0.00  0.00    +0.210 HD
ENDBRANCH   4  13
BRANCH   6  15
ATOM     15  O   UNL     1      34.010 -23.229 -18.572  0.00  0.00    -0.329 OA
BRANCH  15  16
ATOM     16  C   UNL     1      34.326 -22.113 -19.392  0.00  0.00    +0.145 C 
BRANCH  16  17
ATOM     17  C   UNL     1      33.108 -21.202 -19.473  0.00  0.00    +0.032 C 
BRANCH  17  18
ATOM     18  C   UNL     1      33.239 -20.186 -20.607  0.00  0.00    +0.003 C 
BRANCH  18  19
ATOM     19  C   UNL     1      34.700 -19.784 -20.823  0.00  0.00    +0.000 C 
BRANCH  19  20
ATOM     20  C   UNL     1      34.863 -18.391 -21.439  0.00  0.00    +0.000 C 
BRANCH  20  21
ATOM     21  C   UNL     1      35.867 -18.351 -22.594  0.00  0.00    +0.000 C 
BRANCH  21  22
ATOM     22  C   UNL     1      35.189 -17.932 -23.900  0.00  0.00    +0.000 C 
ATOM     23  C   UNL     1      34.504 -19.111 -24.575  0.00  0.00    +0.000 C 
ENDBRANCH  21  22
ENDBRANCH  20  21
ENDBRANCH  19  20
ENDBRANCH  18  19
ENDBRANCH  17  18
ENDBRANCH  16  17
ENDBRANCH  15  16
ENDBRANCH   6  15
BRANCH   5  24
ATOM     24  C   UNL     1      37.021 -23.423 -14.955  0.00  0.00    +0.169 C 
BRANCH  24  25
ATOM     25  O   UNL     1      37.285 -24.685 -15.542  0.00  0.00    -0.379 OA
ATOM     26  H   UNL     1      36.620 -24.868 -16.225  0.00  0.00    +0.211 HD
ENDBRANCH  24  25
ENDBRANCH   5  24
TORSDOF 13
ENDMDL
MODEL 6
REMARK VINA RESULT:      -7.3      1.956      3.084
REMARK  Name = 448297
REMARK  13 active torsions:
REMARK  status: ('A' for Active; 'I' for Inactive)
REMARK    1  A    between atoms: C_2  and  N_7
REMARK    2  A    between atoms: C_3  and  O_11
REMARK    3  A    between atoms: C_4  and  O_13
REMARK    4  A    between atoms: C_5  and  C_24
REMARK    5  A    between atoms: C_6  and  O_15
REMARK    6  A    between atoms: O_15  and  C_16
REMARK    7  A    between atoms: C_16  and  C_17
REMARK    8  A    between atoms: C_17  and  C_18
REMARK    9  A    between atoms: C_18  and  C_19
REMARK   10  A    between atoms: C_19  and  C_20
REMARK   11  A    between atoms: C_20  and  C_21
REMARK   12  A    between atoms: C_21  and  C_22
REMARK   13  A    between atoms: C_24  and  O_25
REMARK                            x       y       z     vdW  Elec       q    Type
REMARK                         _______ _______ _______ _____ _____    ______ ____
ROOT
ATOM      1  O   UNL     1      36.683 -24.985 -14.493  0.00  0.00    -0.326 OA
ATOM      2  C   UNL     1      36.058 -24.304 -11.767  0.00  0.00    -0.003 C 
ATOM      3  C   UNL     1      37.266 -25.176 -12.142  0.00  0.00    +0.123 C 
ATOM      4  C   UNL     1      34.972 -24.368 -12.851  0.00  0.00    +0.149 C 
ATOM      5  C   UNL     1      37.752 -24.820 -13.555  0.00  0.00    +0.172 C 
ATOM      6  C   UNL     1      35.580 -24.116 -14.236  0.00  0.00    +0.261 C 
ENDROOT
BRANCH   2   7
ATOM      7  N   UNL     1      35.520 -24.706 -10.466  0.00  0.00    +0.385 N 
ATOM      8  H   UNL     1      34.511 -24.838 -10.541  0.00  0.00    -0.089 HD
ATOM      9  H   UNL     1      35.718 -23.981  -9.778  0.00  0.00    -0.089 HD
ATOM     10  H   UNL     1      35.956 -25.582 -10.174  0.00  0.00    -0.089 HD
ENDBRANCH   2   7
BRANCH   3  11
ATOM     11  O   UNL     1      36.916 -26.561 -12.089  0.00  0.00    -0.384 OA
ATOM     12  H   UNL     1      36.454 -26.809 -12.905  0.00  0.00    +0.210 HD
ENDBRANCH   3  11
BRANCH   4  13
ATOM     13  O   UNL     1      33.989 -23.360 -12.617  0.00  0.00    -0.381 OA
ATOM     14  H   UNL     1      34.178 -22.913 -11.778  0.00  0.00    +0.210 HD
ENDBRANCH   4  13
BRANCH   6  15
ATOM     15  O   UNL     1      34.584 -24.292 -15.245  0.00  0.00    -0.329 OA
BRANCH  15  16
ATOM     16  C   UNL     1      34.656 -23.272 -16.233  0.00  0.00    +0.145 C 
BRANCH  16  17
ATOM     17  C   UNL     1      33.347 -23.246 -17.009  0.00  0.00    +0.032 C 
BRANCH  17  18
ATOM     18  C   UNL     1      33.587 -23.157 -18.516  0.00  0.00    +0.003 C 
BRANCH  18  19
ATOM     19  C   UNL     1      34.491 -21.972 -18.863  0.00  0.00    +0.000 C 
BRANCH  19  20
ATOM     20  C   UNL     1      33.865 -21.005 -19.871  0.00  0.00    +0.000 C 
BRANCH  20  21
ATOM     21  C   UNL     1      34.896 -20.169 -20.633  0.00  0.00    +0.000 C 
BRANCH  21  22
ATOM     22  C   UNL     1      34.214 -19.152 -21.550  0.00  0.00    +0.000 C 
ATOM     23  C   UNL     1      34.784 -19.204 -22.959  0.00  0.00    +0.000 C 
ENDBRANCH  21  22
ENDBRANCH  20  21
ENDBRANCH  19  20
ENDBRANCH  18  19
ENDBRANCH  17  18
ENDBRANCH  16  17
ENDBRANCH  15  16
ENDBRANCH   6  15
BRANCH   5  24
ATOM     24  C   UNL     1      38.903 -25.708 -14.013  0.00  0.00    +0.169 C 
BRANCH  24  25
ATOM     25  O   UNL     1      38.364 -26.882 -14.595  0.00  0.00    -0.379 OA
ATOM     26  H   UNL     1      37.406 -26.775 -14.707  0.00  0.00    +0.211 HD
ENDBRANCH  24  25
ENDBRANCH   5  24
TORSDOF 13
ENDMDL
MODEL 7
REMARK VINA RESULT:      -7.3      7.860     11.583
REMARK  Name = 448297
REMARK  13 active torsions:
REMARK  status: ('A' for Active; 'I' for Inactive)
REMARK    1  A    between atoms: C_2  and  N_7
REMARK    2  A    between atoms: C_3  and  O_11
REMARK    3  A    between atoms: C_4  and  O_13
REMARK    4  A    between atoms: C_5  and  C_24
REMARK    5  A    between atoms: C_6  and  O_15
REMARK    6  A    between atoms: O_15  and  C_16
REMARK    7  A    between atoms: C_16  and  C_17
REMARK    8  A    between atoms: C_17  and  C_18
REMARK    9  A    between atoms: C_18  and  C_19
REMARK   10  A    between atoms: C_19  and  C_20
REMARK   11  A    between atoms: C_20  and  C_21
REMARK   12  A    between atoms: C_21  and  C_22
REMARK   13  A    between atoms: C_24  and  O_25
REMARK                            x       y       z     vdW  Elec       q    Type
REMARK                         _______ _______ _______ _____ _____    ______ ____
ROOT
ATOM      1  O   UNL     1      34.715 -16.225 -22.425  0.00  0.00    -0.326 OA
ATOM      2  C   UNL     1      33.696 -14.368 -24.373  0.00  0.00    -0.003 C 
ATOM      3  C   UNL     1      33.528 -14.151 -22.862  0.00  0.00    +0.123 C 
ATOM      4  C   UNL     1      33.885 -15.856 -24.701  0.00  0.00    +0.149 C 
ATOM      5  C   UNL     1      34.676 -14.831 -22.103  0.00  0.00    +0.172 C 
ATOM      6  C   UNL     1      34.971 -16.469 -23.808  0.00  0.00    +0.261 C 
ENDROOT
BRANCH   2   7
ATOM      7  N   UNL     1      32.551 -13.816 -25.101  0.00  0.00    +0.385 N 
ATOM      8  H   UNL     1      31.766 -14.464 -25.043  0.00  0.00    -0.089 HD
ATOM      9  H   UNL     1      32.806 -13.676 -26.079  0.00  0.00    -0.089 HD
ATOM     10  H   UNL     1      32.285 -12.921 -24.687  0.00  0.00    -0.089 HD
ENDBRANCH   2   7
BRANCH   3  11
ATOM     11  O   UNL     1      32.277 -14.684 -22.419  0.00  0.00    -0.384 OA
ATOM     12  H   UNL     1      31.760 -14.976 -23.186  0.00  0.00    +0.210 HD
ENDBRANCH   3  11
BRANCH   4  13
ATOM     13  O   UNL     1      34.300 -16.008 -26.058  0.00  0.00    -0.381 OA
ATOM     14  H   UNL     1      33.764 -16.694 -26.485  0.00  0.00    +0.210 HD
ENDBRANCH   4  13
BRANCH   6  15
ATOM     15  O   UNL     1      35.058 -17.876 -24.041  0.00  0.00    -0.329 OA
BRANCH  15  16
ATOM     16  C   UNL     1      35.647 -18.552 -22.939  0.00  0.00    +0.145 C 
BRANCH  16  17
ATOM     17  C   UNL     1      34.676 -19.611 -22.436  0.00  0.00    +0.032 C 
BRANCH  17  18
ATOM     18  C   UNL     1      34.636 -19.659 -20.909  0.00  0.00    +0.003 C 
BRANCH  18  19
ATOM     19  C   UNL     1      33.273 -20.139 -20.406  0.00  0.00    +0.000 C 
BRANCH  19  20
ATOM     20  C   UNL     1      33.354 -21.392 -19.531  0.00  0.00    +0.000 C 
BRANCH  20  21
ATOM     21  C   UNL     1      34.727 -22.067 -19.561  0.00  0.00    +0.000 C 
BRANCH  21  22
ATOM     22  C   UNL     1      35.312 -22.195 -18.153  0.00  0.00    +0.000 C 
ATOM     23  C   UNL     1      36.686 -21.551 -18.061  0.00  0.00    +0.000 C 
ENDBRANCH  21  22
ENDBRANCH  20  21
ENDBRANCH  19  20
ENDBRANCH  18  19
ENDBRANCH  17  18
ENDBRANCH  16  17
ENDBRANCH  15  16
ENDBRANCH   6  15
BRANCH   5  24
ATOM     24  C   UNL     1      34.521 -14.715 -20.591  0.00  0.00    +0.169 C 
BRANCH  24  25
ATOM     25  O   UNL     1      34.945 -15.931 -20.000  0.00  0.00    -0.379 OA
ATOM     26  H   UNL     1      34.434 -16.092 -19.191  0.00  0.00    +0.211 HD
ENDBRANCH  24  25
ENDBRANCH   5  24
TORSDOF 13
ENDMDL
MODEL 8
REMARK VINA RESULT:      -7.2      1.797      2.613
REMARK  Name = 448297
REMARK  13 active torsions:
REMARK  status: ('A' for Active; 'I' for Inactive)
REMARK    1  A    between atoms: C_2  and  N_7
REMARK    2  A    between atoms: C_3  and  O_11
REMARK    3  A    between atoms: C_4  and  O_13
REMARK    4  A    between atoms: C_5  and  C_24
REMARK    5  A    between atoms: C_6  and  O_15
REMARK    6  A    between atoms: O_15  and  C_16
REMARK    7  A    between atoms: C_16  and  C_17
REMARK    8  A    between atoms: C_17  and  C_18
REMARK    9  A    between atoms: C_18  and  C_19
REMARK   10  A    between atoms: C_19  and  C_20
REMARK   11  A    between atoms: C_20  and  C_21
REMARK   12  A    between atoms: C_21  and  C_22
REMARK   13  A    between atoms: C_24  and  O_25
REMARK                            x       y       z     vdW  Elec       q    Type
REMARK                         _______ _______ _______ _____ _____    ______ ____
ROOT
ATOM      1  O   UNL     1      35.072 -23.202 -15.125  0.00  0.00    -0.326 OA
ATOM      2  C   UNL     1      37.005 -24.740 -13.648  0.00  0.00    -0.003 C 
ATOM      3  C   UNL     1      35.576 -24.504 -13.137  0.00  0.00    +0.123 C 
ATOM      4  C   UNL     1      37.432 -23.636 -14.627  0.00  0.00    +0.149 C 
ATOM      5  C   UNL     1      34.622 -24.298 -14.321  0.00  0.00    +0.172 C 
ATOM      6  C   UNL     1      36.358 -23.428 -15.702  0.00  0.00    +0.261 C 
ENDROOT
BRANCH   2   7
ATOM      7  N   UNL     1      37.943 -24.831 -12.526  0.00  0.00    +0.385 N 
ATOM      8  H   UNL     1      38.108 -23.900 -12.144  0.00  0.00    -0.089 HD
ATOM      9  H   UNL     1      38.825 -25.227 -12.852  0.00  0.00    -0.089 HD
ATOM     10  H   UNL     1      37.548 -25.431 -11.801  0.00  0.00    -0.089 HD
ENDBRANCH   2   7
BRANCH   3  11
ATOM     11  O   UNL     1      35.536 -23.358 -12.283  0.00  0.00    -0.384 OA
ATOM     12  H   UNL     1      34.824 -23.463 -11.633  0.00  0.00    +0.210 HD
ENDBRANCH   3  11
BRANCH   4  13
ATOM     13  O   UNL     1      38.642 -24.009 -15.286  0.00  0.00    -0.381 OA
ATOM     14  H   UNL     1      39.400 -23.753 -14.739  0.00  0.00    +0.210 HD
ENDBRANCH   4  13
BRANCH   6  15
ATOM     15  O   UNL     1      36.712 -22.324 -16.537  0.00  0.00    -0.329 OA
BRANCH  15  16
ATOM     16  C   UNL     1      35.794 -22.167 -17.611  0.00  0.00    +0.145 C 
BRANCH  16  17
ATOM     17  C   UNL     1      36.488 -21.427 -18.746  0.00  0.00    +0.032 C 
BRANCH  17  18
ATOM     18  C   UNL     1      35.640 -21.423 -20.017  0.00  0.00    +0.003 C 
BRANCH  18  19
ATOM     19  C   UNL     1      34.151 -21.289 -19.689  0.00  0.00    +0.000 C 
BRANCH  19  20
ATOM     20  C   UNL     1      33.435 -20.231 -20.532  0.00  0.00    +0.000 C 
BRANCH  20  21
ATOM     21  C   UNL     1      34.360 -19.114 -21.021  0.00  0.00    +0.000 C 
BRANCH  21  22
ATOM     22  C   UNL     1      34.421 -19.077 -22.549  0.00  0.00    +0.000 C 
ATOM     23  C   UNL     1      35.716 -18.448 -23.039  0.00  0.00    +0.000 C 
ENDBRANCH  21  22
ENDBRANCH  20  21
ENDBRANCH  19  20
ENDBRANCH  18  19
ENDBRANCH  17  18
ENDBRANCH  16  17
ENDBRANCH  15  16
ENDBRANCH   6  15
BRANCH   5  24
ATOM     24  C   UNL     1      33.200 -23.982 -13.873  0.00  0.00    +0.169 C 
BRANCH  24  25
ATOM     25  O   UNL     1      32.703 -25.086 -13.138  0.00  0.00    -0.379 OA
ATOM     26  H   UNL     1      31.918 -24.813 -12.637  0.00  0.00    +0.211 HD
ENDBRANCH  24  25
ENDBRANCH   5  24
TORSDOF 13
ENDMDL
MODEL 9
REMARK VINA RESULT:      -7.2     10.834     14.466
REMARK  Name = 448297
REMARK  13 active torsions:
REMARK  status: ('A' for Active; 'I' for Inactive)
REMARK    1  A    between atoms: C_2  and  N_7
REMARK    2  A    between atoms: C_3  and  O_11
REMARK    3  A    between atoms: C_4  and  O_13
REMARK    4  A    between atoms: C_5  and  C_24
REMARK    5  A    between atoms: C_6  and  O_15
REMARK    6  A    between atoms: O_15  and  C_16
REMARK    7  A    between atoms: C_16  and  C_17
REMARK    8  A    between atoms: C_17  and  C_18
REMARK    9  A    between atoms: C_18  and  C_19
REMARK   10  A    between atoms: C_19  and  C_20
REMARK   11  A    between atoms: C_20  and  C_21
REMARK   12  A    between atoms: C_21  and  C_22
REMARK   13  A    between atoms: C_24  and  O_25
REMARK                            x       y       z     vdW  Elec       q    Type
REMARK                         _______ _______ _______ _____ _____    ______ ____
ROOT
ATOM      1  O   UNL     1      33.978 -14.159 -23.397  0.00  0.00    -0.326 OA
ATOM      2  C   UNL     1      33.867 -16.778 -24.586  0.00  0.00    -0.003 C 
ATOM      3  C   UNL     1      34.530 -16.520 -23.225  0.00  0.00    +0.123 C 
ATOM      4  C   UNL     1      33.845 -15.504 -25.442  0.00  0.00    +0.149 C 
ATOM      5  C   UNL     1      33.878 -15.307 -22.546  0.00  0.00    +0.172 C 
ATOM      6  C   UNL     1      33.287 -14.325 -24.635  0.00  0.00    +0.261 C 
ENDROOT
BRANCH   2   7
ATOM      7  N   UNL     1      34.550 -17.866 -25.291  0.00  0.00    +0.385 N 
ATOM      8  H   UNL     1      35.101 -18.409 -24.626  0.00  0.00    -0.089 HD
ATOM      9  H   UNL     1      35.164 -17.475 -26.005  0.00  0.00    -0.089 HD
ATOM     10  H   UNL     1      33.857 -18.472 -25.732  0.00  0.00    -0.089 HD
ENDBRANCH   2   7
BRANCH   3  11
ATOM     11  O   UNL     1      35.930 -16.283 -23.390  0.00  0.00    -0.384 OA
ATOM     12  H   UNL     1      36.429 -16.878 -22.809  0.00  0.00    +0.210 HD
ENDBRANCH   3  11
BRANCH   4  13
ATOM     13  O   UNL     1      33.001 -15.692 -26.578  0.00  0.00    -0.381 OA
ATOM     14  H   UNL     1      33.383 -15.237 -27.344  0.00  0.00    +0.210 HD
ENDBRANCH   4  13
BRANCH   6  15
ATOM     15  O   UNL     1      33.377 -13.122 -25.401  0.00  0.00    -0.329 OA
BRANCH  15  16
ATOM     16  C   UNL     1      33.826 -12.031 -24.609  0.00  0.00    +0.145 C 
BRANCH  16  17
ATOM     17  C   UNL     1      34.579 -11.053 -25.501  0.00  0.00    +0.032 C 
BRANCH  17  18
ATOM     18  C   UNL     1      35.278  -9.969 -24.683  0.00  0.00    +0.003 C 
BRANCH  18  19
ATOM     19  C   UNL     1      34.266  -9.118 -23.912  0.00  0.00    +0.000 C 
BRANCH  19  20
ATOM     20  C   UNL     1      34.767  -7.703 -23.608  0.00  0.00    +0.000 C 
BRANCH  20  21
ATOM     21  C   UNL     1      34.368  -6.676 -24.670  0.00  0.00    +0.000 C 
BRANCH  21  22
ATOM     22  C   UNL     1      32.903  -6.261 -24.514  0.00  0.00    +0.000 C 
ATOM     23  C   UNL     1      32.532  -5.152 -25.487  0.00  0.00    +0.000 C 
ENDBRANCH  21  22
ENDBRANCH  20  21
ENDBRANCH  19  20
ENDBRANCH  18  19
ENDBRANCH  17  18
ENDBRANCH  16  17
ENDBRANCH  15  16
ENDBRANCH   6  15
BRANCH   5  24
ATOM     24  C   UNL     1      34.547 -14.953 -21.223  0.00  0.00    +0.169 C 
BRANCH  24  25
ATOM     25  O   UNL     1      34.982 -16.151 -20.603  0.00  0.00    -0.379 OA
ATOM     26  H   UNL     1      34.714 -16.147 -19.670  0.00  0.00    +0.211 HD
ENDBRANCH  24  25
ENDBRANCH   5  24
TORSDOF 13
ENDMDL
