MODEL 1
REMARK VINA RESULT:     -11.5      0.000      0.000
REMARK  Name = 53354764
REMARK  8 active torsions:
REMARK  status: ('A' for Active; 'I' for Inactive)
REMARK    1  A    between atoms: C_1  and  C_3
REMARK    2  A    between atoms: C_1  and  O_18
REMARK    3  A    between atoms: N_2  and  C_9
REMARK    4  A    between atoms: C_9  and  C_11
REMARK    5  A    between atoms: C_11  and  O_16
REMARK    6  A    between atoms: O_18  and  C_21
REMARK    7  A    between atoms: C_23  and  O_28
REMARK    8  A    between atoms: O_28  and  C_30
REMARK                            x       y       z     vdW  Elec       q    Type
REMARK                         _______ _______ _______ _____ _____    ______ ____
ROOT
ATOM      1  C   UNL     1      33.790 -22.336 -19.733  0.00  0.00    +0.207 C 
ENDROOT
BRANCH   1   3
ATOM      2  N   UNL     1      34.323 -18.442 -21.527  0.00  0.00    +0.388 N 
ATOM      3  C   UNL     1      33.993 -20.829 -19.855  0.00  0.00    +0.040 C 
ATOM      4  C   UNL     1      35.467 -18.999 -20.790  0.00  0.00    -0.077 C 
ATOM      5  C   UNL     1      33.065 -18.676 -20.806  0.00  0.00    -0.077 C 
ATOM      6  C   UNL     1      32.821 -20.172 -20.592  0.00  0.00    -0.019 C 
ATOM      7  C   UNL     1      35.305 -20.505 -20.577  0.00  0.00    -0.019 C 
ATOM      8  H   UNL     1      34.265 -18.921 -22.425  0.00  0.00    -0.080 HD
BRANCH   2   9
ATOM      9  C   UNL     1      34.517 -17.013 -21.767  0.00  0.00    -0.050 C 
BRANCH   9  11
ATOM     10  O   UNL     1      33.462 -16.713 -25.890  0.00  0.00    -0.354 OA
ATOM     11  C   UNL     1      34.668 -16.721 -23.261  0.00  0.00    +0.074 C 
ATOM     12  C   UNL     1      34.482 -17.996 -24.097  0.00  0.00    +0.057 C 
ATOM     13  C   UNL     1      33.665 -15.650 -23.713  0.00  0.00    +0.057 C 
ATOM     14  C   UNL     1      34.467 -17.679 -25.590  0.00  0.00    +0.144 C 
ATOM     15  C   UNL     1      33.695 -15.470 -25.229  0.00  0.00    +0.144 C 
BRANCH  11  16
ATOM     16  O   UNL     1      35.986 -16.210 -23.477  0.00  0.00    -0.389 OA
ATOM     17  H   UNL     1      36.009 -15.268 -23.249  0.00  0.00    +0.210 HD
ENDBRANCH  11  16
ENDBRANCH   9  11
ENDBRANCH   2   9
ENDBRANCH   1   3
BRANCH   1  18
ATOM     18  O   UNL     1      33.002 -22.591 -18.584  0.00  0.00    -0.458 OA
BRANCH  18  21
ATOM     19  O   UNL     1      35.371 -23.471 -16.203  0.00  0.00    -0.350 OA
ATOM     20  N   UNL     1      35.001 -23.028 -17.467  0.00  0.00    -0.039 NA
ATOM     21  C   UNL     1      33.665 -22.998 -17.452  0.00  0.00    +0.267 A 
ATOM     22  C   UNL     1      33.132 -23.406 -16.214  0.00  0.00    +0.127 A 
ATOM     23  C   UNL     1      31.863 -23.568 -15.640  0.00  0.00    +0.146 C 
ATOM     24  C   UNL     1      34.255 -23.696 -15.457  0.00  0.00    +0.183 A 
ATOM     25  C   UNL     1      31.789 -24.019 -14.314  0.00  0.00    +0.037 C 
ATOM     26  C   UNL     1      34.218 -24.146 -14.141  0.00  0.00    +0.041 C 
ATOM     27  C   UNL     1      32.946 -24.302 -13.581  0.00  0.00    +0.006 C 
BRANCH  23  28
ATOM     28  O   UNL     1      30.716 -23.298 -16.334  0.00  0.00    -0.476 OA
BRANCH  28  30
ATOM     29  O   UNL     1      28.031 -21.896 -16.595  0.00  0.00    -0.350 OA
ATOM     30  C   UNL     1      29.486 -23.511 -15.651  0.00  0.00    +0.198 C 
ATOM     31  C   UNL     1      28.523 -24.214 -16.575  0.00  0.00    +0.078 C 
ATOM     32  C   UNL     1      28.793 -22.186 -15.411  0.00  0.00    +0.185 C 
ATOM     33  C   UNL     1      27.998 -23.069 -17.418  0.00  0.00    +0.146 C 
ENDBRANCH  28  30
ENDBRANCH  23  28
ENDBRANCH  18  21
ENDBRANCH   1  18
TORSDOF 8
ENDMDL
MODEL 2
REMARK VINA RESULT:     -11.2      1.471      3.989
REMARK  Name = 53354764
REMARK  8 active torsions:
REMARK  status: ('A' for Active; 'I' for Inactive)
REMARK    1  A    between atoms: C_1  and  C_3
REMARK    2  A    between atoms: C_1  and  O_18
REMARK    3  A    between atoms: N_2  and  C_9
REMARK    4  A    between atoms: C_9  and  C_11
REMARK    5  A    between atoms: C_11  and  O_16
REMARK    6  A    between atoms: O_18  and  C_21
REMARK    7  A    between atoms: C_23  and  O_28
REMARK    8  A    between atoms: O_28  and  C_30
REMARK                            x       y       z     vdW  Elec       q    Type
REMARK                         _______ _______ _______ _____ _____    ______ ____
ROOT
ATOM      1  C   UNL     1      34.457 -22.506 -19.573  0.00  0.00    +0.207 C 
ENDROOT
BRANCH   1   3
ATOM      2  N   UNL     1      34.518 -18.613 -21.445  0.00  0.00    +0.388 N 
ATOM      3  C   UNL     1      34.482 -20.988 -19.725  0.00  0.00    +0.040 C 
ATOM      4  C   UNL     1      35.725 -19.018 -20.710  0.00  0.00    -0.077 C 
ATOM      5  C   UNL     1      33.302 -18.977 -20.707  0.00  0.00    -0.077 C 
ATOM      6  C   UNL     1      33.236 -20.487 -20.463  0.00  0.00    -0.019 C 
ATOM      7  C   UNL     1      35.741 -20.529 -20.467  0.00  0.00    -0.019 C 
ATOM      8  H   UNL     1      34.509 -19.113 -22.333  0.00  0.00    -0.080 HD
BRANCH   2   9
ATOM      9  C   UNL     1      34.542 -17.176 -21.715  0.00  0.00    -0.050 C 
BRANCH   9  11
ATOM     10  O   UNL     1      33.535 -16.884 -25.850  0.00  0.00    -0.354 OA
ATOM     11  C   UNL     1      34.714 -16.898 -23.208  0.00  0.00    +0.074 C 
ATOM     12  C   UNL     1      34.509 -18.175 -24.037  0.00  0.00    +0.057 C 
ATOM     13  C   UNL     1      33.739 -15.809 -23.678  0.00  0.00    +0.057 C 
ATOM     14  C   UNL     1      34.515 -17.869 -25.532  0.00  0.00    +0.144 C 
ATOM     15  C   UNL     1      33.788 -15.641 -25.195  0.00  0.00    +0.144 C 
BRANCH  11  16
ATOM     16  O   UNL     1      36.046 -16.417 -23.415  0.00  0.00    -0.389 OA
ATOM     17  H   UNL     1      36.612 -17.150 -23.701  0.00  0.00    +0.210 HD
ENDBRANCH  11  16
ENDBRANCH   9  11
ENDBRANCH   2   9
ENDBRANCH   1   3
BRANCH   1  18
ATOM     18  O   UNL     1      34.555 -22.821 -18.196  0.00  0.00    -0.458 OA
BRANCH  18  21
ATOM     19  O   UNL     1      31.245 -22.773 -17.148  0.00  0.00    -0.350 OA
ATOM     20  N   UNL     1      32.242 -22.558 -18.092  0.00  0.00    -0.039 NA
ATOM     21  C   UNL     1      33.380 -22.923 -17.494  0.00  0.00    +0.267 A 
ATOM     22  C   UNL     1      33.171 -23.378 -16.177  0.00  0.00    +0.127 A 
ATOM     23  C   UNL     1      33.951 -23.866 -15.120  0.00  0.00    +0.146 C 
ATOM     24  C   UNL     1      31.803 -23.263 -16.007  0.00  0.00    +0.183 A 
ATOM     25  C   UNL     1      33.304 -24.218 -13.927  0.00  0.00    +0.037 C 
ATOM     26  C   UNL     1      31.127 -23.602 -14.838  0.00  0.00    +0.041 C 
ATOM     27  C   UNL     1      31.918 -24.087 -13.791  0.00  0.00    +0.006 C 
BRANCH  23  28
ATOM     28  O   UNL     1      35.308 -24.004 -15.226  0.00  0.00    -0.476 OA
BRANCH  28  30
ATOM     29  O   UNL     1      38.211 -23.963 -14.322  0.00  0.00    -0.350 OA
ATOM     30  C   UNL     1      36.105 -22.946 -14.703  0.00  0.00    +0.198 C 
ATOM     31  C   UNL     1      37.064 -22.478 -15.769  0.00  0.00    +0.078 C 
ATOM     32  C   UNL     1      37.041 -23.482 -13.640  0.00  0.00    +0.185 C 
ATOM     33  C   UNL     1      38.166 -23.514 -15.684  0.00  0.00    +0.146 C 
ENDBRANCH  28  30
ENDBRANCH  23  28
ENDBRANCH  18  21
ENDBRANCH   1  18
TORSDOF 8
ENDMDL
MODEL 3
REMARK VINA RESULT:     -10.8      1.849      4.360
REMARK  Name = 53354764
REMARK  8 active torsions:
REMARK  status: ('A' for Active; 'I' for Inactive)
REMARK    1  A    between atoms: C_1  and  C_3
REMARK    2  A    between atoms: C_1  and  O_18
REMARK    3  A    between atoms: N_2  and  C_9
REMARK    4  A    between atoms: C_9  and  C_11
REMARK    5  A    between atoms: C_11  and  O_16
REMARK    6  A    between atoms: O_18  and  C_21
REMARK    7  A    between atoms: C_23  and  O_28
REMARK    8  A    between atoms: O_28  and  C_30
REMARK                            x       y       z     vdW  Elec       q    Type
REMARK                         _______ _______ _______ _____ _____    ______ ____
ROOT
ATOM      1  C   UNL     1      35.216 -21.862 -18.499  0.00  0.00    +0.207 C 
ENDROOT
BRANCH   1   3
ATOM      2  N   UNL     1      34.674 -18.897 -21.593  0.00  0.00    +0.388 N 
ATOM      3  C   UNL     1      35.054 -21.252 -19.888  0.00  0.00    +0.040 C 
ATOM      4  C   UNL     1      33.574 -19.848 -21.382  0.00  0.00    -0.077 C 
ATOM      5  C   UNL     1      35.977 -19.573 -21.540  0.00  0.00    -0.077 C 
ATOM      6  C   UNL     1      36.186 -20.264 -20.190  0.00  0.00    -0.019 C 
ATOM      7  C   UNL     1      33.701 -20.547 -20.027  0.00  0.00    -0.019 C 
ATOM      8  H   UNL     1      34.646 -18.211 -20.839  0.00  0.00    -0.080 HD
BRANCH   2   9
ATOM      9  C   UNL     1      34.511 -18.200 -22.869  0.00  0.00    -0.050 C 
BRANCH   9  11
ATOM     10  O   UNL     1      33.660 -14.110 -22.003  0.00  0.00    -0.354 OA
ATOM     11  C   UNL     1      34.744 -16.697 -22.710  0.00  0.00    +0.074 C 
ATOM     12  C   UNL     1      33.830 -15.892 -23.645  0.00  0.00    +0.057 C 
ATOM     13  C   UNL     1      34.519 -16.259 -21.256  0.00  0.00    +0.057 C 
ATOM     14  C   UNL     1      33.941 -14.395 -23.371  0.00  0.00    +0.144 C 
ATOM     15  C   UNL     1      34.588 -14.740 -21.120  0.00  0.00    +0.144 C 
BRANCH  11  16
ATOM     16  O   UNL     1      36.108 -16.427 -23.046  0.00  0.00    -0.389 OA
ATOM     17  H   UNL     1      36.181 -16.272 -24.000  0.00  0.00    +0.210 HD
ENDBRANCH  11  16
ENDBRANCH   9  11
ENDBRANCH   2   9
ENDBRANCH   1   3
BRANCH   1  18
ATOM     18  O   UNL     1      34.443 -23.047 -18.436  0.00  0.00    -0.458 OA
BRANCH  18  21
ATOM     19  O   UNL     1      31.289 -22.671 -17.033  0.00  0.00    -0.350 OA
ATOM     20  N   UNL     1      32.192 -22.554 -18.083  0.00  0.00    -0.039 NA
ATOM     21  C   UNL     1      33.347 -23.032 -17.610  0.00  0.00    +0.267 A 
ATOM     22  C   UNL     1      33.240 -23.466 -16.274  0.00  0.00    +0.127 A 
ATOM     23  C   UNL     1      34.079 -24.032 -15.303  0.00  0.00    +0.146 C 
ATOM     24  C   UNL     1      31.916 -23.215 -15.955  0.00  0.00    +0.183 A 
ATOM     25  C   UNL     1      33.534 -24.319 -14.044  0.00  0.00    +0.037 C 
ATOM     26  C   UNL     1      31.343 -23.487 -14.717  0.00  0.00    +0.041 C 
ATOM     27  C   UNL     1      32.192 -24.051 -13.758  0.00  0.00    +0.006 C 
BRANCH  23  28
ATOM     28  O   UNL     1      35.395 -24.304 -15.555  0.00  0.00    -0.476 OA
BRANCH  28  30
ATOM     29  O   UNL     1      38.316 -23.505 -15.831  0.00  0.00    -0.350 OA
ATOM     30  C   UNL     1      36.339 -23.879 -14.579  0.00  0.00    +0.198 C 
ATOM     31  C   UNL     1      36.549 -22.391 -14.711  0.00  0.00    +0.078 C 
ATOM     32  C   UNL     1      37.710 -24.429 -14.912  0.00  0.00    +0.185 C 
ATOM     33  C   UNL     1      37.526 -22.309 -15.868  0.00  0.00    +0.146 C 
ENDBRANCH  28  30
ENDBRANCH  23  28
ENDBRANCH  18  21
ENDBRANCH   1  18
TORSDOF 8
ENDMDL
MODEL 4
REMARK VINA RESULT:     -10.5      5.269     12.117
REMARK  Name = 53354764
REMARK  8 active torsions:
REMARK  status: ('A' for Active; 'I' for Inactive)
REMARK    1  A    between atoms: C_1  and  C_3
REMARK    2  A    between atoms: C_1  and  O_18
REMARK    3  A    between atoms: N_2  and  C_9
REMARK    4  A    between atoms: C_9  and  C_11
REMARK    5  A    between atoms: C_11  and  O_16
REMARK    6  A    between atoms: O_18  and  C_21
REMARK    7  A    between atoms: C_23  and  O_28
REMARK    8  A    between atoms: O_28  and  C_30
REMARK                            x       y       z     vdW  Elec       q    Type
REMARK                         _______ _______ _______ _____ _____    ______ ____
ROOT
ATOM      1  C   UNL     1      31.915 -12.982 -20.942  0.00  0.00    +0.207 C 
ENDROOT
BRANCH   1   3
ATOM      2  N   UNL     1      34.228 -16.481 -21.977  0.00  0.00    +0.388 N 
ATOM      3  C   UNL     1      33.104 -13.846 -21.353  0.00  0.00    +0.040 C 
ATOM      4  C   UNL     1      34.568 -15.807 -20.715  0.00  0.00    -0.077 C 
ATOM      5  C   UNL     1      33.979 -15.507 -23.047  0.00  0.00    -0.077 C 
ATOM      6  C   UNL     1      32.832 -14.563 -22.679  0.00  0.00    -0.019 C 
ATOM      7  C   UNL     1      33.440 -14.874 -20.268  0.00  0.00    -0.019 C 
ATOM      8  H   UNL     1      33.369 -17.011 -21.828  0.00  0.00    -0.080 HD
BRANCH   2   9
ATOM      9  C   UNL     1      35.291 -17.407 -22.364  0.00  0.00    -0.050 C 
BRANCH   9  11
ATOM     10  O   UNL     1      34.378 -20.653 -19.750  0.00  0.00    -0.354 OA
ATOM     11  C   UNL     1      34.968 -18.835 -21.921  0.00  0.00    +0.074 C 
ATOM     12  C   UNL     1      36.047 -19.380 -20.974  0.00  0.00    +0.057 C 
ATOM     13  C   UNL     1      33.594 -18.898 -21.238  0.00  0.00    +0.057 C 
ATOM     14  C   UNL     1      35.644 -20.736 -20.402  0.00  0.00    +0.144 C 
ATOM     15  C   UNL     1      33.334 -20.282 -20.648  0.00  0.00    +0.144 C 
BRANCH  11  16
ATOM     16  O   UNL     1      34.916 -19.656 -23.091  0.00  0.00    -0.389 OA
ATOM     17  H   UNL     1      35.133 -20.571 -22.853  0.00  0.00    +0.210 HD
ENDBRANCH  11  16
ENDBRANCH   9  11
ENDBRANCH   2   9
ENDBRANCH   1   3
BRANCH   1  18
ATOM     18  O   UNL     1      31.815 -11.896 -21.845  0.00  0.00    -0.458 OA
BRANCH  18  21
ATOM     19  O   UNL     1      31.516  -9.114 -19.789  0.00  0.00    -0.350 OA
ATOM     20  N   UNL     1      31.398 -10.475 -20.046  0.00  0.00    -0.039 NA
ATOM     21  C   UNL     1      31.817 -10.634 -21.305  0.00  0.00    +0.267 A 
ATOM     22  C   UNL     1      32.212  -9.419 -21.896  0.00  0.00    +0.127 A 
ATOM     23  C   UNL     1      32.715  -8.989 -23.133  0.00  0.00    +0.146 C 
ATOM     24  C   UNL     1      32.003  -8.486 -20.895  0.00  0.00    +0.183 A 
ATOM     25  C   UNL     1      32.984  -7.623 -23.300  0.00  0.00    +0.037 C 
ATOM     26  C   UNL     1      32.257  -7.125 -21.026  0.00  0.00    +0.041 C 
ATOM     27  C   UNL     1      32.758  -6.710 -22.264  0.00  0.00    +0.006 C 
BRANCH  23  28
ATOM     28  O   UNL     1      32.944  -9.860 -24.162  0.00  0.00    -0.476 OA
BRANCH  28  30
ATOM     29  O   UNL     1      34.475 -11.467 -26.240  0.00  0.00    -0.350 OA
ATOM     30  C   UNL     1      34.055 -10.740 -24.025  0.00  0.00    +0.198 C 
ATOM     31  C   UNL     1      35.297 -10.049 -24.529  0.00  0.00    +0.078 C 
ATOM     32  C   UNL     1      33.917 -11.900 -24.989  0.00  0.00    +0.185 C 
ATOM     33  C   UNL     1      35.179 -10.236 -26.028  0.00  0.00    +0.146 C 
ENDBRANCH  28  30
ENDBRANCH  23  28
ENDBRANCH  18  21
ENDBRANCH   1  18
TORSDOF 8
ENDMDL
MODEL 5
REMARK VINA RESULT:     -10.5      1.904      3.041
REMARK  Name = 53354764
REMARK  8 active torsions:
REMARK  status: ('A' for Active; 'I' for Inactive)
REMARK    1  A    between atoms: C_1  and  C_3
REMARK    2  A    between atoms: C_1  and  O_18
REMARK    3  A    between atoms: N_2  and  C_9
REMARK    4  A    between atoms: C_9  and  C_11
REMARK    5  A    between atoms: C_11  and  O_16
REMARK    6  A    between atoms: O_18  and  C_21
REMARK    7  A    between atoms: C_23  and  O_28
REMARK    8  A    between atoms: O_28  and  C_30
REMARK                            x       y       z     vdW  Elec       q    Type
REMARK                         _______ _______ _______ _____ _____    ______ ____
ROOT
ATOM      1  C   UNL     1      34.071 -22.668 -17.261  0.00  0.00    +0.207 C 
ENDROOT
BRANCH   1   3
ATOM      2  N   UNL     1      34.558 -20.165 -20.748  0.00  0.00    +0.388 N 
ATOM      3  C   UNL     1      34.204 -22.258 -18.725  0.00  0.00    +0.040 C 
ATOM      4  C   UNL     1      33.253 -20.819 -20.575  0.00  0.00    -0.077 C 
ATOM      5  C   UNL     1      35.658 -21.086 -20.431  0.00  0.00    -0.077 C 
ATOM      6  C   UNL     1      35.558 -21.589 -18.989  0.00  0.00    -0.019 C 
ATOM      7  C   UNL     1      33.071 -21.313 -19.138  0.00  0.00    -0.019 C 
ATOM      8  H   UNL     1      34.606 -19.382 -20.098  0.00  0.00    -0.080 HD
BRANCH   2   9
ATOM      9  C   UNL     1      34.696 -19.654 -22.112  0.00  0.00    -0.050 C 
BRANCH   9  11
ATOM     10  O   UNL     1      34.348 -15.407 -22.313  0.00  0.00    -0.354 OA
ATOM     11  C   UNL     1      35.124 -18.186 -22.109  0.00  0.00    +0.074 C 
ATOM     12  C   UNL     1      34.792 -17.509 -23.447  0.00  0.00    +0.057 C 
ATOM     13  C   UNL     1      34.454 -17.423 -20.958  0.00  0.00    +0.057 C 
ATOM     14  C   UNL     1      35.065 -16.009 -23.389  0.00  0.00    +0.144 C 
ATOM     15  C   UNL     1      34.745 -15.926 -21.044  0.00  0.00    +0.144 C 
BRANCH  11  16
ATOM     16  O   UNL     1      36.539 -18.142 -21.903  0.00  0.00    -0.389 OA
ATOM     17  H   UNL     1      36.727 -17.744 -21.039  0.00  0.00    +0.210 HD
ENDBRANCH  11  16
ENDBRANCH   9  11
ENDBRANCH   2   9
ENDBRANCH   1   3
BRANCH   1  18
ATOM     18  O   UNL     1      35.073 -23.625 -16.970  0.00  0.00    -0.458 OA
BRANCH  18  21
ATOM     19  O   UNL     1      37.597 -22.754 -14.751  0.00  0.00    -0.350 OA
ATOM     20  N   UNL     1      37.066 -22.865 -16.030  0.00  0.00    -0.039 NA
ATOM     21  C   UNL     1      35.851 -23.396 -15.863  0.00  0.00    +0.267 A 
ATOM     22  C   UNL     1      35.555 -23.642 -14.507  0.00  0.00    +0.127 A 
ATOM     23  C   UNL     1      34.487 -24.160 -13.763  0.00  0.00    +0.146 C 
ATOM     24  C   UNL     1      36.694 -23.218 -13.844  0.00  0.00    +0.183 A 
ATOM     25  C   UNL     1      34.622 -24.227 -12.369  0.00  0.00    +0.037 C 
ATOM     26  C   UNL     1      36.863 -23.270 -12.464  0.00  0.00    +0.041 C 
ATOM     27  C   UNL     1      35.789 -23.790 -11.734  0.00  0.00    +0.006 C 
BRANCH  23  28
ATOM     28  O   UNL     1      33.335 -24.596 -14.358  0.00  0.00    -0.476 OA
BRANCH  28  30
ATOM     29  O   UNL     1      31.013 -22.981 -15.475  0.00  0.00    -0.350 OA
ATOM     30  C   UNL     1      32.109 -24.192 -13.758  0.00  0.00    +0.198 C 
ATOM     31  C   UNL     1      30.989 -25.042 -14.305  0.00  0.00    +0.078 C 
ATOM     32  C   UNL     1      31.729 -22.808 -14.241  0.00  0.00    +0.185 C 
ATOM     33  C   UNL     1      30.700 -24.372 -15.634  0.00  0.00    +0.146 C 
ENDBRANCH  28  30
ENDBRANCH  23  28
ENDBRANCH  18  21
ENDBRANCH   1  18
TORSDOF 8
ENDMDL
MODEL 6
REMARK VINA RESULT:     -10.3      1.467      1.953
REMARK  Name = 53354764
REMARK  8 active torsions:
REMARK  status: ('A' for Active; 'I' for Inactive)
REMARK    1  A    between atoms: C_1  and  C_3
REMARK    2  A    between atoms: C_1  and  O_18
REMARK    3  A    between atoms: N_2  and  C_9
REMARK    4  A    between atoms: C_9  and  C_11
REMARK    5  A    between atoms: C_11  and  O_16
REMARK    6  A    between atoms: O_18  and  C_21
REMARK    7  A    between atoms: C_23  and  O_28
REMARK    8  A    between atoms: O_28  and  C_30
REMARK                            x       y       z     vdW  Elec       q    Type
REMARK                         _______ _______ _______ _____ _____    ______ ____
ROOT
ATOM      1  C   UNL     1      34.189 -23.164 -18.875  0.00  0.00    +0.207 C 
ENDROOT
BRANCH   1   3
ATOM      2  N   UNL     1      34.588 -19.476 -21.090  0.00  0.00    +0.388 N 
ATOM      3  C   UNL     1      34.344 -21.674 -19.164  0.00  0.00    +0.040 C 
ATOM      4  C   UNL     1      35.753 -19.913 -20.308  0.00  0.00    -0.077 C 
ATOM      5  C   UNL     1      33.342 -19.669 -20.336  0.00  0.00    -0.077 C 
ATOM      6  C   UNL     1      33.147 -21.139 -19.957  0.00  0.00    -0.019 C 
ATOM      7  C   UNL     1      35.640 -21.392 -19.930  0.00  0.00    -0.019 C 
ATOM      8  H   UNL     1      34.539 -20.053 -21.930  0.00  0.00    -0.080 HD
BRANCH   2   9
ATOM      9  C   UNL     1      34.735 -18.077 -21.488  0.00  0.00    -0.050 C 
BRANCH   9  11
ATOM     10  O   UNL     1      34.050 -17.664 -25.678  0.00  0.00    -0.354 OA
ATOM     11  C   UNL     1      35.049 -17.958 -22.979  0.00  0.00    +0.074 C 
ATOM     12  C   UNL     1      34.431 -19.120 -23.771  0.00  0.00    +0.057 C 
ATOM     13  C   UNL     1      34.547 -16.620 -23.539  0.00  0.00    +0.057 C 
ATOM     14  C   UNL     1      34.601 -18.916 -25.274  0.00  0.00    +0.144 C 
ATOM     15  C   UNL     1      34.708 -16.561 -25.057  0.00  0.00    +0.144 C 
BRANCH  11  16
ATOM     16  O   UNL     1      36.471 -17.994 -23.133  0.00  0.00    -0.389 OA
ATOM     17  H   UNL     1      36.872 -18.374 -22.336  0.00  0.00    +0.210 HD
ENDBRANCH  11  16
ENDBRANCH   9  11
ENDBRANCH   2   9
ENDBRANCH   1   3
BRANCH   1  18
ATOM     18  O   UNL     1      33.817 -23.323 -17.519  0.00  0.00    -0.458 OA
BRANCH  18  21
ATOM     19  O   UNL     1      36.786 -22.740 -15.817  0.00  0.00    -0.350 OA
ATOM     20  N   UNL     1      36.004 -22.738 -16.965  0.00  0.00    -0.039 NA
ATOM     21  C   UNL     1      34.814 -23.209 -16.582  0.00  0.00    +0.267 A 
ATOM     22  C   UNL     1      34.778 -23.524 -15.209  0.00  0.00    +0.127 A 
ATOM     23  C   UNL     1      33.847 -24.028 -14.290  0.00  0.00    +0.146 C 
ATOM     24  C   UNL     1      36.053 -23.209 -14.770  0.00  0.00    +0.183 A 
ATOM     25  C   UNL     1      34.252 -24.191 -12.958  0.00  0.00    +0.037 C 
ATOM     26  C   UNL     1      36.489 -23.358 -13.457  0.00  0.00    +0.041 C 
ATOM     27  C   UNL     1      35.550 -23.862 -12.552  0.00  0.00    +0.006 C 
BRANCH  23  28
ATOM     28  O   UNL     1      32.572 -24.358 -14.661  0.00  0.00    -0.476 OA
BRANCH  28  30
ATOM     29  O   UNL     1      29.814 -23.430 -15.544  0.00  0.00    -0.350 OA
ATOM     30  C   UNL     1      31.512 -23.758 -13.924  0.00  0.00    +0.198 C 
ATOM     31  C   UNL     1      30.428 -24.782 -13.696  0.00  0.00    +0.078 C 
ATOM     32  C   UNL     1      30.808 -22.726 -14.780  0.00  0.00    +0.185 C 
ATOM     33  C   UNL     1      29.686 -24.758 -15.018  0.00  0.00    +0.146 C 
ENDBRANCH  28  30
ENDBRANCH  23  28
ENDBRANCH  18  21
ENDBRANCH   1  18
TORSDOF 8
ENDMDL
MODEL 7
REMARK VINA RESULT:      -9.8      5.152     11.683
REMARK  Name = 53354764
REMARK  8 active torsions:
REMARK  status: ('A' for Active; 'I' for Inactive)
REMARK    1  A    between atoms: C_1  and  C_3
REMARK    2  A    between atoms: C_1  and  O_18
REMARK    3  A    between atoms: N_2  and  C_9
REMARK    4  A    between atoms: C_9  and  C_11
REMARK    5  A    between atoms: C_11  and  O_16
REMARK    6  A    between atoms: O_18  and  C_21
REMARK    7  A    between atoms: C_23  and  O_28
REMARK    8  A    between atoms: O_28  and  C_30
REMARK                            x       y       z     vdW  Elec       q    Type
REMARK                         _______ _______ _______ _____ _____    ______ ____
ROOT
ATOM      1  C   UNL     1      33.153 -13.521 -24.292  0.00  0.00    +0.207 C 
ENDROOT
BRANCH   1   3
ATOM      2  N   UNL     1      34.705 -16.895 -22.087  0.00  0.00    +0.388 N 
ATOM      3  C   UNL     1      34.135 -14.411 -23.536  0.00  0.00    +0.040 C 
ATOM      4  C   UNL     1      34.596 -15.620 -21.364  0.00  0.00    -0.077 C 
ATOM      5  C   UNL     1      35.226 -16.691 -23.445  0.00  0.00    -0.077 C 
ATOM      6  C   UNL     1      34.320 -15.755 -24.249  0.00  0.00    -0.019 C 
ATOM      7  C   UNL     1      33.669 -14.649 -22.097  0.00  0.00    -0.019 C 
ATOM      8  H   UNL     1      33.770 -17.293 -22.165  0.00  0.00    -0.080 HD
BRANCH   2   9
ATOM      9  C   UNL     1      35.553 -17.831 -21.348  0.00  0.00    -0.050 C 
BRANCH   9  11
ATOM     10  O   UNL     1      33.631 -21.202 -19.577  0.00  0.00    -0.354 OA
ATOM     11  C   UNL     1      34.896 -19.208 -21.247  0.00  0.00    +0.074 C 
ATOM     12  C   UNL     1      35.686 -20.131 -20.307  0.00  0.00    +0.057 C 
ATOM     13  C   UNL     1      33.445 -19.087 -20.762  0.00  0.00    +0.057 C 
ATOM     14  C   UNL     1      34.945 -21.445 -20.074  0.00  0.00    +0.144 C 
ATOM     15  C   UNL     1      32.834 -20.462 -20.500  0.00  0.00    +0.144 C 
BRANCH  11  16
ATOM     16  O   UNL     1      34.877 -19.783 -22.557  0.00  0.00    -0.389 OA
ATOM     17  H   UNL     1      35.779 -20.031 -22.813  0.00  0.00    +0.210 HD
ENDBRANCH  11  16
ENDBRANCH   9  11
ENDBRANCH   2   9
ENDBRANCH   1   3
BRANCH   1  18
ATOM     18  O   UNL     1      32.984 -12.319 -23.563  0.00  0.00    -0.458 OA
BRANCH  18  21
ATOM     19  O   UNL     1      35.108 -10.111 -25.197  0.00  0.00    -0.350 OA
ATOM     20  N   UNL     1      34.594 -11.380 -24.963  0.00  0.00    -0.039 NA
ATOM     21  C   UNL     1      33.674 -11.218 -24.008  0.00  0.00    +0.267 A 
ATOM     22  C   UNL     1      33.557  -9.875 -23.598  0.00  0.00    +0.127 A 
ATOM     23  C   UNL     1      32.796  -9.140 -22.678  0.00  0.00    +0.146 C 
ATOM     24  C   UNL     1      34.488  -9.215 -24.382  0.00  0.00    +0.183 A 
ATOM     25  C   UNL     1      33.014  -7.758 -22.593  0.00  0.00    +0.037 C 
ATOM     26  C   UNL     1      34.731  -7.846 -24.323  0.00  0.00    +0.041 C 
ATOM     27  C   UNL     1      33.965  -7.125 -23.401  0.00  0.00    +0.006 C 
BRANCH  23  28
ATOM     28  O   UNL     1      31.861  -9.734 -21.876  0.00  0.00    -0.476 OA
BRANCH  28  30
ATOM     29  O   UNL     1      30.888  -9.845 -18.997  0.00  0.00    -0.350 OA
ATOM     30  C   UNL     1      32.346 -10.469 -20.758  0.00  0.00    +0.198 C 
ATOM     31  C   UNL     1      31.410 -11.619 -20.480  0.00  0.00    +0.078 C 
ATOM     32  C   UNL     1      32.219  -9.637 -19.498  0.00  0.00    +0.185 C 
ATOM     33  C   UNL     1      30.296 -10.942 -19.706  0.00  0.00    +0.146 C 
ENDBRANCH  28  30
ENDBRANCH  23  28
ENDBRANCH  18  21
ENDBRANCH   1  18
TORSDOF 8
ENDMDL
MODEL 8
REMARK VINA RESULT:      -9.8      7.079     10.638
REMARK  Name = 53354764
REMARK  8 active torsions:
REMARK  status: ('A' for Active; 'I' for Inactive)
REMARK    1  A    between atoms: C_1  and  C_3
REMARK    2  A    between atoms: C_1  and  O_18
REMARK    3  A    between atoms: N_2  and  C_9
REMARK    4  A    between atoms: C_9  and  C_11
REMARK    5  A    between atoms: C_11  and  O_16
REMARK    6  A    between atoms: O_18  and  C_21
REMARK    7  A    between atoms: C_23  and  O_28
REMARK    8  A    between atoms: O_28  and  C_30
REMARK                            x       y       z     vdW  Elec       q    Type
REMARK                         _______ _______ _______ _____ _____    ______ ____
ROOT
ATOM      1  C   UNL     1      33.035 -13.403 -24.298  0.00  0.00    +0.207 C 
ENDROOT
BRANCH   1   3
ATOM      2  N   UNL     1      32.826  -9.215 -23.257  0.00  0.00    +0.388 N 
ATOM      3  C   UNL     1      33.353 -12.078 -23.610  0.00  0.00    +0.040 C 
ATOM      4  C   UNL     1      34.037  -9.668 -23.956  0.00  0.00    -0.077 C 
ATOM      5  C   UNL     1      32.418 -10.178 -22.226  0.00  0.00    -0.077 C 
ATOM      6  C   UNL     1      32.138 -11.554 -22.836  0.00  0.00    -0.019 C 
ATOM      7  C   UNL     1      33.812 -11.026 -24.625  0.00  0.00    -0.019 C 
ATOM      8  H   UNL     1      32.074  -9.150 -23.942  0.00  0.00    -0.080 HD
BRANCH   2   9
ATOM      9  C   UNL     1      33.040  -7.894 -22.667  0.00  0.00    -0.050 C 
BRANCH   9  11
ATOM     10  O   UNL     1      30.817  -4.267 -22.993  0.00  0.00    -0.354 OA
ATOM     11  C   UNL     1      31.859  -6.966 -22.952  0.00  0.00    +0.074 C 
ATOM     12  C   UNL     1      31.419  -6.222 -21.682  0.00  0.00    +0.057 C 
ATOM     13  C   UNL     1      32.210  -5.955 -24.053  0.00  0.00    +0.057 C 
ATOM     14  C   UNL     1      30.353  -5.176 -21.996  0.00  0.00    +0.144 C 
ATOM     15  C   UNL     1      31.099  -4.922 -24.229  0.00  0.00    +0.144 C 
BRANCH  11  16
ATOM     16  O   UNL     1      30.772  -7.769 -23.421  0.00  0.00    -0.389 OA
ATOM     17  H   UNL     1      30.148  -7.213 -23.913  0.00  0.00    +0.210 HD
ENDBRANCH  11  16
ENDBRANCH   9  11
ENDBRANCH   2   9
ENDBRANCH   1   3
BRANCH   1  18
ATOM     18  O   UNL     1      34.219 -14.178 -24.348  0.00  0.00    -0.458 OA
BRANCH  18  21
ATOM     19  O   UNL     1      33.601 -17.029 -26.230  0.00  0.00    -0.350 OA
ATOM     20  N   UNL     1      33.586 -15.653 -26.038  0.00  0.00    -0.039 NA
ATOM     21  C   UNL     1      34.104 -15.462 -24.820  0.00  0.00    +0.267 A 
ATOM     22  C   UNL     1      34.464 -16.671 -24.195  0.00  0.00    +0.127 A 
ATOM     23  C   UNL     1      35.027 -17.073 -22.975  0.00  0.00    +0.146 C 
ATOM     24  C   UNL     1      34.125 -17.634 -25.129  0.00  0.00    +0.183 A 
ATOM     25  C   UNL     1      35.222 -18.444 -22.756  0.00  0.00    +0.037 C 
ATOM     26  C   UNL     1      34.304 -19.002 -24.945  0.00  0.00    +0.041 C 
ATOM     27  C   UNL     1      34.866 -19.389 -23.724  0.00  0.00    +0.006 C 
BRANCH  23  28
ATOM     28  O   UNL     1      35.384 -16.171 -22.011  0.00  0.00    -0.476 OA
BRANCH  28  30
ATOM     29  O   UNL     1      33.434 -14.259 -20.674  0.00  0.00    -0.350 OA
ATOM     30  C   UNL     1      34.703 -16.258 -20.764  0.00  0.00    +0.198 C 
ATOM     31  C   UNL     1      33.254 -16.597 -21.016  0.00  0.00    +0.078 C 
ATOM     32  C   UNL     1      34.607 -14.886 -20.131  0.00  0.00    +0.185 C 
ATOM     33  C   UNL     1      32.670 -15.247 -21.379  0.00  0.00    +0.146 C 
ENDBRANCH  28  30
ENDBRANCH  23  28
ENDBRANCH  18  21
ENDBRANCH   1  18
TORSDOF 8
ENDMDL
MODEL 9
REMARK VINA RESULT:      -9.2      4.377     11.550
REMARK  Name = 53354764
REMARK  8 active torsions:
REMARK  status: ('A' for Active; 'I' for Inactive)
REMARK    1  A    between atoms: C_1  and  C_3
REMARK    2  A    between atoms: C_1  and  O_18
REMARK    3  A    between atoms: N_2  and  C_9
REMARK    4  A    between atoms: C_9  and  C_11
REMARK    5  A    between atoms: C_11  and  O_16
REMARK    6  A    between atoms: O_18  and  C_21
REMARK    7  A    between atoms: C_23  and  O_28
REMARK    8  A    between atoms: O_28  and  C_30
REMARK                            x       y       z     vdW  Elec       q    Type
REMARK                         _______ _______ _______ _____ _____    ______ ____
ROOT
ATOM      1  C   UNL     1      32.576 -13.413 -22.507  0.00  0.00    +0.207 C 
ENDROOT
BRANCH   1   3
ATOM      2  N   UNL     1      34.657 -17.069 -21.521  0.00  0.00    +0.388 N 
ATOM      3  C   UNL     1      33.722 -14.394 -22.278  0.00  0.00    +0.040 C 
ATOM      4  C   UNL     1      34.842 -15.930 -20.610  0.00  0.00    -0.077 C 
ATOM      5  C   UNL     1      34.699 -16.636 -22.924  0.00  0.00    -0.077 C 
ATOM      6  C   UNL     1      33.610 -15.601 -23.216  0.00  0.00    -0.019 C 
ATOM      7  C   UNL     1      33.758 -14.872 -20.823  0.00  0.00    -0.019 C 
ATOM      8  H   UNL     1      33.735 -17.467 -21.343  0.00  0.00    -0.080 HD
BRANCH   2   9
ATOM      9  C   UNL     1      35.669 -18.094 -21.271  0.00  0.00    -0.050 C 
BRANCH   9  11
ATOM     10  O   UNL     1      33.803 -21.446 -19.406  0.00  0.00    -0.354 OA
ATOM     11  C   UNL     1      35.031 -19.476 -21.132  0.00  0.00    +0.074 C 
ATOM     12  C   UNL     1      35.838 -20.367 -20.176  0.00  0.00    +0.057 C 
ATOM     13  C   UNL     1      33.582 -19.363 -20.640  0.00  0.00    +0.057 C 
ATOM     14  C   UNL     1      35.117 -21.684 -19.906  0.00  0.00    +0.144 C 
ATOM     15  C   UNL     1      32.990 -20.739 -20.341  0.00  0.00    +0.144 C 
BRANCH  11  16
ATOM     16  O   UNL     1      35.011 -20.083 -22.427  0.00  0.00    -0.389 OA
ATOM     17  H   UNL     1      35.521 -19.538 -23.047  0.00  0.00    +0.210 HD
ENDBRANCH  11  16
ENDBRANCH   9  11
ENDBRANCH   2   9
ENDBRANCH   1   3
BRANCH   1  18
ATOM     18  O   UNL     1      32.204 -13.467 -23.872  0.00  0.00    -0.458 OA
BRANCH  18  21
ATOM     19  O   UNL     1      34.217 -12.719 -26.601  0.00  0.00    -0.350 OA
ATOM     20  N   UNL     1      33.339 -13.543 -25.907  0.00  0.00    -0.039 NA
ATOM     21  C   UNL     1      33.062 -12.889 -24.775  0.00  0.00    +0.267 A 
ATOM     22  C   UNL     1      33.728 -11.651 -24.694  0.00  0.00    +0.127 A 
ATOM     23  C   UNL     1      33.817 -10.585 -23.788  0.00  0.00    +0.146 C 
ATOM     24  C   UNL     1      34.447 -11.591 -25.876  0.00  0.00    +0.183 A 
ATOM     25  C   UNL     1      34.637  -9.498 -24.123  0.00  0.00    +0.037 C 
ATOM     26  C   UNL     1      35.270 -10.529 -26.240  0.00  0.00    +0.041 C 
ATOM     27  C   UNL     1      35.350  -9.473 -25.326  0.00  0.00    +0.006 C 
BRANCH  23  28
ATOM     28  O   UNL     1      33.132 -10.583 -22.604  0.00  0.00    -0.476 OA
BRANCH  28  30
ATOM     29  O   UNL     1      31.125 -10.169 -20.358  0.00  0.00    -0.350 OA
ATOM     30  C   UNL     1      31.974  -9.759 -22.532  0.00  0.00    +0.198 C 
ATOM     31  C   UNL     1      32.274  -8.561 -21.666  0.00  0.00    +0.078 C 
ATOM     32  C   UNL     1      30.888 -10.463 -21.745  0.00  0.00    +0.185 C 
ATOM     33  C   UNL     1      32.107  -9.127 -20.270  0.00  0.00    +0.146 C 
ENDBRANCH  28  30
ENDBRANCH  23  28
ENDBRANCH  18  21
ENDBRANCH   1  18
TORSDOF 8
ENDMDL
