MODEL 1
REMARK VINA RESULT:      -9.6      0.000      0.000
REMARK  Name = 46937168
REMARK  7 active torsions:
REMARK  status: ('A' for Active; 'I' for Inactive)
REMARK    1  A    between atoms: C_4  and  C_19
REMARK    2  A    between atoms: C_11  and  N_15
REMARK    3  A    between atoms: C_19  and  N_20
REMARK    4  A    between atoms: N_20  and  C_22
REMARK    5  A    between atoms: C_25  and  O_28
REMARK    6  A    between atoms: C_26  and  O_30
REMARK    7  A    between atoms: C_27  and  O_32
REMARK                            x       y       z     vdW  Elec       q    Type
REMARK                         _______ _______ _______ _____ _____    ______ ____
ROOT
ATOM      1  N   UNL     1      35.314 -17.156 -20.789  0.00  0.00    -0.281 N 
ATOM      2  N   UNL     1      35.612 -18.599 -22.781  0.00  0.00    -0.361 NA
ATOM      3  N   UNL     1      34.695 -17.981 -24.792  0.00  0.00    -0.333 N 
ATOM      4  C   UNL     1      33.671 -13.995 -23.100  0.00  0.00    +0.025 C 
ATOM      5  C   UNL     1      33.198 -14.147 -21.653  0.00  0.00    +0.008 C 
ATOM      6  C   UNL     1      33.814 -15.377 -23.761  0.00  0.00    +0.033 C 
ATOM      7  C   UNL     1      34.191 -14.982 -20.841  0.00  0.00    +0.041 C 
ATOM      8  C   UNL     1      34.481 -16.395 -22.876  0.00  0.00    +0.031 C 
ATOM      9  C   UNL     1      34.675 -16.219 -21.557  0.00  0.00    +0.028 C 
ATOM     10  C   UNL     1      34.960 -17.704 -23.467  0.00  0.00    +0.177 C 
ATOM     11  C   UNL     1      35.917 -18.352 -21.355  0.00  0.00    +0.221 C 
ATOM     12  H   UNL     1      35.368 -17.013 -19.816  0.00  0.00    +0.155 HD
ATOM     13  H   UNL     1      35.001 -18.829 -25.188  0.00  0.00    +0.145 HD
ATOM     14  H   UNL     1      34.200 -17.331 -25.342  0.00  0.00    +0.145 HD
ENDROOT
BRANCH  11  15
ATOM     15  N   UNL     1      35.777 -19.615 -20.609  0.00  0.00    -0.381 NA
ATOM     16  H   UNL     1      35.076 -20.202 -21.061  0.00  0.00    +0.124 HD
ATOM     17  H   UNL     1      35.486 -19.414 -19.651  0.00  0.00    +0.124 HD
ATOM     18  H   UNL     1      36.673 -20.104 -20.596  0.00  0.00    +0.124 HD
ENDBRANCH  11  15
BRANCH   4  19
ATOM     19  C   UNL     1      32.721 -13.107 -23.900  0.00  0.00    +0.091 C 
BRANCH  19  20
ATOM     20  N   UNL     1      33.411 -11.922 -24.332  0.00  0.00    -0.306 N 
ATOM     21  C   UNL     1      34.240 -11.988 -25.540  0.00  0.00    +0.112 C 
BRANCH  20  22
ATOM     22  C   UNL     1      33.312 -10.713 -23.623  0.00  0.00    +0.054 C 
ATOM     23  C   UNL     1      34.109  -9.626 -23.980  0.00  0.00    +0.055 C 
ATOM     24  C   UNL     1      32.417 -10.601 -22.559  0.00  0.00    +0.055 C 
ATOM     25  C   UNL     1      32.319  -9.402 -21.853  0.00  0.00    +0.177 C 
ATOM     26  C   UNL     1      34.012  -8.427 -23.275  0.00  0.00    +0.177 C 
ATOM     27  C   UNL     1      33.117  -8.315 -22.211  0.00  0.00    +0.206 C 
BRANCH  25  28
ATOM     28  O   UNL     1      31.441  -9.304 -20.816  0.00  0.00    -0.468 OA
ATOM     29  C   UNL     1      31.877  -9.798 -19.550  0.00  0.00    +0.253 C 
ENDBRANCH  25  28
BRANCH  26  30
ATOM     30  O   UNL     1      34.798  -7.374 -23.634  0.00  0.00    -0.468 OA
ATOM     31  C   UNL     1      34.427  -6.662 -24.814  0.00  0.00    +0.253 C 
ENDBRANCH  26  30
BRANCH  27  32
ATOM     32  O   UNL     1      33.023  -7.143 -21.521  0.00  0.00    -0.465 OA
ATOM     33  C   UNL     1      32.014  -6.225 -21.938  0.00  0.00    +0.253 C 
ENDBRANCH  27  32
ENDBRANCH  20  22
ENDBRANCH  19  20
ENDBRANCH   4  19
TORSDOF 7
ENDMDL
MODEL 2
REMARK VINA RESULT:      -9.6      0.073      2.415
REMARK  Name = 46937168
REMARK  7 active torsions:
REMARK  status: ('A' for Active; 'I' for Inactive)
REMARK    1  A    between atoms: C_4  and  C_19
REMARK    2  A    between atoms: C_11  and  N_15
REMARK    3  A    between atoms: C_19  and  N_20
REMARK    4  A    between atoms: N_20  and  C_22
REMARK    5  A    between atoms: C_25  and  O_28
REMARK    6  A    between atoms: C_26  and  O_30
REMARK    7  A    between atoms: C_27  and  O_32
REMARK                            x       y       z     vdW  Elec       q    Type
REMARK                         _______ _______ _______ _____ _____    ______ ____
ROOT
ATOM      1  N   UNL     1      35.292 -17.138 -20.705  0.00  0.00    -0.281 N 
ATOM      2  N   UNL     1      35.671 -18.547 -22.708  0.00  0.00    -0.361 NA
ATOM      3  N   UNL     1      34.791 -17.921 -24.734  0.00  0.00    -0.333 N 
ATOM      4  C   UNL     1      33.640 -13.981 -23.016  0.00  0.00    +0.025 C 
ATOM      5  C   UNL     1      33.135 -14.163 -21.583  0.00  0.00    +0.008 C 
ATOM      6  C   UNL     1      33.829 -15.351 -23.691  0.00  0.00    +0.033 C 
ATOM      7  C   UNL     1      34.125 -14.988 -20.757  0.00  0.00    +0.041 C 
ATOM      8  C   UNL     1      34.495 -16.366 -22.803  0.00  0.00    +0.031 C 
ATOM      9  C   UNL     1      34.653 -16.204 -21.477  0.00  0.00    +0.028 C 
ATOM     10  C   UNL     1      35.017 -17.657 -23.398  0.00  0.00    +0.177 C 
ATOM     11  C   UNL     1      35.935 -18.313 -21.272  0.00  0.00    +0.221 C 
ATOM     12  H   UNL     1      35.319 -17.008 -19.730  0.00  0.00    +0.155 HD
ATOM     13  H   UNL     1      35.125 -18.757 -25.133  0.00  0.00    +0.145 HD
ATOM     14  H   UNL     1      34.297 -17.274 -25.287  0.00  0.00    +0.145 HD
ENDROOT
BRANCH  11  15
ATOM     15  N   UNL     1      35.803 -19.589 -20.546  0.00  0.00    -0.381 NA
ATOM     16  H   UNL     1      34.846 -19.692 -20.209  0.00  0.00    +0.124 HD
ATOM     17  H   UNL     1      36.445 -19.597 -19.752  0.00  0.00    +0.124 HD
ATOM     18  H   UNL     1      36.028 -20.362 -21.173  0.00  0.00    +0.124 HD
ENDBRANCH  11  15
BRANCH   4  19
ATOM     19  C   UNL     1      32.691 -13.103 -23.828  0.00  0.00    +0.091 C 
BRANCH  19  20
ATOM     20  N   UNL     1      33.384 -11.925 -24.277  0.00  0.00    -0.306 N 
ATOM     21  C   UNL     1      34.205 -12.009 -25.490  0.00  0.00    +0.112 C 
BRANCH  20  22
ATOM     22  C   UNL     1      33.295 -10.708 -23.581  0.00  0.00    +0.054 C 
ATOM     23  C   UNL     1      32.409 -10.578 -22.513  0.00  0.00    +0.055 C 
ATOM     24  C   UNL     1      34.094  -9.629 -23.961  0.00  0.00    +0.055 C 
ATOM     25  C   UNL     1      34.004  -8.420 -23.270  0.00  0.00    +0.177 C 
ATOM     26  C   UNL     1      32.320  -9.370 -21.822  0.00  0.00    +0.177 C 
ATOM     27  C   UNL     1      33.118  -8.290 -22.202  0.00  0.00    +0.206 C 
BRANCH  25  28
ATOM     28  O   UNL     1      34.789  -7.372 -23.650  0.00  0.00    -0.468 OA
ATOM     29  C   UNL     1      34.399  -6.664 -24.825  0.00  0.00    +0.253 C 
ENDBRANCH  25  28
BRANCH  26  30
ATOM     30  O   UNL     1      31.449  -9.256 -20.782  0.00  0.00    -0.468 OA
ATOM     31  C   UNL     1      31.885  -9.748 -19.516  0.00  0.00    +0.253 C 
ENDBRANCH  26  30
BRANCH  27  32
ATOM     32  O   UNL     1      33.029  -7.109 -21.528  0.00  0.00    -0.465 OA
ATOM     33  C   UNL     1      32.034  -6.186 -21.967  0.00  0.00    +0.253 C 
ENDBRANCH  27  32
ENDBRANCH  20  22
ENDBRANCH  19  20
ENDBRANCH   4  19
TORSDOF 7
ENDMDL
MODEL 3
REMARK VINA RESULT:      -9.2      1.090      2.736
REMARK  Name = 46937168
REMARK  7 active torsions:
REMARK  status: ('A' for Active; 'I' for Inactive)
REMARK    1  A    between atoms: C_4  and  C_19
REMARK    2  A    between atoms: C_11  and  N_15
REMARK    3  A    between atoms: C_19  and  N_20
REMARK    4  A    between atoms: N_20  and  C_22
REMARK    5  A    between atoms: C_25  and  O_28
REMARK    6  A    between atoms: C_26  and  O_30
REMARK    7  A    between atoms: C_27  and  O_32
REMARK                            x       y       z     vdW  Elec       q    Type
REMARK                         _______ _______ _______ _____ _____    ______ ____
ROOT
ATOM      1  N   UNL     1      35.243 -17.196 -20.629  0.00  0.00    -0.281 N 
ATOM      2  N   UNL     1      35.784 -18.294 -22.784  0.00  0.00    -0.361 NA
ATOM      3  N   UNL     1      34.860 -17.511 -24.734  0.00  0.00    -0.333 N 
ATOM      4  C   UNL     1      33.288 -13.959 -22.562  0.00  0.00    +0.025 C 
ATOM      5  C   UNL     1      32.792 -14.372 -21.174  0.00  0.00    +0.008 C 
ATOM      6  C   UNL     1      33.625 -15.206 -23.399  0.00  0.00    +0.033 C 
ATOM      7  C   UNL     1      33.857 -15.189 -20.437  0.00  0.00    +0.041 C 
ATOM      8  C   UNL     1      34.387 -16.252 -22.630  0.00  0.00    +0.031 C 
ATOM      9  C   UNL     1      34.516 -16.243 -21.292  0.00  0.00    +0.028 C 
ATOM     10  C   UNL     1      35.046 -17.396 -23.371  0.00  0.00    +0.177 C 
ATOM     11  C   UNL     1      36.010 -18.218 -21.324  0.00  0.00    +0.221 C 
ATOM     12  H   UNL     1      35.247 -17.188 -19.645  0.00  0.00    +0.155 HD
ATOM     13  H   UNL     1      35.283 -18.250 -25.227  0.00  0.00    +0.145 HD
ATOM     14  H   UNL     1      34.305 -16.854 -25.212  0.00  0.00    +0.145 HD
ENDROOT
BRANCH  11  15
ATOM     15  N   UNL     1      36.007 -19.582 -20.766  0.00  0.00    -0.381 NA
ATOM     16  H   UNL     1      35.048 -19.925 -20.710  0.00  0.00    +0.124 HD
ATOM     17  H   UNL     1      36.418 -19.568 -19.832  0.00  0.00    +0.124 HD
ATOM     18  H   UNL     1      36.553 -20.197 -21.369  0.00  0.00    +0.124 HD
ENDBRANCH  11  15
BRANCH   4  19
ATOM     19  C   UNL     1      32.259 -13.088 -23.278  0.00  0.00    +0.091 C 
BRANCH  19  20
ATOM     20  N   UNL     1      32.075 -11.858 -22.554  0.00  0.00    -0.306 N 
ATOM     21  C   UNL     1      31.115 -11.829 -21.446  0.00  0.00    +0.112 C 
BRANCH  20  22
ATOM     22  C   UNL     1      32.787 -10.694 -22.888  0.00  0.00    +0.054 C 
ATOM     23  C   UNL     1      32.443  -9.475 -22.307  0.00  0.00    +0.055 C 
ATOM     24  C   UNL     1      33.837 -10.759 -23.804  0.00  0.00    +0.055 C 
ATOM     25  C   UNL     1      34.543  -9.603 -24.138  0.00  0.00    +0.177 C 
ATOM     26  C   UNL     1      33.149  -8.319 -22.640  0.00  0.00    +0.177 C 
ATOM     27  C   UNL     1      34.199  -8.384 -23.556  0.00  0.00    +0.206 C 
BRANCH  25  28
ATOM     28  O   UNL     1      35.567  -9.679 -25.034  0.00  0.00    -0.468 OA
ATOM     29  C   UNL     1      35.374 -10.523 -26.168  0.00  0.00    +0.253 C 
ENDBRANCH  25  28
BRANCH  26  30
ATOM     30  O   UNL     1      32.802  -7.134 -22.065  0.00  0.00    -0.468 OA
ATOM     31  C   UNL     1      32.361  -7.176 -20.709  0.00  0.00    +0.253 C 
ENDBRANCH  26  30
BRANCH  27  32
ATOM     32  O   UNL     1      34.887  -7.253 -23.882  0.00  0.00    -0.465 OA
ATOM     33  C   UNL     1      34.394  -6.489 -24.981  0.00  0.00    +0.253 C 
ENDBRANCH  27  32
ENDBRANCH  20  22
ENDBRANCH  19  20
ENDBRANCH   4  19
TORSDOF 7
ENDMDL
MODEL 4
REMARK VINA RESULT:      -9.1      3.263      6.263
REMARK  Name = 46937168
REMARK  7 active torsions:
REMARK  status: ('A' for Active; 'I' for Inactive)
REMARK    1  A    between atoms: C_4  and  C_19
REMARK    2  A    between atoms: C_11  and  N_15
REMARK    3  A    between atoms: C_19  and  N_20
REMARK    4  A    between atoms: N_20  and  C_22
REMARK    5  A    between atoms: C_25  and  O_28
REMARK    6  A    between atoms: C_26  and  O_30
REMARK    7  A    between atoms: C_27  and  O_32
REMARK                            x       y       z     vdW  Elec       q    Type
REMARK                         _______ _______ _______ _____ _____    ______ ____
ROOT
ATOM      1  N   UNL     1      35.217 -22.193 -18.877  0.00  0.00    -0.281 N 
ATOM      2  N   UNL     1      32.776 -21.804 -19.057  0.00  0.00    -0.361 NA
ATOM      3  N   UNL     1      31.986 -20.007 -20.247  0.00  0.00    -0.333 N 
ATOM      4  C   UNL     1      36.088 -19.220 -21.782  0.00  0.00    +0.025 C 
ATOM      5  C   UNL     1      37.116 -19.467 -20.676  0.00  0.00    +0.008 C 
ATOM      6  C   UNL     1      34.662 -19.273 -21.205  0.00  0.00    +0.033 C 
ATOM      7  C   UNL     1      36.898 -20.835 -20.024  0.00  0.00    +0.041 C 
ATOM      8  C   UNL     1      34.449 -20.414 -20.247  0.00  0.00    +0.031 C 
ATOM      9  C   UNL     1      35.452 -21.141 -19.723  0.00  0.00    +0.028 C 
ATOM     10  C   UNL     1      33.044 -20.783 -19.820  0.00  0.00    +0.177 C 
ATOM     11  C   UNL     1      33.875 -22.665 -18.569  0.00  0.00    +0.221 C 
ATOM     12  H   UNL     1      35.985 -22.648 -18.463  0.00  0.00    +0.155 HD
ATOM     13  H   UNL     1      31.067 -20.236 -19.977  0.00  0.00    +0.145 HD
ATOM     14  H   UNL     1      32.149 -19.225 -20.822  0.00  0.00    +0.145 HD
ENDROOT
BRANCH  11  15
ATOM     15  N   UNL     1      33.588 -23.071 -17.182  0.00  0.00    -0.381 NA
ATOM     16  H   UNL     1      33.270 -22.261 -16.649  0.00  0.00    +0.124 HD
ATOM     17  H   UNL     1      34.435 -23.447 -16.756  0.00  0.00    +0.124 HD
ATOM     18  H   UNL     1      32.860 -23.786 -17.181  0.00  0.00    +0.124 HD
ENDBRANCH  11  15
BRANCH   4  19
ATOM     19  C   UNL     1      36.340 -17.887 -22.482  0.00  0.00    +0.091 C 
BRANCH  19  20
ATOM     20  N   UNL     1      35.267 -17.610 -23.399  0.00  0.00    -0.306 N 
ATOM     21  C   UNL     1      34.956 -18.595 -24.440  0.00  0.00    +0.112 C 
BRANCH  20  22
ATOM     22  C   UNL     1      34.522 -16.422 -23.322  0.00  0.00    +0.054 C 
ATOM     23  C   UNL     1      34.257 -15.843 -22.082  0.00  0.00    +0.055 C 
ATOM     24  C   UNL     1      34.045 -15.822 -24.488  0.00  0.00    +0.055 C 
ATOM     25  C   UNL     1      33.303 -14.642 -24.412  0.00  0.00    +0.177 C 
ATOM     26  C   UNL     1      33.516 -14.664 -22.005  0.00  0.00    +0.177 C 
ATOM     27  C   UNL     1      33.039 -14.064 -23.171  0.00  0.00    +0.206 C 
BRANCH  25  28
ATOM     28  O   UNL     1      32.843 -14.066 -25.557  0.00  0.00    -0.468 OA
ATOM     29  C   UNL     1      32.926 -14.842 -26.752  0.00  0.00    +0.253 C 
ENDBRANCH  25  28
BRANCH  26  30
ATOM     30  O   UNL     1      33.263 -14.110 -20.787  0.00  0.00    -0.468 OA
ATOM     31  C   UNL     1      32.400 -14.836 -19.913  0.00  0.00    +0.253 C 
ENDBRANCH  26  30
BRANCH  27  32
ATOM     32  O   UNL     1      32.313 -12.912 -23.095  0.00  0.00    -0.465 OA
ATOM     33  C   UNL     1      33.016 -11.689 -23.302  0.00  0.00    +0.253 C 
ENDBRANCH  27  32
ENDBRANCH  20  22
ENDBRANCH  19  20
ENDBRANCH   4  19
TORSDOF 7
ENDMDL
MODEL 5
REMARK VINA RESULT:      -9.1      3.249      5.922
REMARK  Name = 46937168
REMARK  7 active torsions:
REMARK  status: ('A' for Active; 'I' for Inactive)
REMARK    1  A    between atoms: C_4  and  C_19
REMARK    2  A    between atoms: C_11  and  N_15
REMARK    3  A    between atoms: C_19  and  N_20
REMARK    4  A    between atoms: N_20  and  C_22
REMARK    5  A    between atoms: C_25  and  O_28
REMARK    6  A    between atoms: C_26  and  O_30
REMARK    7  A    between atoms: C_27  and  O_32
REMARK                            x       y       z     vdW  Elec       q    Type
REMARK                         _______ _______ _______ _____ _____    ______ ____
ROOT
ATOM      1  N   UNL     1      35.224 -22.207 -18.867  0.00  0.00    -0.281 N 
ATOM      2  N   UNL     1      32.779 -21.835 -19.034  0.00  0.00    -0.361 NA
ATOM      3  N   UNL     1      31.971 -20.046 -20.224  0.00  0.00    -0.333 N 
ATOM      4  C   UNL     1      36.060 -19.234 -21.782  0.00  0.00    +0.025 C 
ATOM      5  C   UNL     1      37.095 -19.472 -20.681  0.00  0.00    +0.008 C 
ATOM      6  C   UNL     1      34.638 -19.295 -21.197  0.00  0.00    +0.033 C 
ATOM      7  C   UNL     1      36.890 -20.840 -20.026  0.00  0.00    +0.041 C 
ATOM      8  C   UNL     1      34.437 -20.436 -20.236  0.00  0.00    +0.031 C 
ATOM      9  C   UNL     1      35.447 -21.155 -19.716  0.00  0.00    +0.028 C 
ATOM     10  C   UNL     1      33.037 -20.813 -19.801  0.00  0.00    +0.177 C 
ATOM     11  C   UNL     1      33.887 -22.687 -18.551  0.00  0.00    +0.221 C 
ATOM     12  H   UNL     1      35.997 -22.656 -18.456  0.00  0.00    +0.155 HD
ATOM     13  H   UNL     1      31.056 -20.280 -19.948  0.00  0.00    +0.145 HD
ATOM     14  H   UNL     1      32.126 -19.263 -20.801  0.00  0.00    +0.145 HD
ENDROOT
BRANCH  11  15
ATOM     15  N   UNL     1      33.610 -23.092 -17.162  0.00  0.00    -0.381 NA
ATOM     16  H   UNL     1      34.380 -22.799 -16.561  0.00  0.00    +0.124 HD
ATOM     17  H   UNL     1      33.512 -24.107 -17.117  0.00  0.00    +0.124 HD
ATOM     18  H   UNL     1      32.745 -22.653 -16.846  0.00  0.00    +0.124 HD
ENDBRANCH  11  15
BRANCH   4  19
ATOM     19  C   UNL     1      36.299 -17.901 -22.486  0.00  0.00    +0.091 C 
BRANCH  19  20
ATOM     20  N   UNL     1      35.212 -17.625 -23.386  0.00  0.00    -0.306 N 
ATOM     21  C   UNL     1      34.863 -18.625 -24.400  0.00  0.00    +0.112 C 
BRANCH  20  22
ATOM     22  C   UNL     1      34.487 -16.423 -23.317  0.00  0.00    +0.054 C 
ATOM     23  C   UNL     1      34.074 -15.789 -24.488  0.00  0.00    +0.055 C 
ATOM     24  C   UNL     1      34.181 -15.865 -22.075  0.00  0.00    +0.055 C 
ATOM     25  C   UNL     1      33.462 -14.671 -22.007  0.00  0.00    +0.177 C 
ATOM     26  C   UNL     1      33.355 -14.595 -24.419  0.00  0.00    +0.177 C 
ATOM     27  C   UNL     1      33.050 -14.037 -23.178  0.00  0.00    +0.206 C 
BRANCH  25  28
ATOM     28  O   UNL     1      33.170 -14.135 -20.789  0.00  0.00    -0.468 OA
ATOM     29  C   UNL     1      32.421 -14.947 -19.886  0.00  0.00    +0.253 C 
ENDBRANCH  25  28
BRANCH  26  30
ATOM     30  O   UNL     1      32.959 -13.985 -25.571  0.00  0.00    -0.468 OA
ATOM     31  C   UNL     1      32.924 -14.788 -26.749  0.00  0.00    +0.253 C 
ENDBRANCH  26  30
BRANCH  27  32
ATOM     32  O   UNL     1      32.349 -12.869 -23.112  0.00  0.00    -0.465 OA
ATOM     33  C   UNL     1      33.079 -11.663 -23.327  0.00  0.00    +0.253 C 
ENDBRANCH  27  32
ENDBRANCH  20  22
ENDBRANCH  19  20
ENDBRANCH   4  19
TORSDOF 7
ENDMDL
MODEL 6
REMARK VINA RESULT:      -9.1      1.078      2.028
REMARK  Name = 46937168
REMARK  7 active torsions:
REMARK  status: ('A' for Active; 'I' for Inactive)
REMARK    1  A    between atoms: C_4  and  C_19
REMARK    2  A    between atoms: C_11  and  N_15
REMARK    3  A    between atoms: C_19  and  N_20
REMARK    4  A    between atoms: N_20  and  C_22
REMARK    5  A    between atoms: C_25  and  O_28
REMARK    6  A    between atoms: C_26  and  O_30
REMARK    7  A    between atoms: C_27  and  O_32
REMARK                            x       y       z     vdW  Elec       q    Type
REMARK                         _______ _______ _______ _____ _____    ______ ____
ROOT
ATOM      1  N   UNL     1      35.276 -17.242 -20.787  0.00  0.00    -0.281 N 
ATOM      2  N   UNL     1      35.778 -18.285 -22.979  0.00  0.00    -0.361 NA
ATOM      3  N   UNL     1      34.833 -17.441 -24.893  0.00  0.00    -0.333 N 
ATOM      4  C   UNL     1      33.320 -13.938 -22.602  0.00  0.00    +0.025 C 
ATOM      5  C   UNL     1      32.841 -14.386 -21.220  0.00  0.00    +0.008 C 
ATOM      6  C   UNL     1      33.636 -15.164 -23.478  0.00  0.00    +0.033 C 
ATOM      7  C   UNL     1      33.909 -15.230 -20.520  0.00  0.00    +0.041 C 
ATOM      8  C   UNL     1      34.399 -16.237 -22.750  0.00  0.00    +0.031 C 
ATOM      9  C   UNL     1      34.547 -16.265 -21.413  0.00  0.00    +0.028 C 
ATOM     10  C   UNL     1      35.038 -17.365 -23.531  0.00  0.00    +0.177 C 
ATOM     11  C   UNL     1      36.025 -18.251 -21.521  0.00  0.00    +0.221 C 
ATOM     12  H   UNL     1      35.295 -17.262 -19.804  0.00  0.00    +0.155 HD
ATOM     13  H   UNL     1      35.243 -18.170 -25.413  0.00  0.00    +0.145 HD
ATOM     14  H   UNL     1      34.276 -16.767 -25.346  0.00  0.00    +0.145 HD
ENDROOT
BRANCH  11  15
ATOM     15  N   UNL     1      36.019 -19.629 -21.001  0.00  0.00    -0.381 NA
ATOM     16  H   UNL     1      36.429 -20.257 -21.693  0.00  0.00    +0.124 HD
ATOM     17  H   UNL     1      35.058 -19.916 -20.809  0.00  0.00    +0.124 HD
ATOM     18  H   UNL     1      36.564 -19.670 -20.140  0.00  0.00    +0.124 HD
ENDBRANCH  11  15
BRANCH   4  19
ATOM     19  C   UNL     1      32.289 -13.040 -23.279  0.00  0.00    +0.091 C 
BRANCH  19  20
ATOM     20  N   UNL     1      32.133 -11.825 -22.525  0.00  0.00    -0.306 N 
ATOM     21  C   UNL     1      31.235 -11.824 -21.366  0.00  0.00    +0.112 C 
BRANCH  20  22
ATOM     22  C   UNL     1      32.813 -10.648 -22.878  0.00  0.00    +0.054 C 
ATOM     23  C   UNL     1      33.796 -10.679 -23.867  0.00  0.00    +0.055 C 
ATOM     24  C   UNL     1      32.507  -9.448 -22.236  0.00  0.00    +0.055 C 
ATOM     25  C   UNL     1      33.184  -8.278 -22.584  0.00  0.00    +0.177 C 
ATOM     26  C   UNL     1      34.472  -9.510 -24.216  0.00  0.00    +0.177 C 
ATOM     27  C   UNL     1      34.166  -8.310 -23.574  0.00  0.00    +0.206 C 
BRANCH  25  28
ATOM     28  O   UNL     1      32.876  -7.112 -21.951  0.00  0.00    -0.468 OA
ATOM     29  C   UNL     1      32.372  -7.212 -20.620  0.00  0.00    +0.253 C 
ENDBRANCH  25  28
BRANCH  26  30
ATOM     30  O   UNL     1      35.430  -9.555 -25.182  0.00  0.00    -0.468 OA
ATOM     31  C   UNL     1      35.372 -10.644 -26.102  0.00  0.00    +0.253 C 
ENDBRANCH  26  30
BRANCH  27  32
ATOM     32  O   UNL     1      34.829  -7.168 -23.914  0.00  0.00    -0.465 OA
ATOM     33  C   UNL     1      34.296  -6.408 -24.997  0.00  0.00    +0.253 C 
ENDBRANCH  27  32
ENDBRANCH  20  22
ENDBRANCH  19  20
ENDBRANCH   4  19
TORSDOF 7
ENDMDL
MODEL 7
REMARK VINA RESULT:      -8.9      6.094     10.647
REMARK  Name = 46937168
REMARK  7 active torsions:
REMARK  status: ('A' for Active; 'I' for Inactive)
REMARK    1  A    between atoms: C_4  and  C_19
REMARK    2  A    between atoms: C_11  and  N_15
REMARK    3  A    between atoms: C_19  and  N_20
REMARK    4  A    between atoms: N_20  and  C_22
REMARK    5  A    between atoms: C_25  and  O_28
REMARK    6  A    between atoms: C_26  and  O_30
REMARK    7  A    between atoms: C_27  and  O_32
REMARK                            x       y       z     vdW  Elec       q    Type
REMARK                         _______ _______ _______ _____ _____    ______ ____
ROOT
ATOM      1  N   UNL     1      34.018 -13.724 -22.525  0.00  0.00    -0.281 N 
ATOM      2  N   UNL     1      33.644 -14.251 -24.918  0.00  0.00    -0.361 NA
ATOM      3  N   UNL     1      33.948 -16.395 -25.681  0.00  0.00    -0.333 N 
ATOM      4  C   UNL     1      34.364 -17.827 -21.488  0.00  0.00    +0.025 C 
ATOM      5  C   UNL     1      35.154 -16.809 -20.664  0.00  0.00    +0.008 C 
ATOM      6  C   UNL     1      34.405 -17.451 -22.980  0.00  0.00    +0.033 C 
ATOM      7  C   UNL     1      34.574 -15.403 -20.835  0.00  0.00    +0.041 C 
ATOM      8  C   UNL     1      34.193 -15.983 -23.231  0.00  0.00    +0.031 C 
ATOM      9  C   UNL     1      34.247 -15.049 -22.264  0.00  0.00    +0.028 C 
ATOM     10  C   UNL     1      33.914 -15.494 -24.636  0.00  0.00    +0.177 C 
ATOM     11  C   UNL     1      33.599 -13.245 -23.834  0.00  0.00    +0.221 C 
ATOM     12  H   UNL     1      34.140 -13.071 -21.800  0.00  0.00    +0.155 HD
ATOM     13  H   UNL     1      33.768 -16.089 -26.599  0.00  0.00    +0.145 HD
ATOM     14  H   UNL     1      34.152 -17.342 -25.508  0.00  0.00    +0.145 HD
ENDROOT
BRANCH  11  15
ATOM     15  N   UNL     1      34.181 -11.984 -24.326  0.00  0.00    -0.381 NA
ATOM     16  H   UNL     1      35.108 -11.854 -23.920  0.00  0.00    +0.124 HD
ATOM     17  H   UNL     1      33.580 -11.204 -24.055  0.00  0.00    +0.124 HD
ATOM     18  H   UNL     1      34.256 -12.017 -25.343  0.00  0.00    +0.124 HD
ENDBRANCH  11  15
BRANCH   4  19
ATOM     19  C   UNL     1      34.893 -19.243 -21.271  0.00  0.00    +0.091 C 
BRANCH  19  20
ATOM     20  N   UNL     1      33.864 -20.063 -20.692  0.00  0.00    -0.306 N 
ATOM     21  C   UNL     1      32.486 -19.908 -21.169  0.00  0.00    +0.112 C 
BRANCH  20  22
ATOM     22  C   UNL     1      34.149 -20.998 -19.683  0.00  0.00    +0.054 C 
ATOM     23  C   UNL     1      35.454 -21.141 -19.212  0.00  0.00    +0.055 C 
ATOM     24  C   UNL     1      33.126 -21.785 -19.154  0.00  0.00    +0.055 C 
ATOM     25  C   UNL     1      33.409 -22.716 -18.153  0.00  0.00    +0.177 C 
ATOM     26  C   UNL     1      35.737 -22.071 -18.212  0.00  0.00    +0.177 C 
ATOM     27  C   UNL     1      34.714 -22.858 -17.682  0.00  0.00    +0.206 C 
BRANCH  25  28
ATOM     28  O   UNL     1      32.402 -23.479 -17.644  0.00  0.00    -0.468 OA
ATOM     29  C   UNL     1      31.491 -22.838 -16.752  0.00  0.00    +0.253 C 
ENDBRANCH  25  28
BRANCH  26  30
ATOM     30  O   UNL     1      37.016 -22.201 -17.762  0.00  0.00    -0.468 OA
ATOM     31  C   UNL     1      37.448 -21.279 -16.763  0.00  0.00    +0.253 C 
ENDBRANCH  26  30
BRANCH  27  32
ATOM     32  O   UNL     1      34.992 -23.767 -16.705  0.00  0.00    -0.465 OA
ATOM     33  C   UNL     1      34.851 -23.330 -15.355  0.00  0.00    +0.253 C 
ENDBRANCH  27  32
ENDBRANCH  20  22
ENDBRANCH  19  20
ENDBRANCH   4  19
TORSDOF 7
ENDMDL
MODEL 8
REMARK VINA RESULT:      -8.6      6.751     11.594
REMARK  Name = 46937168
REMARK  7 active torsions:
REMARK  status: ('A' for Active; 'I' for Inactive)
REMARK    1  A    between atoms: C_4  and  C_19
REMARK    2  A    between atoms: C_11  and  N_15
REMARK    3  A    between atoms: C_19  and  N_20
REMARK    4  A    between atoms: N_20  and  C_22
REMARK    5  A    between atoms: C_25  and  O_28
REMARK    6  A    between atoms: C_26  and  O_30
REMARK    7  A    between atoms: C_27  and  O_32
REMARK                            x       y       z     vdW  Elec       q    Type
REMARK                         _______ _______ _______ _____ _____    ______ ____
ROOT
ATOM      1  N   UNL     1      34.901 -15.731 -23.592  0.00  0.00    -0.281 N 
ATOM      2  N   UNL     1      33.413 -14.518 -22.025  0.00  0.00    -0.361 NA
ATOM      3  N   UNL     1      32.371 -15.653 -20.323  0.00  0.00    -0.333 N 
ATOM      4  C   UNL     1      34.823 -19.255 -21.224  0.00  0.00    +0.025 C 
ATOM      5  C   UNL     1      34.987 -19.410 -22.738  0.00  0.00    +0.008 C 
ATOM      6  C   UNL     1      33.799 -18.149 -20.911  0.00  0.00    +0.033 C 
ATOM      7  C   UNL     1      35.467 -18.101 -23.370  0.00  0.00    +0.041 C 
ATOM      8  C   UNL     1      33.974 -16.918 -21.759  0.00  0.00    +0.031 C 
ATOM      9  C   UNL     1      34.742 -16.879 -22.862  0.00  0.00    +0.028 C 
ATOM     10  C   UNL     1      33.251 -15.641 -21.385  0.00  0.00    +0.177 C 
ATOM     11  C   UNL     1      34.342 -14.454 -23.174  0.00  0.00    +0.221 C 
ATOM     12  H   UNL     1      35.414 -15.770 -24.430  0.00  0.00    +0.155 HD
ATOM     13  H   UNL     1      31.895 -14.829 -20.070  0.00  0.00    +0.145 HD
ATOM     14  H   UNL     1      32.219 -16.484 -19.818  0.00  0.00    +0.145 HD
ENDROOT
BRANCH  11  15
ATOM     15  N   UNL     1      33.764 -13.581 -24.211  0.00  0.00    -0.381 NA
ATOM     16  H   UNL     1      34.506 -13.035 -24.649  0.00  0.00    +0.124 HD
ATOM     17  H   UNL     1      33.085 -12.950 -23.784  0.00  0.00    +0.124 HD
ATOM     18  H   UNL     1      33.300 -14.153 -24.917  0.00  0.00    +0.124 HD
ENDBRANCH  11  15
BRANCH   4  19
ATOM     19  C   UNL     1      34.410 -20.575 -20.577  0.00  0.00    +0.091 C 
BRANCH  19  20
ATOM     20  N   UNL     1      35.456 -21.036 -19.704  0.00  0.00    -0.306 N 
ATOM     21  C   UNL     1      36.846 -20.699 -20.029  0.00  0.00    +0.112 C 
BRANCH  20  22
ATOM     22  C   UNL     1      35.176 -21.801 -18.560  0.00  0.00    +0.054 C 
ATOM     23  C   UNL     1      33.928 -22.405 -18.412  0.00  0.00    +0.055 C 
ATOM     24  C   UNL     1      36.147 -21.956 -17.570  0.00  0.00    +0.055 C 
ATOM     25  C   UNL     1      35.868 -22.714 -16.433  0.00  0.00    +0.177 C 
ATOM     26  C   UNL     1      33.649 -23.164 -17.276  0.00  0.00    +0.177 C 
ATOM     27  C   UNL     1      34.620 -23.318 -16.286  0.00  0.00    +0.206 C 
BRANCH  25  28
ATOM     28  O   UNL     1      36.824 -22.858 -15.473  0.00  0.00    -0.468 OA
ATOM     29  C   UNL     1      37.355 -24.167 -15.277  0.00  0.00    +0.253 C 
ENDBRANCH  25  28
BRANCH  26  30
ATOM     30  O   UNL     1      32.425 -23.747 -17.144  0.00  0.00    -0.468 OA
ATOM     31  C   UNL     1      31.351 -22.909 -16.723  0.00  0.00    +0.253 C 
ENDBRANCH  26  30
BRANCH  27  32
ATOM     32  O   UNL     1      34.346 -24.059 -15.174  0.00  0.00    -0.465 OA
ATOM     33  C   UNL     1      33.746 -23.377 -14.075  0.00  0.00    +0.253 C 
ENDBRANCH  27  32
ENDBRANCH  20  22
ENDBRANCH  19  20
ENDBRANCH   4  19
TORSDOF 7
ENDMDL
MODEL 9
REMARK VINA RESULT:      -8.5      5.172      8.555
REMARK  Name = 46937168
REMARK  7 active torsions:
REMARK  status: ('A' for Active; 'I' for Inactive)
REMARK    1  A    between atoms: C_4  and  C_19
REMARK    2  A    between atoms: C_11  and  N_15
REMARK    3  A    between atoms: C_19  and  N_20
REMARK    4  A    between atoms: N_20  and  C_22
REMARK    5  A    between atoms: C_25  and  O_28
REMARK    6  A    between atoms: C_26  and  O_30
REMARK    7  A    between atoms: C_27  and  O_32
REMARK                            x       y       z     vdW  Elec       q    Type
REMARK                         _______ _______ _______ _____ _____    ______ ____
ROOT
ATOM      1  N   UNL     1      34.333 -23.916 -15.839  0.00  0.00    -0.281 N 
ATOM      2  N   UNL     1      36.624 -23.450 -15.019  0.00  0.00    -0.361 NA
ATOM      3  N   UNL     1      38.080 -22.236 -16.314  0.00  0.00    -0.333 N 
ATOM      4  C   UNL     1      34.766 -21.249 -19.115  0.00  0.00    +0.025 C 
ATOM      5  C   UNL     1      33.854 -22.464 -19.294  0.00  0.00    +0.008 C 
ATOM      6  C   UNL     1      36.030 -21.643 -18.330  0.00  0.00    +0.033 C 
ATOM      7  C   UNL     1      33.434 -23.035 -17.937  0.00  0.00    +0.041 C 
ATOM      8  C   UNL     1      35.744 -22.526 -17.145  0.00  0.00    +0.031 C 
ATOM      9  C   UNL     1      34.566 -23.144 -16.946  0.00  0.00    +0.028 C 
ATOM     10  C   UNL     1      36.821 -22.762 -16.108  0.00  0.00    +0.177 C 
ATOM     11  C   UNL     1      35.294 -24.039 -14.754  0.00  0.00    +0.221 C 
ATOM     12  H   UNL     1      33.481 -24.406 -15.774  0.00  0.00    +0.155 HD
ATOM     13  H   UNL     1      38.790 -22.382 -15.647  0.00  0.00    +0.145 HD
ATOM     14  H   UNL     1      38.269 -21.714 -17.127  0.00  0.00    +0.145 HD
ENDROOT
BRANCH  11  15
ATOM     15  N   UNL     1      35.470 -25.364 -14.135  0.00  0.00    -0.381 NA
ATOM     16  H   UNL     1      35.281 -25.302 -13.134  0.00  0.00    +0.124 HD
ATOM     17  H   UNL     1      36.430 -25.682 -14.279  0.00  0.00    +0.124 HD
ATOM     18  H   UNL     1      34.825 -26.028 -14.562  0.00  0.00    +0.124 HD
ENDBRANCH  11  15
BRANCH   4  19
ATOM     19  C   UNL     1      35.136 -20.633 -20.462  0.00  0.00    +0.091 C 
BRANCH  19  20
ATOM     20  N   UNL     1      34.058 -19.804 -20.929  0.00  0.00    -0.306 N 
ATOM     21  C   UNL     1      32.680 -20.279 -20.766  0.00  0.00    +0.112 C 
BRANCH  20  22
ATOM     22  C   UNL     1      34.297 -18.561 -21.538  0.00  0.00    +0.054 C 
ATOM     23  C   UNL     1      34.622 -18.498 -22.893  0.00  0.00    +0.055 C 
ATOM     24  C   UNL     1      34.210 -17.389 -20.787  0.00  0.00    +0.055 C 
ATOM     25  C   UNL     1      34.449 -16.154 -21.391  0.00  0.00    +0.177 C 
ATOM     26  C   UNL     1      34.861 -17.264 -23.497  0.00  0.00    +0.177 C 
ATOM     27  C   UNL     1      34.774 -16.092 -22.745  0.00  0.00    +0.206 C 
BRANCH  25  28
ATOM     28  O   UNL     1      34.361 -15.016 -20.647  0.00  0.00    -0.468 OA
ATOM     29  C   UNL     1      33.051 -14.538 -20.346  0.00  0.00    +0.253 C 
ENDBRANCH  25  28
BRANCH  26  30
ATOM     30  O   UNL     1      35.180 -17.217 -24.820  0.00  0.00    -0.468 OA
ATOM     31  C   UNL     1      34.100 -17.290 -25.749  0.00  0.00    +0.253 C 
ENDBRANCH  26  30
BRANCH  27  32
ATOM     32  O   UNL     1      35.010 -14.886 -23.337  0.00  0.00    -0.465 OA
ATOM     33  C   UNL     1      33.880 -14.192 -23.863  0.00  0.00    +0.253 C 
ENDBRANCH  27  32
ENDBRANCH  20  22
ENDBRANCH  19  20
ENDBRANCH   4  19
TORSDOF 7
ENDMDL
