MODEL 1
REMARK VINA RESULT:      -5.2      0.000      0.000
REMARK  Name = 444972
REMARK  4 active torsions:
REMARK  status: ('A' for Active; 'I' for Inactive)
REMARK    1  A    between atoms: C_1  and  C_4
REMARK    2  A    between atoms: C_2  and  C_8
REMARK    3  A    between atoms: C_4  and  O_5
REMARK    4  A    between atoms: C_8  and  O_9
REMARK                            x       y       z     vdW  Elec       q    Type
REMARK                         _______ _______ _______ _____ _____    ______ ____
ROOT
ATOM      1  C   UNL     1      38.553 -24.764 -14.825  0.00  0.00    +0.088 C 
ATOM      2  C   UNL     1      37.277 -25.149 -14.940  0.00  0.00    +0.088 C 
ENDROOT
BRANCH   1   4
ATOM      3  O   UNL     1      40.019 -26.301 -13.767  0.00  0.00    -0.245 OA
ATOM      4  C   UNL     1      39.688 -25.707 -14.783  0.00  0.00    +0.338 C 
BRANCH   4   5
ATOM      5  O   UNL     1      40.310 -25.840 -15.976  0.00  0.00    -0.477 OA
ATOM      6  H   UNL     1      41.236 -25.976 -16.008  0.00  0.00    +0.295 HD
ENDBRANCH   4   5
ENDBRANCH   1   4
BRANCH   2   8
ATOM      7  O   UNL     1      36.784 -27.228 -16.057  0.00  0.00    -0.245 OA
ATOM      8  C   UNL     1      36.967 -26.590 -15.034  0.00  0.00    +0.338 C 
BRANCH   8   9
ATOM      9  O   UNL     1      36.916 -27.105 -13.783  0.00  0.00    -0.477 OA
ATOM     10  H   UNL     1      37.700 -27.409 -13.370  0.00  0.00    +0.295 HD
ENDBRANCH   8   9
ENDBRANCH   2   8
TORSDOF 4
ENDMDL
MODEL 2
REMARK VINA RESULT:      -5.2      0.178      3.342
REMARK  Name = 444972
REMARK  4 active torsions:
REMARK  status: ('A' for Active; 'I' for Inactive)
REMARK    1  A    between atoms: C_1  and  C_4
REMARK    2  A    between atoms: C_2  and  C_8
REMARK    3  A    between atoms: C_4  and  O_5
REMARK    4  A    between atoms: C_8  and  O_9
REMARK                            x       y       z     vdW  Elec       q    Type
REMARK                         _______ _______ _______ _____ _____    ______ ____
ROOT
ATOM      1  C   UNL     1      37.494 -25.165 -14.912  0.00  0.00    +0.088 C 
ATOM      2  C   UNL     1      38.766 -24.752 -14.842  0.00  0.00    +0.088 C 
ENDROOT
BRANCH   1   4
ATOM      3  O   UNL     1      36.810 -27.175 -15.971  0.00  0.00    -0.245 OA
ATOM      4  C   UNL     1      37.100 -26.587 -14.939  0.00  0.00    +0.338 C 
BRANCH   4   5
ATOM      5  O   UNL     1      37.097 -27.158 -13.714  0.00  0.00    -0.477 OA
ATOM      6  H   UNL     1      37.709 -27.839 -13.513  0.00  0.00    +0.295 HD
ENDBRANCH   4   5
ENDBRANCH   1   4
BRANCH   2   8
ATOM      7  O   UNL     1      40.208 -26.380 -13.804  0.00  0.00    -0.245 OA
ATOM      8  C   UNL     1      39.846 -25.758 -14.787  0.00  0.00    +0.338 C 
BRANCH   8   9
ATOM      9  O   UNL     1      40.383 -25.886 -16.024  0.00  0.00    -0.477 OA
ATOM     10  H   UNL     1      40.797 -26.688 -16.273  0.00  0.00    +0.295 HD
ENDBRANCH   8   9
ENDBRANCH   2   8
TORSDOF 4
ENDMDL
MODEL 3
REMARK VINA RESULT:      -4.9      2.008      3.514
REMARK  Name = 444972
REMARK  4 active torsions:
REMARK  status: ('A' for Active; 'I' for Inactive)
REMARK    1  A    between atoms: C_1  and  C_4
REMARK    2  A    between atoms: C_2  and  C_8
REMARK    3  A    between atoms: C_4  and  O_5
REMARK    4  A    between atoms: C_8  and  O_9
REMARK                            x       y       z     vdW  Elec       q    Type
REMARK                         _______ _______ _______ _____ _____    ______ ____
ROOT
ATOM      1  C   UNL     1      37.980 -25.527 -13.987  0.00  0.00    +0.088 C 
ATOM      2  C   UNL     1      39.177 -26.113 -14.112  0.00  0.00    +0.088 C 
ENDROOT
BRANCH   1   4
ATOM      3  O   UNL     1      37.854 -23.159 -13.900  0.00  0.00    -0.245 OA
ATOM      4  C   UNL     1      37.667 -24.190 -14.531  0.00  0.00    +0.338 C 
BRANCH   4   5
ATOM      5  O   UNL     1      37.160 -24.234 -15.782  0.00  0.00    -0.477 OA
ATOM      6  H   UNL     1      37.604 -24.719 -16.450  0.00  0.00    +0.295 HD
ENDBRANCH   4   5
ENDBRANCH   1   4
BRANCH   2   8
ATOM      7  O   UNL     1      40.970 -24.523 -14.377  0.00  0.00    -0.245 OA
ATOM      8  C   UNL     1      40.254 -25.401 -14.829  0.00  0.00    +0.338 C 
BRANCH   8   9
ATOM      9  O   UNL     1      40.327 -25.883 -16.092  0.00  0.00    -0.477 OA
ATOM     10  H   UNL     1      40.333 -26.808 -16.241  0.00  0.00    +0.295 HD
ENDBRANCH   8   9
ENDBRANCH   2   8
TORSDOF 4
ENDMDL
MODEL 4
REMARK VINA RESULT:      -4.8      2.004      2.499
REMARK  Name = 444972
REMARK  4 active torsions:
REMARK  status: ('A' for Active; 'I' for Inactive)
REMARK    1  A    between atoms: C_1  and  C_4
REMARK    2  A    between atoms: C_2  and  C_8
REMARK    3  A    between atoms: C_4  and  O_5
REMARK    4  A    between atoms: C_8  and  O_9
REMARK                            x       y       z     vdW  Elec       q    Type
REMARK                         _______ _______ _______ _____ _____    ______ ____
ROOT
ATOM      1  C   UNL     1      38.903 -26.150 -14.262  0.00  0.00    +0.088 C 
ATOM      2  C   UNL     1      37.731 -25.518 -14.123  0.00  0.00    +0.088 C 
ENDROOT
BRANCH   1   4
ATOM      3  O   UNL     1      40.823 -24.759 -14.177  0.00  0.00    -0.245 OA
ATOM      4  C   UNL     1      40.111 -25.513 -14.824  0.00  0.00    +0.338 C 
BRANCH   4   5
ATOM      5  O   UNL     1      40.336 -25.852 -16.113  0.00  0.00    -0.477 OA
ATOM      6  H   UNL     1      40.707 -26.687 -16.319  0.00  0.00    +0.295 HD
ENDBRANCH   4   5
ENDBRANCH   1   4
BRANCH   2   8
ATOM      7  O   UNL     1      37.830 -23.124 -13.859  0.00  0.00    -0.245 OA
ATOM      8  C   UNL     1      37.621 -24.108 -14.548  0.00  0.00    +0.338 C 
BRANCH   8   9
ATOM      9  O   UNL     1      37.244 -24.075 -15.848  0.00  0.00    -0.477 OA
ATOM     10  H   UNL     1      36.461 -24.511 -16.120  0.00  0.00    +0.295 HD
ENDBRANCH   8   9
ENDBRANCH   2   8
TORSDOF 4
ENDMDL
MODEL 5
REMARK VINA RESULT:      -4.8      3.117      3.930
REMARK  Name = 444972
REMARK  4 active torsions:
REMARK  status: ('A' for Active; 'I' for Inactive)
REMARK    1  A    between atoms: C_1  and  C_4
REMARK    2  A    between atoms: C_2  and  C_8
REMARK    3  A    between atoms: C_4  and  O_5
REMARK    4  A    between atoms: C_8  and  O_9
REMARK                            x       y       z     vdW  Elec       q    Type
REMARK                         _______ _______ _______ _____ _____    ______ ____
ROOT
ATOM      1  C   UNL     1      36.495 -23.650 -12.798  0.00  0.00    +0.088 C 
ATOM      2  C   UNL     1      36.566 -24.825 -13.435  0.00  0.00    +0.088 C 
ENDROOT
BRANCH   1   4
ATOM      3  O   UNL     1      38.324 -22.716 -11.609  0.00  0.00    -0.245 OA
ATOM      4  C   UNL     1      37.271 -23.336 -11.581  0.00  0.00    +0.338 C 
BRANCH   4   5
ATOM      5  O   UNL     1      36.694 -23.803 -10.452  0.00  0.00    -0.477 OA
ATOM      6  H   UNL     1      36.608 -24.726 -10.317  0.00  0.00    +0.295 HD
ENDBRANCH   4   5
ENDBRANCH   1   4
BRANCH   2   8
ATOM      7  O   UNL     1      38.596 -26.117 -13.288  0.00  0.00    -0.245 OA
ATOM      8  C   UNL     1      37.463 -25.875 -12.910  0.00  0.00    +0.338 C 
BRANCH   8   9
ATOM      9  O   UNL     1      36.819 -26.541 -11.923  0.00  0.00    -0.477 OA
ATOM     10  H   UNL     1      35.983 -26.242 -11.624  0.00  0.00    +0.295 HD
ENDBRANCH   8   9
ENDBRANCH   2   8
TORSDOF 4
ENDMDL
MODEL 6
REMARK VINA RESULT:      -4.8      3.145      4.255
REMARK  Name = 444972
REMARK  4 active torsions:
REMARK  status: ('A' for Active; 'I' for Inactive)
REMARK    1  A    between atoms: C_1  and  C_4
REMARK    2  A    between atoms: C_2  and  C_8
REMARK    3  A    between atoms: C_4  and  O_5
REMARK    4  A    between atoms: C_8  and  O_9
REMARK                            x       y       z     vdW  Elec       q    Type
REMARK                         _______ _______ _______ _____ _____    ______ ____
ROOT
ATOM      1  C   UNL     1      36.770 -24.706 -13.461  0.00  0.00    +0.088 C 
ATOM      2  C   UNL     1      36.583 -23.544 -12.823  0.00  0.00    +0.088 C 
ENDROOT
BRANCH   1   4
ATOM      3  O   UNL     1      38.689 -26.081 -13.221  0.00  0.00    -0.245 OA
ATOM      4  C   UNL     1      37.538 -25.832 -12.892  0.00  0.00    +0.338 C 
BRANCH   4   5
ATOM      5  O   UNL     1      36.837 -26.544 -11.982  0.00  0.00    -0.477 OA
ATOM      6  H   UNL     1      36.853 -26.294 -11.079  0.00  0.00    +0.295 HD
ENDBRANCH   4   5
ENDBRANCH   1   4
BRANCH   2   8
ATOM      7  O   UNL     1      36.713 -23.778 -10.428  0.00  0.00    -0.245 OA
ATOM      8  C   UNL     1      37.166 -23.359 -11.479  0.00  0.00    +0.338 C 
BRANCH   8   9
ATOM      9  O   UNL     1      38.306 -22.637 -11.596  0.00  0.00    -0.477 OA
ATOM     10  H   UNL     1      38.417 -21.853 -11.095  0.00  0.00    +0.295 HD
ENDBRANCH   8   9
ENDBRANCH   2   8
TORSDOF 4
ENDMDL
MODEL 7
REMARK VINA RESULT:      -4.8     10.792     12.003
REMARK  Name = 444972
REMARK  4 active torsions:
REMARK  status: ('A' for Active; 'I' for Inactive)
REMARK    1  A    between atoms: C_1  and  C_4
REMARK    2  A    between atoms: C_2  and  C_8
REMARK    3  A    between atoms: C_4  and  O_5
REMARK    4  A    between atoms: C_8  and  O_9
REMARK                            x       y       z     vdW  Elec       q    Type
REMARK                         _______ _______ _______ _____ _____    ______ ____
ROOT
ATOM      1  C   UNL     1      41.285 -14.417 -15.217  0.00  0.00    +0.088 C 
ATOM      2  C   UNL     1      41.529 -13.558 -16.215  0.00  0.00    +0.088 C 
ENDROOT
BRANCH   1   4
ATOM      3  O   UNL     1      42.133 -16.588 -15.666  0.00  0.00    -0.245 OA
ATOM      4  C   UNL     1      41.172 -15.877 -15.410  0.00  0.00    +0.338 C 
BRANCH   4   5
ATOM      5  O   UNL     1      39.906 -16.331 -15.273  0.00  0.00    -0.477 OA
ATOM      6  H   UNL     1      39.188 -15.813 -15.577  0.00  0.00    +0.295 HD
ENDBRANCH   4   5
ENDBRANCH   1   4
BRANCH   2   8
ATOM      7  O   UNL     1      40.826 -14.195 -18.431  0.00  0.00    -0.245 OA
ATOM      8  C   UNL     1      41.698 -14.079 -17.586  0.00  0.00    +0.338 C 
BRANCH   8   9
ATOM      9  O   UNL     1      42.998 -14.414 -17.766  0.00  0.00    -0.477 OA
ATOM     10  H   UNL     1      43.655 -13.747 -17.786  0.00  0.00    +0.295 HD
ENDBRANCH   8   9
ENDBRANCH   2   8
TORSDOF 4
ENDMDL
MODEL 8
REMARK VINA RESULT:      -4.8     10.765     11.841
REMARK  Name = 444972
REMARK  4 active torsions:
REMARK  status: ('A' for Active; 'I' for Inactive)
REMARK    1  A    between atoms: C_1  and  C_4
REMARK    2  A    between atoms: C_2  and  C_8
REMARK    3  A    between atoms: C_4  and  O_5
REMARK    4  A    between atoms: C_8  and  O_9
REMARK                            x       y       z     vdW  Elec       q    Type
REMARK                         _______ _______ _______ _____ _____    ______ ____
ROOT
ATOM      1  C   UNL     1      41.472 -13.628 -16.236  0.00  0.00    +0.088 C 
ATOM      2  C   UNL     1      41.223 -14.431 -15.195  0.00  0.00    +0.088 C 
ENDROOT
BRANCH   1   4
ATOM      3  O   UNL     1      40.841 -14.206 -18.449  0.00  0.00    -0.245 OA
ATOM      4  C   UNL     1      41.721 -14.123 -17.605  0.00  0.00    +0.338 C 
BRANCH   4   5
ATOM      5  O   UNL     1      43.011 -14.467 -17.816  0.00  0.00    -0.477 OA
ATOM      6  H   UNL     1      43.699 -13.956 -17.438  0.00  0.00    +0.295 HD
ENDBRANCH   4   5
ENDBRANCH   1   4
BRANCH   2   8
ATOM      7  O   UNL     1      42.142 -16.611 -15.662  0.00  0.00    -0.245 OA
ATOM      8  C   UNL     1      41.190 -15.893 -15.407  0.00  0.00    +0.338 C 
BRANCH   8   9
ATOM      9  O   UNL     1      39.913 -16.322 -15.271  0.00  0.00    -0.477 OA
ATOM     10  H   UNL     1      39.583 -16.994 -15.833  0.00  0.00    +0.295 HD
ENDBRANCH   8   9
ENDBRANCH   2   8
TORSDOF 4
ENDMDL
MODEL 9
REMARK VINA RESULT:      -4.7      1.794      3.009
REMARK  Name = 444972
REMARK  4 active torsions:
REMARK  status: ('A' for Active; 'I' for Inactive)
REMARK    1  A    between atoms: C_1  and  C_4
REMARK    2  A    between atoms: C_2  and  C_8
REMARK    3  A    between atoms: C_4  and  O_5
REMARK    4  A    between atoms: C_8  and  O_9
REMARK                            x       y       z     vdW  Elec       q    Type
REMARK                         _______ _______ _______ _____ _____    ______ ____
ROOT
ATOM      1  C   UNL     1      37.470 -24.994 -14.700  0.00  0.00    +0.088 C 
ATOM      2  C   UNL     1      37.180 -24.511 -13.485  0.00  0.00    +0.088 C 
ENDROOT
BRANCH   1   4
ATOM      3  O   UNL     1      36.228 -26.732 -15.733  0.00  0.00    -0.245 OA
ATOM      4  C   UNL     1      37.219 -26.392 -15.102  0.00  0.00    +0.338 C 
BRANCH   4   5
ATOM      5  O   UNL     1      38.190 -27.241 -14.699  0.00  0.00    -0.477 OA
ATOM      6  H   UNL     1      39.084 -27.065 -14.917  0.00  0.00    +0.295 HD
ENDBRANCH   4   5
ENDBRANCH   1   4
BRANCH   2   8
ATOM      7  O   UNL     1      37.141 -26.291 -11.860  0.00  0.00    -0.245 OA
ATOM      8  C   UNL     1      36.574 -25.409 -12.482  0.00  0.00    +0.338 C 
BRANCH   8   9
ATOM      9  O   UNL     1      35.263 -25.094 -12.353  0.00  0.00    -0.477 OA
ATOM     10  H   UNL     1      34.865 -25.084 -11.505  0.00  0.00    +0.295 HD
ENDBRANCH   8   9
ENDBRANCH   2   8
TORSDOF 4
ENDMDL
