MODEL 1
REMARK VINA RESULT:      -9.8      0.000      0.000
REMARK  Name = 6098
REMARK  5 active torsions:
REMARK  status: ('A' for Active; 'I' for Inactive)
REMARK    1  A    between atoms: N_2  and  CA_11
REMARK    2  A    between atoms: C_3  and  C_21
REMARK    3  A    between atoms: CA_10  and  C_16
REMARK    4  A    between atoms: C_16  and  O_17
REMARK    5  A    between atoms: C_22  and  C_26
REMARK                            x       y       z     vdW  Elec       q    Type
REMARK                         _______ _______ _______ _____ _____    ______ ____
ROOT
ATOM      1  O   UNL     1      36.649 -21.109 -17.675  0.00  0.00    -0.270 OA
ATOM      2  N   UNL     1      35.781 -22.547 -16.097  0.00  0.00    -0.293 N 
ATOM      3  C   UNL     1      35.744 -21.863 -17.318  0.00  0.00    +0.251 C 
ATOM      4  H   UNL     1      35.027 -23.137 -15.865  0.00  0.00    +0.150 HD
ENDROOT
BRANCH   2  11
ATOM      5  S   UNL     1      35.862 -24.890 -14.115  0.00  0.00    -0.118 S 
ATOM      6  O   UNL     1      38.911 -22.940 -16.628  0.00  0.00    -0.273 OA
ATOM      7  N   UNL     1      38.221 -23.922 -14.596  0.00  0.00    -0.260 N 
ATOM      8  C   UNL     1      36.971 -23.439 -14.002  0.00  0.00    +0.151 C 
ATOM      9  C   UNL     1      37.305 -26.054 -13.929  0.00  0.00    +0.068 C 
ATOM     10  CA  UNL     1      38.443 -25.351 -14.700  0.00  0.00    +0.184 C 
ATOM     11  CA  UNL     1      36.896 -22.421 -15.149  0.00  0.00    +0.178 C 
ATOM     12  C   UNL     1      38.214 -23.049 -15.646  0.00  0.00    +0.247 C 
ATOM     13  C   UNL     1      37.572 -26.240 -12.429  0.00  0.00    +0.013 C 
ATOM     14  C   UNL     1      36.946 -27.397 -14.567  0.00  0.00    +0.013 C 
BRANCH  10  16
ATOM     15  OXT UNL     1      40.504 -24.831 -13.555  0.00  0.00    -0.248 OA
ATOM     16  C   UNL     1      39.823 -25.622 -14.191  0.00  0.00    +0.333 C 
BRANCH  16  17
ATOM     17  O   UNL     1      40.223 -26.871 -14.534  0.00  0.00    -0.479 OA
ATOM     18  H   UNL     1      41.091 -27.013 -14.857  0.00  0.00    +0.295 HD
ENDBRANCH  16  17
ENDBRANCH  10  16
ENDBRANCH   2  11
BRANCH   3  21
ATOM     19  O   UNL     1      32.685 -22.964 -18.896  0.00  0.00    -0.358 OA
ATOM     20  N   UNL     1      33.094 -22.042 -19.851  0.00  0.00    -0.077 NA
ATOM     21  C   UNL     1      34.575 -22.117 -18.171  0.00  0.00    +0.107 A 
ATOM     22  C   UNL     1      34.243 -21.546 -19.385  0.00  0.00    +0.128 A 
ATOM     23  C   UNL     1      33.593 -22.996 -17.887  0.00  0.00    +0.159 A 
ATOM     24  C   UNL     1      33.310 -23.926 -16.786  0.00  0.00    +0.076 C 
BRANCH  22  26
ATOM     25 CL   UNL     1      32.589 -19.284 -20.668  0.00  0.00    -0.082 Cl
ATOM     26  C   UNL     1      34.959 -20.546 -20.133  0.00  0.00    +0.032 C 
ATOM     27  C   UNL     1      34.305 -19.481 -20.753  0.00  0.00    +0.059 C 
ATOM     28  C   UNL     1      36.345 -20.663 -20.228  0.00  0.00    +0.002 C 
ATOM     29  C   UNL     1      35.038 -18.533 -21.468  0.00  0.00    +0.011 C 
ATOM     30  C   UNL     1      37.078 -19.716 -20.941  0.00  0.00    +0.000 C 
ATOM     31  C   UNL     1      36.425 -18.651 -21.561  0.00  0.00    +0.001 C 
ENDBRANCH  22  26
ENDBRANCH   3  21
TORSDOF 5
ENDMDL
MODEL 2
REMARK VINA RESULT:      -9.3     11.288     14.859
REMARK  Name = 6098
REMARK  5 active torsions:
REMARK  status: ('A' for Active; 'I' for Inactive)
REMARK    1  A    between atoms: N_2  and  CA_11
REMARK    2  A    between atoms: C_3  and  C_21
REMARK    3  A    between atoms: CA_10  and  C_16
REMARK    4  A    between atoms: C_16  and  O_17
REMARK    5  A    between atoms: C_22  and  C_26
REMARK                            x       y       z     vdW  Elec       q    Type
REMARK                         _______ _______ _______ _____ _____    ______ ____
ROOT
ATOM      1  O   UNL     1      34.916  -8.624 -23.740  0.00  0.00    -0.270 OA
ATOM      2  N   UNL     1      33.321 -10.002 -24.674  0.00  0.00    -0.293 N 
ATOM      3  C   UNL     1      33.732  -8.857 -23.981  0.00  0.00    +0.251 C 
ATOM      4  H   UNL     1      32.360 -10.136 -24.837  0.00  0.00    +0.150 HD
ENDROOT
BRANCH   2  11
ATOM      5  S   UNL     1      33.761 -12.247 -22.626  0.00  0.00    -0.118 S 
ATOM      6  O   UNL     1      32.883 -12.214 -26.944  0.00  0.00    -0.273 OA
ATOM      7  N   UNL     1      34.031 -13.074 -25.071  0.00  0.00    -0.260 N 
ATOM      8  C   UNL     1      34.703 -12.114 -24.190  0.00  0.00    +0.151 C 
ATOM      9  C   UNL     1      33.402 -14.045 -22.952  0.00  0.00    +0.068 C 
ATOM     10  CA  UNL     1      33.202 -14.107 -24.481  0.00  0.00    +0.184 C 
ATOM     11  CA  UNL     1      34.267 -11.013 -25.167  0.00  0.00    +0.178 C 
ATOM     12  C   UNL     1      33.607 -12.147 -25.977  0.00  0.00    +0.247 C 
ATOM     13  C   UNL     1      34.590 -14.866 -22.431  0.00  0.00    +0.013 C 
ATOM     14  C   UNL     1      32.126 -14.441 -22.207  0.00  0.00    +0.013 C 
BRANCH  10  16
ATOM     15  OXT UNL     1      33.889 -16.422 -24.525  0.00  0.00    -0.248 OA
ATOM     16  C   UNL     1      33.585 -15.401 -25.125  0.00  0.00    +0.333 C 
BRANCH  16  17
ATOM     17  O   UNL     1      33.554 -15.291 -26.476  0.00  0.00    -0.479 OA
ATOM     18  H   UNL     1      34.345 -15.128 -26.952  0.00  0.00    +0.295 HD
ENDBRANCH  16  17
ENDBRANCH  10  16
ENDBRANCH   2  11
BRANCH   3  21
ATOM     19  O   UNL     1      31.366  -6.160 -23.548  0.00  0.00    -0.358 OA
ATOM     20  N   UNL     1      30.947  -6.975 -22.504  0.00  0.00    -0.077 NA
ATOM     21  C   UNL     1      32.670  -7.925 -23.579  0.00  0.00    +0.107 A 
ATOM     22  C   UNL     1      31.757  -8.037 -22.548  0.00  0.00    +0.128 A 
ATOM     23  C   UNL     1      32.409  -6.749 -24.187  0.00  0.00    +0.159 A 
ATOM     24  C   UNL     1      32.975  -6.013 -25.325  0.00  0.00    +0.076 C 
BRANCH  22  26
ATOM     25 CL   UNL     1      32.948  -7.601 -19.740  0.00  0.00    -0.082 Cl
ATOM     26  C   UNL     1      31.607  -9.104 -21.594  0.00  0.00    +0.032 C 
ATOM     27  C   UNL     1      32.109  -9.008 -20.296  0.00  0.00    +0.059 C 
ATOM     28  C   UNL     1      30.935 -10.258 -21.997  0.00  0.00    +0.002 C 
ATOM     29  C   UNL     1      31.940 -10.066 -19.402  0.00  0.00    +0.011 C 
ATOM     30  C   UNL     1      30.766 -11.315 -21.104  0.00  0.00    +0.000 C 
ATOM     31  C   UNL     1      31.268 -11.219 -19.807  0.00  0.00    +0.001 C 
ENDBRANCH  22  26
ENDBRANCH   3  21
TORSDOF 5
ENDMDL
MODEL 3
REMARK VINA RESULT:      -9.1      9.653     14.467
REMARK  Name = 6098
REMARK  5 active torsions:
REMARK  status: ('A' for Active; 'I' for Inactive)
REMARK    1  A    between atoms: N_2  and  CA_11
REMARK    2  A    between atoms: C_3  and  C_21
REMARK    3  A    between atoms: CA_10  and  C_16
REMARK    4  A    between atoms: C_16  and  O_17
REMARK    5  A    between atoms: C_22  and  C_26
REMARK                            x       y       z     vdW  Elec       q    Type
REMARK                         _______ _______ _______ _____ _____    ______ ____
ROOT
ATOM      1  O   UNL     1      31.911 -13.520 -23.995  0.00  0.00    -0.270 OA
ATOM      2  N   UNL     1      33.497 -12.058 -23.181  0.00  0.00    -0.293 N 
ATOM      3  C   UNL     1      32.725 -13.225 -23.121  0.00  0.00    +0.251 C 
ATOM      4  H   UNL     1      34.132 -11.875 -22.451  0.00  0.00    +0.150 HD
ENDROOT
BRANCH   2  11
ATOM      5  S   UNL     1      31.514  -9.800 -22.553  0.00  0.00    -0.118 S 
ATOM      6  O   UNL     1      35.628  -9.869 -24.128  0.00  0.00    -0.273 OA
ATOM      7  N   UNL     1      33.424  -9.026 -24.129  0.00  0.00    -0.260 N 
ATOM      8  C   UNL     1      32.329  -9.999 -24.179  0.00  0.00    +0.151 C 
ATOM      9  C   UNL     1      31.966  -7.994 -22.506  0.00  0.00    +0.068 C 
ATOM     10  CA  UNL     1      33.364  -7.949 -23.160  0.00  0.00    +0.184 C 
ATOM     11  CA  UNL     1      33.396 -11.097 -24.287  0.00  0.00    +0.178 C 
ATOM     12  C   UNL     1      34.425  -9.950 -24.217  0.00  0.00    +0.247 C 
ATOM     13  C   UNL     1      30.883  -7.215 -23.264  0.00  0.00    +0.013 C 
ATOM     14  C   UNL     1      32.020  -7.532 -21.048  0.00  0.00    +0.013 C 
BRANCH  10  16
ATOM     15  OXT UNL     1      32.930  -5.736 -24.023  0.00  0.00    -0.248 OA
ATOM     16  C   UNL     1      33.690  -6.683 -23.887  0.00  0.00    +0.333 C 
BRANCH  16  17
ATOM     17  O   UNL     1      34.952  -6.728 -24.382  0.00  0.00    -0.479 OA
ATOM     18  H   UNL     1      35.336  -5.960 -24.756  0.00  0.00    +0.295 HD
ENDBRANCH  16  17
ENDBRANCH  10  16
ENDBRANCH   2  11
BRANCH   3  21
ATOM     19  O   UNL     1      33.011 -14.834 -19.897  0.00  0.00    -0.358 OA
ATOM     20  N   UNL     1      33.567 -15.837 -20.682  0.00  0.00    -0.077 NA
ATOM     21  C   UNL     1      32.962 -14.102 -21.965  0.00  0.00    +0.107 A 
ATOM     22  C   UNL     1      33.525 -15.363 -21.930  0.00  0.00    +0.128 A 
ATOM     23  C   UNL     1      32.651 -13.793 -20.690  0.00  0.00    +0.159 A 
ATOM     24  C   UNL     1      32.041 -12.640 -20.013  0.00  0.00    +0.076 C 
BRANCH  22  26
ATOM     25 CL   UNL     1      35.021 -17.964 -21.227  0.00  0.00    -0.082 Cl
ATOM     26  C   UNL     1      34.027 -16.153 -23.024  0.00  0.00    +0.032 C 
ATOM     27  C   UNL     1      34.719 -17.346 -22.814  0.00  0.00    +0.059 C 
ATOM     28  C   UNL     1      33.805 -15.695 -24.322  0.00  0.00    +0.002 C 
ATOM     29  C   UNL     1      35.188 -18.081 -23.903  0.00  0.00    +0.011 C 
ATOM     30  C   UNL     1      34.274 -16.430 -25.411  0.00  0.00    +0.000 C 
ATOM     31  C   UNL     1      34.965 -17.623 -25.202  0.00  0.00    +0.001 C 
ENDBRANCH  22  26
ENDBRANCH   3  21
TORSDOF 5
ENDMDL
MODEL 4
REMARK VINA RESULT:      -8.9      9.292     12.854
REMARK  Name = 6098
REMARK  5 active torsions:
REMARK  status: ('A' for Active; 'I' for Inactive)
REMARK    1  A    between atoms: N_2  and  CA_11
REMARK    2  A    between atoms: C_3  and  C_21
REMARK    3  A    between atoms: CA_10  and  C_16
REMARK    4  A    between atoms: C_16  and  O_17
REMARK    5  A    between atoms: C_22  and  C_26
REMARK                            x       y       z     vdW  Elec       q    Type
REMARK                         _______ _______ _______ _____ _____    ______ ____
ROOT
ATOM      1  O   UNL     1      33.540 -10.785 -23.524  0.00  0.00    -0.270 OA
ATOM      2  N   UNL     1      33.211 -12.978 -22.896  0.00  0.00    -0.293 N 
ATOM      3  C   UNL     1      33.013 -11.598 -22.766  0.00  0.00    +0.251 C 
ATOM      4  H   UNL     1      32.762 -13.581 -22.259  0.00  0.00    +0.150 HD
ENDROOT
BRANCH   2  11
ATOM      5  S   UNL     1      34.767 -15.417 -21.870  0.00  0.00    -0.118 S 
ATOM      6  O   UNL     1      32.338 -14.667 -25.468  0.00  0.00    -0.273 OA
ATOM      7  N   UNL     1      34.236 -15.580 -24.404  0.00  0.00    -0.260 N 
ATOM      8  C   UNL     1      35.013 -14.694 -23.533  0.00  0.00    +0.151 C 
ATOM      9  C   UNL     1      34.627 -17.128 -22.593  0.00  0.00    +0.068 C 
ATOM     10  CA  UNL     1      33.880 -16.901 -23.925  0.00  0.00    +0.184 C 
ATOM     11  CA  UNL     1      34.060 -13.563 -23.942  0.00  0.00    +0.178 C 
ATOM     12  C   UNL     1      33.349 -14.624 -24.806  0.00  0.00    +0.247 C 
ATOM     13  C   UNL     1      36.045 -17.694 -22.746  0.00  0.00    +0.013 C 
ATOM     14  C   UNL     1      33.813 -18.006 -21.641  0.00  0.00    +0.013 C 
BRANCH  10  16
ATOM     15  OXT UNL     1      33.876 -19.045 -25.036  0.00  0.00    -0.248 OA
ATOM     16  C   UNL     1      34.210 -17.869 -25.016  0.00  0.00    +0.333 C 
BRANCH  16  17
ATOM     17  O   UNL     1      34.937 -17.265 -25.988  0.00  0.00    -0.479 OA
ATOM     18  H   UNL     1      35.676 -17.704 -26.362  0.00  0.00    +0.295 HD
ENDBRANCH  16  17
ENDBRANCH  10  16
ENDBRANCH   2  11
BRANCH   3  21
ATOM     19  O   UNL     1      30.873 -11.229 -19.877  0.00  0.00    -0.358 OA
ATOM     20  N   UNL     1      30.764  -9.940 -20.384  0.00  0.00    -0.077 NA
ATOM     21  C   UNL     1      32.111 -11.169 -21.688  0.00  0.00    +0.107 A 
ATOM     22  C   UNL     1      31.524  -9.935 -21.483  0.00  0.00    +0.128 A 
ATOM     23  C   UNL     1      31.691 -11.958 -20.678  0.00  0.00    +0.159 A 
ATOM     24  C   UNL     1      31.916 -13.354 -20.280  0.00  0.00    +0.076 C 
BRANCH  22  26
ATOM     25 CL   UNL     1      33.185  -7.621 -20.307  0.00  0.00    -0.082 Cl
ATOM     26  C   UNL     1      31.646  -8.740 -22.275  0.00  0.00    +0.032 C 
ATOM     27  C   UNL     1      32.375  -7.635 -21.836  0.00  0.00    +0.059 C 
ATOM     28  C   UNL     1      31.011  -8.706 -23.517  0.00  0.00    +0.002 C 
ATOM     29  C   UNL     1      32.469  -6.497 -22.637  0.00  0.00    +0.011 C 
ATOM     30  C   UNL     1      31.105  -7.569 -24.318  0.00  0.00    +0.000 C 
ATOM     31  C   UNL     1      31.834  -6.464 -23.879  0.00  0.00    +0.001 C 
ENDBRANCH  22  26
ENDBRANCH   3  21
TORSDOF 5
ENDMDL
MODEL 5
REMARK VINA RESULT:      -8.9      3.382      7.737
REMARK  Name = 6098
REMARK  5 active torsions:
REMARK  status: ('A' for Active; 'I' for Inactive)
REMARK    1  A    between atoms: N_2  and  CA_11
REMARK    2  A    between atoms: C_3  and  C_21
REMARK    3  A    between atoms: CA_10  and  C_16
REMARK    4  A    between atoms: C_16  and  O_17
REMARK    5  A    between atoms: C_22  and  C_26
REMARK                            x       y       z     vdW  Elec       q    Type
REMARK                         _______ _______ _______ _____ _____    ______ ____
ROOT
ATOM      1  O   UNL     1      33.892 -24.105 -18.913  0.00  0.00    -0.270 OA
ATOM      2  N   UNL     1      34.980 -22.191 -18.230  0.00  0.00    -0.293 N 
ATOM      3  C   UNL     1      34.114 -23.274 -18.033  0.00  0.00    +0.251 C 
ATOM      4  H   UNL     1      35.120 -21.558 -17.488  0.00  0.00    +0.150 HD
ENDROOT
BRANCH   2  11
ATOM      5  S   UNL     1      33.178 -20.835 -20.312  0.00  0.00    -0.118 S 
ATOM      6  O   UNL     1      37.272 -20.056 -18.882  0.00  0.00    -0.273 OA
ATOM      7  N   UNL     1      35.678 -20.211 -20.615  0.00  0.00    -0.260 N 
ATOM      8  C   UNL     1      34.868 -21.431 -20.681  0.00  0.00    +0.151 C 
ATOM      9  C   UNL     1      33.546 -19.188 -21.101  0.00  0.00    +0.068 C 
ATOM     10  CA  UNL     1      35.020 -18.924 -20.725  0.00  0.00    +0.184 C 
ATOM     11  CA  UNL     1      35.688 -21.961 -19.496  0.00  0.00    +0.178 C 
ATOM     12  C   UNL     1      36.441 -20.617 -19.558  0.00  0.00    +0.247 C 
ATOM     13  C   UNL     1      33.287 -19.317 -22.608  0.00  0.00    +0.013 C 
ATOM     14  C   UNL     1      32.619 -18.130 -20.499  0.00  0.00    +0.013 C 
BRANCH  10  16
ATOM     15  OXT UNL     1      36.660 -18.554 -22.457  0.00  0.00    -0.248 OA
ATOM     16  C   UNL     1      35.797 -18.113 -21.712  0.00  0.00    +0.333 C 
BRANCH  16  17
ATOM     17  O   UNL     1      35.416 -16.813 -21.669  0.00  0.00    -0.479 OA
ATOM     18  H   UNL     1      34.646 -16.566 -21.196  0.00  0.00    +0.295 HD
ENDBRANCH  16  17
ENDBRANCH  10  16
ENDBRANCH   2  11
BRANCH   3  21
ATOM     19  O   UNL     1      32.027 -23.266 -15.083  0.00  0.00    -0.358 OA
ATOM     20  N   UNL     1      33.181 -23.797 -14.521  0.00  0.00    -0.077 NA
ATOM     21  C   UNL     1      33.505 -23.386 -16.701  0.00  0.00    +0.107 A 
ATOM     22  C   UNL     1      34.059 -23.857 -15.526  0.00  0.00    +0.128 A 
ATOM     23  C   UNL     1      32.241 -23.023 -16.401  0.00  0.00    +0.159 A 
ATOM     24  C   UNL     1      31.111 -22.456 -17.150  0.00  0.00    +0.076 C 
BRANCH  22  26
ATOM     25 CL   UNL     1      36.363 -21.812 -15.442  0.00  0.00    -0.082 Cl
ATOM     26  C   UNL     1      35.387 -24.366 -15.301  0.00  0.00    +0.032 C 
ATOM     27  C   UNL     1      36.499 -23.525 -15.244  0.00  0.00    +0.059 C 
ATOM     28  C   UNL     1      35.544 -25.741 -15.134  0.00  0.00    +0.002 C 
ATOM     29  C   UNL     1      37.768 -24.060 -15.022  0.00  0.00    +0.011 C 
ATOM     30  C   UNL     1      36.812 -26.277 -14.911  0.00  0.00    +0.000 C 
ATOM     31  C   UNL     1      37.924 -25.436 -14.855  0.00  0.00    +0.001 C 
ENDBRANCH  22  26
ENDBRANCH   3  21
TORSDOF 5
ENDMDL
MODEL 6
REMARK VINA RESULT:      -8.8      1.114      1.496
REMARK  Name = 6098
REMARK  5 active torsions:
REMARK  status: ('A' for Active; 'I' for Inactive)
REMARK    1  A    between atoms: N_2  and  CA_11
REMARK    2  A    between atoms: C_3  and  C_21
REMARK    3  A    between atoms: CA_10  and  C_16
REMARK    4  A    between atoms: C_16  and  O_17
REMARK    5  A    between atoms: C_22  and  C_26
REMARK                            x       y       z     vdW  Elec       q    Type
REMARK                         _______ _______ _______ _____ _____    ______ ____
ROOT
ATOM      1  O   UNL     1      35.799 -24.038 -16.528  0.00  0.00    -0.270 OA
ATOM      2  N   UNL     1      35.371 -22.142 -15.289  0.00  0.00    -0.293 N 
ATOM      3  C   UNL     1      35.064 -23.083 -16.279  0.00  0.00    +0.251 C 
ATOM      4  H   UNL     1      34.744 -21.398 -15.134  0.00  0.00    +0.150 HD
ENDROOT
BRANCH   2  11
ATOM      5  S   UNL     1      35.530 -24.778 -13.724  0.00  0.00    -0.118 S 
ATOM      6  O   UNL     1      38.394 -22.571 -16.242  0.00  0.00    -0.273 OA
ATOM      7  N   UNL     1      37.875 -23.843 -14.323  0.00  0.00    -0.260 N 
ATOM      8  C   UNL     1      36.730 -23.411 -13.516  0.00  0.00    +0.151 C 
ATOM      9  C   UNL     1      36.912 -26.015 -13.896  0.00  0.00    +0.068 C 
ATOM     10  CA  UNL     1      37.999 -25.243 -14.676  0.00  0.00    +0.184 C 
ATOM     11  CA  UNL     1      36.590 -22.218 -14.472  0.00  0.00    +0.178 C 
ATOM     12  C   UNL     1      37.805 -22.810 -15.213  0.00  0.00    +0.247 C 
ATOM     13  C   UNL     1      37.332 -26.454 -12.486  0.00  0.00    +0.013 C 
ATOM     14  C   UNL     1      36.406 -27.220 -14.690  0.00  0.00    +0.013 C 
BRANCH  10  16
ATOM     15  OXT UNL     1      39.927 -26.695 -14.745  0.00  0.00    -0.248 OA
ATOM     16  C   UNL     1      39.408 -25.650 -14.382  0.00  0.00    +0.333 C 
BRANCH  16  17
ATOM     17  O   UNL     1      40.038 -24.697 -13.651  0.00  0.00    -0.479 OA
ATOM     18  H   UNL     1      40.400 -23.944 -14.075  0.00  0.00    +0.295 HD
ENDBRANCH  16  17
ENDBRANCH  10  16
ENDBRANCH   2  11
BRANCH   3  21
ATOM     19  O   UNL     1      31.653 -22.974 -17.469  0.00  0.00    -0.358 OA
ATOM     20  N   UNL     1      32.259 -22.276 -18.506  0.00  0.00    -0.077 NA
ATOM     21  C   UNL     1      33.793 -22.888 -16.990  0.00  0.00    +0.107 A 
ATOM     22  C   UNL     1      33.556 -22.241 -18.188  0.00  0.00    +0.128 A 
ATOM     23  C   UNL     1      32.596 -23.337 -16.562  0.00  0.00    +0.159 A 
ATOM     24  C   UNL     1      32.119 -24.088 -15.393  0.00  0.00    +0.076 C 
BRANCH  22  26
ATOM     25 CL   UNL     1      32.440 -20.177 -20.186  0.00  0.00    -0.082 Cl
ATOM     26  C   UNL     1      34.499 -21.584 -19.056  0.00  0.00    +0.032 C 
ATOM     27  C   UNL     1      34.098 -20.634 -19.995  0.00  0.00    +0.059 C 
ATOM     28  C   UNL     1      35.847 -21.920 -18.937  0.00  0.00    +0.002 C 
ATOM     29  C   UNL     1      35.045 -20.021 -20.815  0.00  0.00    +0.011 C 
ATOM     30  C   UNL     1      36.794 -21.307 -19.756  0.00  0.00    +0.000 C 
ATOM     31  C   UNL     1      36.393 -20.357 -20.695  0.00  0.00    +0.001 C 
ENDBRANCH  22  26
ENDBRANCH   3  21
TORSDOF 5
ENDMDL
MODEL 7
REMARK VINA RESULT:      -8.7      3.271      7.902
REMARK  Name = 6098
REMARK  5 active torsions:
REMARK  status: ('A' for Active; 'I' for Inactive)
REMARK    1  A    between atoms: N_2  and  CA_11
REMARK    2  A    between atoms: C_3  and  C_21
REMARK    3  A    between atoms: CA_10  and  C_16
REMARK    4  A    between atoms: C_16  and  O_17
REMARK    5  A    between atoms: C_22  and  C_26
REMARK                            x       y       z     vdW  Elec       q    Type
REMARK                         _______ _______ _______ _____ _____    ______ ____
ROOT
ATOM      1  O   UNL     1      36.780 -23.150 -16.445  0.00  0.00    -0.270 OA
ATOM      2  N   UNL     1      35.103 -22.587 -17.924  0.00  0.00    -0.293 N 
ATOM      3  C   UNL     1      35.578 -23.034 -16.684  0.00  0.00    +0.251 C 
ATOM      4  H   UNL     1      34.131 -22.514 -18.057  0.00  0.00    +0.150 HD
ENDROOT
BRANCH   2  11
ATOM      5  S   UNL     1      33.555 -21.397 -20.292  0.00  0.00    -0.118 S 
ATOM      6  O   UNL     1      37.175 -20.157 -18.108  0.00  0.00    -0.273 OA
ATOM      7  N   UNL     1      35.964 -20.450 -20.112  0.00  0.00    -0.260 N 
ATOM      8  C   UNL     1      35.348 -21.760 -20.344  0.00  0.00    +0.151 C 
ATOM      9  C   UNL     1      33.844 -19.690 -20.979  0.00  0.00    +0.068 C 
ATOM     10  CA  UNL     1      35.175 -19.254 -20.329  0.00  0.00    +0.184 C 
ATOM     11  CA  UNL     1      35.997 -22.224 -19.032  0.00  0.00    +0.178 C 
ATOM     12  C   UNL     1      36.565 -20.794 -18.936  0.00  0.00    +0.247 C 
ATOM     13  C   UNL     1      33.887 -19.797 -22.509  0.00  0.00    +0.013 C 
ATOM     14  C   UNL     1      32.691 -18.780 -20.550  0.00  0.00    +0.013 C 
BRANCH  10  16
ATOM     15  OXT UNL     1      37.029 -18.624 -21.741  0.00  0.00    -0.248 OA
ATOM     16  C   UNL     1      36.008 -18.317 -21.144  0.00  0.00    +0.333 C 
BRANCH  16  17
ATOM     17  O   UNL     1      35.477 -17.069 -21.128  0.00  0.00    -0.479 OA
ATOM     18  H   UNL     1      35.774 -16.441 -20.499  0.00  0.00    +0.295 HD
ENDBRANCH  16  17
ENDBRANCH  10  16
ENDBRANCH   2  11
BRANCH   3  21
ATOM     19  O   UNL     1      32.604 -23.572 -14.704  0.00  0.00    -0.358 OA
ATOM     20  N   UNL     1      33.555 -23.916 -13.751  0.00  0.00    -0.077 NA
ATOM     21  C   UNL     1      34.561 -23.329 -15.666  0.00  0.00    +0.107 A 
ATOM     22  C   UNL     1      34.731 -23.757 -14.363  0.00  0.00    +0.128 A 
ATOM     23  C   UNL     1      33.230 -23.220 -15.856  0.00  0.00    +0.159 A 
ATOM     24  C   UNL     1      32.363 -22.827 -16.974  0.00  0.00    +0.076 C 
BRANCH  22  26
ATOM     25 CL   UNL     1      36.257 -26.326 -15.119  0.00  0.00    -0.082 Cl
ATOM     26  C   UNL     1      35.958 -24.028 -13.661  0.00  0.00    +0.032 C 
ATOM     27  C   UNL     1      36.724 -25.163 -13.926  0.00  0.00    +0.059 C 
ATOM     28  C   UNL     1      36.375 -23.117 -12.691  0.00  0.00    +0.002 C 
ATOM     29  C   UNL     1      37.908 -25.387 -13.223  0.00  0.00    +0.011 C 
ATOM     30  C   UNL     1      37.558 -23.339 -11.988  0.00  0.00    +0.000 C 
ATOM     31  C   UNL     1      38.325 -24.474 -12.253  0.00  0.00    +0.001 C 
ENDBRANCH  22  26
ENDBRANCH   3  21
TORSDOF 5
ENDMDL
MODEL 8
REMARK VINA RESULT:      -8.7      9.895     13.812
REMARK  Name = 6098
REMARK  5 active torsions:
REMARK  status: ('A' for Active; 'I' for Inactive)
REMARK    1  A    between atoms: N_2  and  CA_11
REMARK    2  A    between atoms: C_3  and  C_21
REMARK    3  A    between atoms: CA_10  and  C_16
REMARK    4  A    between atoms: C_16  and  O_17
REMARK    5  A    between atoms: C_22  and  C_26
REMARK                            x       y       z     vdW  Elec       q    Type
REMARK                         _______ _______ _______ _____ _____    ______ ____
ROOT
ATOM      1  O   UNL     1      31.412 -10.120 -22.934  0.00  0.00    -0.270 OA
ATOM      2  N   UNL     1      32.964 -11.796 -23.244  0.00  0.00    -0.293 N 
ATOM      3  C   UNL     1      32.550 -10.458 -23.258  0.00  0.00    +0.251 C 
ATOM      4  H   UNL     1      33.888 -12.006 -23.514  0.00  0.00    +0.150 HD
ENDROOT
BRANCH   2  11
ATOM      5  S   UNL     1      33.844 -14.471 -24.466  0.00  0.00    -0.118 S 
ATOM      6  O   UNL     1      32.718 -13.226 -20.393  0.00  0.00    -0.273 OA
ATOM      7  N   UNL     1      32.667 -14.773 -22.173  0.00  0.00    -0.260 N 
ATOM      8  C   UNL     1      32.304 -14.265 -23.499  0.00  0.00    +0.151 C 
ATOM      9  C   UNL     1      34.313 -15.973 -23.469  0.00  0.00    +0.068 C 
ATOM     10  CA  UNL     1      33.828 -15.632 -22.044  0.00  0.00    +0.184 C 
ATOM     11  CA  UNL     1      32.078 -12.897 -22.841  0.00  0.00    +0.178 C 
ATOM     12  C   UNL     1      32.492 -13.585 -21.525  0.00  0.00    +0.247 C 
ATOM     13  C   UNL     1      33.628 -17.192 -24.100  0.00  0.00    +0.013 C 
ATOM     14  C   UNL     1      35.833 -16.145 -23.514  0.00  0.00    +0.013 C 
BRANCH  10  16
ATOM     15  OXT UNL     1      34.117 -17.781 -20.982  0.00  0.00    -0.248 OA
ATOM     16  C   UNL     1      33.419 -16.804 -21.209  0.00  0.00    +0.333 C 
BRANCH  16  17
ATOM     17  O   UNL     1      32.159 -16.638 -20.737  0.00  0.00    -0.479 OA
ATOM     18  H   UNL     1      31.544 -17.343 -20.785  0.00  0.00    +0.295 HD
ENDBRANCH  16  17
ENDBRANCH  10  16
ENDBRANCH   2  11
BRANCH   3  21
ATOM     19  O   UNL     1      35.295  -8.565 -24.651  0.00  0.00    -0.358 OA
ATOM     20  N   UNL     1      34.754  -7.580 -23.834  0.00  0.00    -0.077 NA
ATOM     21  C   UNL     1      33.561  -9.469 -23.655  0.00  0.00    +0.107 A 
ATOM     22  C   UNL     1      33.705  -8.158 -23.243  0.00  0.00    +0.128 A 
ATOM     23  C   UNL     1      34.561  -9.701 -24.530  0.00  0.00    +0.159 A 
ATOM     24  C   UNL     1      35.001 -10.849 -25.333  0.00  0.00    +0.076 C 
BRANCH  22  26
ATOM     25 CL   UNL     1      31.675  -6.158 -24.415  0.00  0.00    -0.082 Cl
ATOM     26  C   UNL     1      32.896  -7.415 -22.312  0.00  0.00    +0.032 C 
ATOM     27  C   UNL     1      31.948  -6.485 -22.739  0.00  0.00    +0.059 C 
ATOM     28  C   UNL     1      33.080  -7.648 -20.950  0.00  0.00    +0.002 C 
ATOM     29  C   UNL     1      31.184  -5.788 -21.803  0.00  0.00    +0.011 C 
ATOM     30  C   UNL     1      32.316  -6.952 -20.014  0.00  0.00    +0.000 C 
ATOM     31  C   UNL     1      31.368  -6.022 -20.440  0.00  0.00    +0.001 C 
ENDBRANCH  22  26
ENDBRANCH   3  21
TORSDOF 5
ENDMDL
MODEL 9
REMARK VINA RESULT:      -8.4     12.237     16.512
REMARK  Name = 6098
REMARK  5 active torsions:
REMARK  status: ('A' for Active; 'I' for Inactive)
REMARK    1  A    between atoms: N_2  and  CA_11
REMARK    2  A    between atoms: C_3  and  C_21
REMARK    3  A    between atoms: CA_10  and  C_16
REMARK    4  A    between atoms: C_16  and  O_17
REMARK    5  A    between atoms: C_22  and  C_26
REMARK                            x       y       z     vdW  Elec       q    Type
REMARK                         _______ _______ _______ _____ _____    ______ ____
ROOT
ATOM      1  O   UNL     1      35.722 -10.017 -24.175  0.00  0.00    -0.270 OA
ATOM      2  N   UNL     1      33.581  -9.764 -23.359  0.00  0.00    -0.293 N 
ATOM      3  C   UNL     1      34.560 -10.417 -24.118  0.00  0.00    +0.251 C 
ATOM      4  H   UNL     1      32.667 -10.131 -23.352  0.00  0.00    +0.150 HD
ENDROOT
BRANCH   2  11
ATOM      5  S   UNL     1      32.750  -7.215 -24.854  0.00  0.00    -0.118 S 
ATOM      6  O   UNL     1      32.077  -8.678 -20.753  0.00  0.00    -0.273 OA
ATOM      7  N   UNL     1      32.578  -6.949 -22.278  0.00  0.00    -0.260 N 
ATOM      8  C   UNL     1      33.642  -7.198 -23.256  0.00  0.00    +0.151 C 
ATOM      9  C   UNL     1      31.505  -5.986 -24.214  0.00  0.00    +0.068 C 
ATOM     10  CA  UNL     1      31.323  -6.386 -22.734  0.00  0.00    +0.184 C 
ATOM     11  CA  UNL     1      33.862  -8.555 -22.573  0.00  0.00    +0.178 C 
ATOM     12  C   UNL     1      32.716  -8.141 -21.628  0.00  0.00    +0.247 C 
ATOM     13  C   UNL     1      32.078  -4.578 -24.427  0.00  0.00    +0.013 C 
ATOM     14  C   UNL     1      30.201  -6.144 -24.999  0.00  0.00    +0.013 C 
BRANCH  10  16
ATOM     15  OXT UNL     1      29.956  -4.598 -21.860  0.00  0.00    -0.248 OA
ATOM     16  C   UNL     1      30.978  -5.266 -21.806  0.00  0.00    +0.333 C 
BRANCH  16  17
ATOM     17  O   UNL     1      31.961  -5.086 -20.889  0.00  0.00    -0.479 OA
ATOM     18  H   UNL     1      32.295  -5.818 -20.411  0.00  0.00    +0.295 HD
ENDBRANCH  16  17
ENDBRANCH  10  16
ENDBRANCH   2  11
BRANCH   3  21
ATOM     19  O   UNL     1      33.811 -13.085 -26.438  0.00  0.00    -0.358 OA
ATOM     20  N   UNL     1      33.246 -13.637 -25.295  0.00  0.00    -0.077 NA
ATOM     21  C   UNL     1      34.131 -11.632 -24.825  0.00  0.00    +0.107 A 
ATOM     22  C   UNL     1      33.455 -12.732 -24.334  0.00  0.00    +0.128 A 
ATOM     23  C   UNL     1      34.341 -11.873 -26.136  0.00  0.00    +0.159 A 
ATOM     24  C   UNL     1      34.983 -11.149 -27.241  0.00  0.00    +0.076 C 
BRANCH  22  26
ATOM     25 CL   UNL     1      34.709 -15.103 -22.817  0.00  0.00    -0.082 Cl
ATOM     26  C   UNL     1      32.993 -12.978 -22.993  0.00  0.00    +0.032 C 
ATOM     27  C   UNL     1      33.496 -14.024 -22.221  0.00  0.00    +0.059 C 
ATOM     28  C   UNL     1      32.016 -12.132 -22.469  0.00  0.00    +0.002 C 
ATOM     29  C   UNL     1      33.021 -14.226 -20.925  0.00  0.00    +0.011 C 
ATOM     30  C   UNL     1      31.542 -12.332 -21.174  0.00  0.00    +0.000 C 
ATOM     31  C   UNL     1      32.044 -13.379 -20.401  0.00  0.00    +0.001 C 
ENDBRANCH  22  26
ENDBRANCH   3  21
TORSDOF 5
ENDMDL
