MODEL 1
REMARK VINA RESULT:      -5.5      0.000      0.000
REMARK  Name = 181976
REMARK  7 active torsions:
REMARK  status: ('A' for Active; 'I' for Inactive)
REMARK    1  A    between atoms: C_1  and  O_2
REMARK    2  A    between atoms: C_1  and  C_4
REMARK    3  A    between atoms: C_1  and  C_9
REMARK    4  A    between atoms: C_4  and  C_6
REMARK    5  A    between atoms: C_6  and  O_7
REMARK    6  A    between atoms: C_9  and  C_11
REMARK    7  A    between atoms: C_11  and  O_12
REMARK                            x       y       z     vdW  Elec       q    Type
REMARK                         _______ _______ _______ _____ _____    ______ ____
ROOT
ATOM      1  C   UNL     1      37.802 -25.013 -12.200  0.00  0.00    +0.133 C 
ENDROOT
BRANCH   1   2
ATOM      2  O   UNL     1      37.275 -26.292 -11.839  0.00  0.00    -0.383 OA
ATOM      3  H   UNL     1      37.866 -26.717 -11.199  0.00  0.00    +0.210 HD
ENDBRANCH   1   2
BRANCH   1   4
ATOM      4  C   UNL     1      36.833 -23.924 -11.732  0.00  0.00    +0.139 C 
BRANCH   4   6
ATOM      5  O   UNL     1      35.392 -24.576  -9.872  0.00  0.00    -0.250 OA
ATOM      6  C   UNL     1      35.598 -24.494 -11.073  0.00  0.00    +0.316 C 
BRANCH   6   7
ATOM      7  O   UNL     1      34.721 -24.918 -12.019  0.00  0.00    -0.480 OA
ATOM      8  H   UNL     1      33.855 -24.560 -12.050  0.00  0.00    +0.295 HD
ENDBRANCH   6   7
ENDBRANCH   4   6
ENDBRANCH   1   4
BRANCH   1   9
ATOM      9  C   UNL     1      37.955 -24.986 -13.719  0.00  0.00    +0.139 C 
BRANCH   9  11
ATOM     10  O   UNL     1      38.089 -27.199 -14.684  0.00  0.00    -0.250 OA
ATOM     11  C   UNL     1      37.403 -26.244 -14.345  0.00  0.00    +0.316 C 
BRANCH  11  12
ATOM     12  O   UNL     1      36.056 -26.197 -14.506  0.00  0.00    -0.480 OA
ATOM     13  H   UNL     1      35.686 -26.243 -15.365  0.00  0.00    +0.295 HD
ENDBRANCH  11  12
ENDBRANCH   9  11
ENDBRANCH   1   9
TORSDOF 7
ENDMDL
MODEL 2
REMARK VINA RESULT:      -5.3      2.557      3.215
REMARK  Name = 181976
REMARK  7 active torsions:
REMARK  status: ('A' for Active; 'I' for Inactive)
REMARK    1  A    between atoms: C_1  and  O_2
REMARK    2  A    between atoms: C_1  and  C_4
REMARK    3  A    between atoms: C_1  and  C_9
REMARK    4  A    between atoms: C_4  and  C_6
REMARK    5  A    between atoms: C_6  and  O_7
REMARK    6  A    between atoms: C_9  and  C_11
REMARK    7  A    between atoms: C_11  and  O_12
REMARK                            x       y       z     vdW  Elec       q    Type
REMARK                         _______ _______ _______ _____ _____    ______ ____
ROOT
ATOM      1  C   UNL     1      37.760 -25.039 -13.893  0.00  0.00    +0.133 C 
ENDROOT
BRANCH   1   2
ATOM      2  O   UNL     1      38.198 -23.799 -14.453  0.00  0.00    -0.383 OA
ATOM      3  H   UNL     1      38.373 -23.166 -13.741  0.00  0.00    +0.210 HD
ENDBRANCH   1   2
BRANCH   1   4
ATOM      4  C   UNL     1      37.594 -24.872 -12.380  0.00  0.00    +0.139 C 
BRANCH   4   6
ATOM      5  O   UNL     1      37.024 -22.585 -11.741  0.00  0.00    -0.250 OA
ATOM      6  C   UNL     1      37.861 -23.456 -11.923  0.00  0.00    +0.316 C 
BRANCH   6   7
ATOM      7  O   UNL     1      39.193 -23.271 -11.737  0.00  0.00    -0.480 OA
ATOM      8  H   UNL     1      39.607 -22.493 -12.055  0.00  0.00    +0.295 HD
ENDBRANCH   6   7
ENDBRANCH   4   6
ENDBRANCH   1   4
BRANCH   1   9
ATOM      9  C   UNL     1      38.821 -26.092 -14.208  0.00  0.00    +0.139 C 
BRANCH   9  11
ATOM     10  O   UNL     1      40.810 -24.726 -14.055  0.00  0.00    -0.250 OA
ATOM     11  C   UNL     1      40.087 -25.451 -14.725  0.00  0.00    +0.316 C 
BRANCH  11  12
ATOM     12  O   UNL     1      40.332 -25.756 -16.024  0.00  0.00    -0.480 OA
ATOM     13  H   UNL     1      40.404 -25.072 -16.660  0.00  0.00    +0.295 HD
ENDBRANCH  11  12
ENDBRANCH   9  11
ENDBRANCH   1   9
TORSDOF 7
ENDMDL
MODEL 3
REMARK VINA RESULT:      -5.3      3.281      4.080
REMARK  Name = 181976
REMARK  7 active torsions:
REMARK  status: ('A' for Active; 'I' for Inactive)
REMARK    1  A    between atoms: C_1  and  O_2
REMARK    2  A    between atoms: C_1  and  C_4
REMARK    3  A    between atoms: C_1  and  C_9
REMARK    4  A    between atoms: C_4  and  C_6
REMARK    5  A    between atoms: C_6  and  O_7
REMARK    6  A    between atoms: C_9  and  C_11
REMARK    7  A    between atoms: C_11  and  O_12
REMARK                            x       y       z     vdW  Elec       q    Type
REMARK                         _______ _______ _______ _____ _____    ______ ____
ROOT
ATOM      1  C   UNL     1      37.985 -25.643 -14.107  0.00  0.00    +0.133 C 
ENDROOT
BRANCH   1   2
ATOM      2  O   UNL     1      38.251 -26.020 -15.460  0.00  0.00    -0.383 OA
ATOM      3  H   UNL     1      39.174 -26.305 -15.541  0.00  0.00    +0.210 HD
ENDBRANCH   1   2
BRANCH   1   4
ATOM      4  C   UNL     1      37.336 -24.256 -14.093  0.00  0.00    +0.139 C 
BRANCH   4   6
ATOM      5  O   UNL     1      36.221 -23.537 -16.142  0.00  0.00    -0.250 OA
ATOM      6  C   UNL     1      37.237 -23.651 -15.475  0.00  0.00    +0.316 C 
BRANCH   6   7
ATOM      7  O   UNL     1      38.463 -23.242 -15.892  0.00  0.00    -0.480 OA
ATOM      8  H   UNL     1      39.009 -23.824 -16.383  0.00  0.00    +0.295 HD
ENDBRANCH   6   7
ENDBRANCH   4   6
ENDBRANCH   1   4
BRANCH   1   9
ATOM      9  C   UNL     1      39.317 -25.627 -13.359  0.00  0.00    +0.139 C 
BRANCH   9  11
ATOM     10  O   UNL     1      40.991 -26.871 -14.582  0.00  0.00    -0.250 OA
ATOM     11  C   UNL     1      40.477 -25.793 -14.311  0.00  0.00    +0.316 C 
BRANCH  11  12
ATOM     12  O   UNL     1      40.903 -24.612 -14.825  0.00  0.00    -0.480 OA
ATOM     13  H   UNL     1      40.287 -24.018 -15.206  0.00  0.00    +0.295 HD
ENDBRANCH  11  12
ENDBRANCH   9  11
ENDBRANCH   1   9
TORSDOF 7
ENDMDL
MODEL 4
REMARK VINA RESULT:      -5.2      1.205      1.502
REMARK  Name = 181976
REMARK  7 active torsions:
REMARK  status: ('A' for Active; 'I' for Inactive)
REMARK    1  A    between atoms: C_1  and  O_2
REMARK    2  A    between atoms: C_1  and  C_4
REMARK    3  A    between atoms: C_1  and  C_9
REMARK    4  A    between atoms: C_4  and  C_6
REMARK    5  A    between atoms: C_6  and  O_7
REMARK    6  A    between atoms: C_9  and  C_11
REMARK    7  A    between atoms: C_11  and  O_12
REMARK                            x       y       z     vdW  Elec       q    Type
REMARK                         _______ _______ _______ _____ _____    ______ ____
ROOT
ATOM      1  C   UNL     1      36.884 -25.285 -13.065  0.00  0.00    +0.133 C 
ENDROOT
BRANCH   1   2
ATOM      2  O   UNL     1      36.846 -26.443 -12.228  0.00  0.00    -0.383 OA
ATOM      3  H   UNL     1      35.975 -26.863 -12.296  0.00  0.00    +0.210 HD
ENDBRANCH   1   2
BRANCH   1   4
ATOM      4  C   UNL     1      35.992 -24.200 -12.455  0.00  0.00    +0.139 C 
BRANCH   4   6
ATOM      5  O   UNL     1      35.327 -24.913 -10.216  0.00  0.00    -0.250 OA
ATOM      6  C   UNL     1      36.016 -24.214 -10.944  0.00  0.00    +0.316 C 
BRANCH   6   7
ATOM      7  O   UNL     1      36.929 -23.320 -10.485  0.00  0.00    -0.480 OA
ATOM      8  H   UNL     1      36.646 -22.559 -10.016  0.00  0.00    +0.295 HD
ENDBRANCH   6   7
ENDBRANCH   4   6
ENDBRANCH   1   4
BRANCH   1   9
ATOM      9  C   UNL     1      36.375 -25.693 -14.446  0.00  0.00    +0.139 C 
BRANCH   9  11
ATOM     10  O   UNL     1      38.324 -27.118 -14.579  0.00  0.00    -0.250 OA
ATOM     11  C   UNL     1      37.265 -26.742 -15.066  0.00  0.00    +0.316 C 
BRANCH  11  12
ATOM     12  O   UNL     1      36.771 -27.219 -16.236  0.00  0.00    -0.480 OA
ATOM     13  H   UNL     1      35.845 -27.261 -16.371  0.00  0.00    +0.295 HD
ENDBRANCH  11  12
ENDBRANCH   9  11
ENDBRANCH   1   9
TORSDOF 7
ENDMDL
MODEL 5
REMARK VINA RESULT:      -5.1      2.960      4.123
REMARK  Name = 181976
REMARK  7 active torsions:
REMARK  status: ('A' for Active; 'I' for Inactive)
REMARK    1  A    between atoms: C_1  and  O_2
REMARK    2  A    between atoms: C_1  and  C_4
REMARK    3  A    between atoms: C_1  and  C_9
REMARK    4  A    between atoms: C_4  and  C_6
REMARK    5  A    between atoms: C_6  and  O_7
REMARK    6  A    between atoms: C_9  and  C_11
REMARK    7  A    between atoms: C_11  and  O_12
REMARK                            x       y       z     vdW  Elec       q    Type
REMARK                         _______ _______ _______ _____ _____    ______ ____
ROOT
ATOM      1  C   UNL     1      37.894 -24.414 -13.641  0.00  0.00    +0.133 C 
ENDROOT
BRANCH   1   2
ATOM      2  O   UNL     1      38.182 -23.916 -14.950  0.00  0.00    -0.383 OA
ATOM      3  H   UNL     1      37.984 -22.968 -14.986  0.00  0.00    +0.210 HD
ENDBRANCH   1   2
BRANCH   1   4
ATOM      4  C   UNL     1      39.084 -25.243 -13.149  0.00  0.00    +0.139 C 
BRANCH   4   6
ATOM      5  O   UNL     1      41.056 -24.885 -14.543  0.00  0.00    -0.250 OA
ATOM      6  C   UNL     1      40.072 -25.546 -14.252  0.00  0.00    +0.316 C 
BRANCH   6   7
ATOM      7  O   UNL     1      39.709 -26.684 -14.900  0.00  0.00    -0.480 OA
ATOM      8  H   UNL     1      39.286 -26.633 -15.734  0.00  0.00    +0.295 HD
ENDBRANCH   6   7
ENDBRANCH   4   6
ENDBRANCH   1   4
BRANCH   1   9
ATOM      9  C   UNL     1      36.636 -25.275 -13.737  0.00  0.00    +0.139 C 
BRANCH   9  11
ATOM     10  O   UNL     1      35.383 -24.807 -15.751  0.00  0.00    -0.250 OA
ATOM     11  C   UNL     1      36.227 -25.481 -15.176  0.00  0.00    +0.316 C 
BRANCH  11  12
ATOM     12  O   UNL     1      36.888 -26.510 -15.763  0.00  0.00    -0.480 OA
ATOM     13  H   UNL     1      36.423 -27.283 -16.014  0.00  0.00    +0.295 HD
ENDBRANCH  11  12
ENDBRANCH   9  11
ENDBRANCH   1   9
TORSDOF 7
ENDMDL
MODEL 6
REMARK VINA RESULT:      -5.1      1.591      3.999
REMARK  Name = 181976
REMARK  7 active torsions:
REMARK  status: ('A' for Active; 'I' for Inactive)
REMARK    1  A    between atoms: C_1  and  O_2
REMARK    2  A    between atoms: C_1  and  C_4
REMARK    3  A    between atoms: C_1  and  C_9
REMARK    4  A    between atoms: C_4  and  C_6
REMARK    5  A    between atoms: C_6  and  O_7
REMARK    6  A    between atoms: C_9  and  C_11
REMARK    7  A    between atoms: C_11  and  O_12
REMARK                            x       y       z     vdW  Elec       q    Type
REMARK                         _______ _______ _______ _____ _____    ______ ____
ROOT
ATOM      1  C   UNL     1      36.315 -25.390 -13.758  0.00  0.00    +0.133 C 
ENDROOT
BRANCH   1   2
ATOM      2  O   UNL     1      36.750 -26.471 -12.930  0.00  0.00    -0.383 OA
ATOM      3  H   UNL     1      36.882 -26.151 -12.024  0.00  0.00    +0.210 HD
ENDBRANCH   1   2
BRANCH   1   4
ATOM      4  C   UNL     1      37.491 -24.917 -14.618  0.00  0.00    +0.139 C 
BRANCH   4   6
ATOM      5  O   UNL     1      39.320 -26.534 -14.603  0.00  0.00    -0.250 OA
ATOM      6  C   UNL     1      38.807 -25.512 -14.175  0.00  0.00    +0.316 C 
BRANCH   6   7
ATOM      7  O   UNL     1      39.363 -24.739 -13.206  0.00  0.00    -0.480 OA
ATOM      8  H   UNL     1      40.246 -24.439 -13.295  0.00  0.00    +0.295 HD
ENDBRANCH   6   7
ENDBRANCH   4   6
ENDBRANCH   1   4
BRANCH   1   9
ATOM      9  C   UNL     1      35.827 -24.270 -12.842  0.00  0.00    +0.139 C 
BRANCH   9  11
ATOM     10  O   UNL     1      37.411 -24.222 -11.017  0.00  0.00    -0.250 OA
ATOM     11  C   UNL     1      36.287 -24.489 -11.422  0.00  0.00    +0.316 C 
BRANCH  11  12
ATOM     12  O   UNL     1      35.320 -25.030 -10.639  0.00  0.00    -0.480 OA
ATOM     13  H   UNL     1      34.633 -25.536 -11.025  0.00  0.00    +0.295 HD
ENDBRANCH  11  12
ENDBRANCH   9  11
ENDBRANCH   1   9
TORSDOF 7
ENDMDL
MODEL 7
REMARK VINA RESULT:      -5.1      1.374      4.271
REMARK  Name = 181976
REMARK  7 active torsions:
REMARK  status: ('A' for Active; 'I' for Inactive)
REMARK    1  A    between atoms: C_1  and  O_2
REMARK    2  A    between atoms: C_1  and  C_4
REMARK    3  A    between atoms: C_1  and  C_9
REMARK    4  A    between atoms: C_4  and  C_6
REMARK    5  A    between atoms: C_6  and  O_7
REMARK    6  A    between atoms: C_9  and  C_11
REMARK    7  A    between atoms: C_11  and  O_12
REMARK                            x       y       z     vdW  Elec       q    Type
REMARK                         _______ _______ _______ _____ _____    ______ ____
ROOT
ATOM      1  C   UNL     1      36.516 -25.454 -12.789  0.00  0.00    +0.133 C 
ENDROOT
BRANCH   1   2
ATOM      2  O   UNL     1      37.660 -25.709 -11.971  0.00  0.00    -0.383 OA
ATOM      3  H   UNL     1      38.335 -25.033 -12.138  0.00  0.00    +0.210 HD
ENDBRANCH   1   2
BRANCH   1   4
ATOM      4  C   UNL     1      36.976 -25.216 -14.230  0.00  0.00    +0.139 C 
BRANCH   4   6
ATOM      5  O   UNL     1      36.369 -26.930 -15.859  0.00  0.00    -0.250 OA
ATOM      6  C   UNL     1      37.132 -26.502 -15.007  0.00  0.00    +0.316 C 
BRANCH   6   7
ATOM      7  O   UNL     1      38.265 -27.144 -14.620  0.00  0.00    -0.480 OA
ATOM      8  H   UNL     1      38.306 -27.559 -13.781  0.00  0.00    +0.295 HD
ENDBRANCH   6   7
ENDBRANCH   4   6
ENDBRANCH   1   4
BRANCH   1   9
ATOM      9  C   UNL     1      35.814 -24.218 -12.232  0.00  0.00    +0.139 C 
BRANCH   9  11
ATOM     10  O   UNL     1      37.462 -22.807 -11.166  0.00  0.00    -0.250 OA
ATOM     11  C   UNL     1      36.573 -23.641 -11.061  0.00  0.00    +0.316 C 
BRANCH  11  12
ATOM     12  O   UNL     1      36.172 -24.160  -9.873  0.00  0.00    -0.480 OA
ATOM     13  H   UNL     1      36.678 -24.832  -9.461  0.00  0.00    +0.295 HD
ENDBRANCH  11  12
ENDBRANCH   9  11
ENDBRANCH   1   9
TORSDOF 7
ENDMDL
MODEL 8
REMARK VINA RESULT:      -4.9      7.170      8.381
REMARK  Name = 181976
REMARK  7 active torsions:
REMARK  status: ('A' for Active; 'I' for Inactive)
REMARK    1  A    between atoms: C_1  and  O_2
REMARK    2  A    between atoms: C_1  and  C_4
REMARK    3  A    between atoms: C_1  and  C_9
REMARK    4  A    between atoms: C_4  and  C_6
REMARK    5  A    between atoms: C_6  and  O_7
REMARK    6  A    between atoms: C_9  and  C_11
REMARK    7  A    between atoms: C_11  and  O_12
REMARK                            x       y       z     vdW  Elec       q    Type
REMARK                         _______ _______ _______ _____ _____    ______ ____
ROOT
ATOM      1  C   UNL     1      29.915 -24.213 -15.806  0.00  0.00    +0.133 C 
ENDROOT
BRANCH   1   2
ATOM      2  O   UNL     1      30.961 -23.268 -15.567  0.00  0.00    -0.383 OA
ATOM      3  H   UNL     1      30.698 -22.400 -15.912  0.00  0.00    +0.210 HD
ENDBRANCH   1   2
BRANCH   1   4
ATOM      4  C   UNL     1      28.564 -23.531 -15.574  0.00  0.00    +0.139 C 
BRANCH   4   6
ATOM      5  O   UNL     1      27.854 -21.733 -17.064  0.00  0.00    -0.250 OA
ATOM      6  C   UNL     1      27.999 -22.924 -16.837  0.00  0.00    +0.316 C 
BRANCH   6   7
ATOM      7  O   UNL     1      27.659 -23.905 -17.713  0.00  0.00    -0.480 OA
ATOM      8  H   UNL     1      28.010 -23.899 -18.582  0.00  0.00    +0.295 HD
ENDBRANCH   6   7
ENDBRANCH   4   6
ENDBRANCH   1   4
BRANCH   1   9
ATOM      9  C   UNL     1      30.110 -25.376 -14.836  0.00  0.00    +0.139 C 
BRANCH   9  11
ATOM     10  O   UNL     1      30.717 -24.297 -12.759  0.00  0.00    -0.250 OA
ATOM     11  C   UNL     1      31.042 -24.996 -13.710  0.00  0.00    +0.316 C 
BRANCH  11  12
ATOM     12  O   UNL     1      32.290 -25.502 -13.873  0.00  0.00    -0.480 OA
ATOM     13  H   UNL     1      32.479 -26.379 -13.603  0.00  0.00    +0.295 HD
ENDBRANCH  11  12
ENDBRANCH   9  11
ENDBRANCH   1   9
TORSDOF 7
ENDMDL
MODEL 9
REMARK VINA RESULT:      -4.8      7.332      8.492
REMARK  Name = 181976
REMARK  7 active torsions:
REMARK  status: ('A' for Active; 'I' for Inactive)
REMARK    1  A    between atoms: C_1  and  O_2
REMARK    2  A    between atoms: C_1  and  C_4
REMARK    3  A    between atoms: C_1  and  C_9
REMARK    4  A    between atoms: C_4  and  C_6
REMARK    5  A    between atoms: C_6  and  O_7
REMARK    6  A    between atoms: C_9  and  C_11
REMARK    7  A    between atoms: C_11  and  O_12
REMARK                            x       y       z     vdW  Elec       q    Type
REMARK                         _______ _______ _______ _____ _____    ______ ____
ROOT
ATOM      1  C   UNL     1      29.982 -23.142 -15.521  0.00  0.00    +0.133 C 
ENDROOT
BRANCH   1   2
ATOM      2  O   UNL     1      30.398 -22.715 -16.821  0.00  0.00    -0.383 OA
ATOM      3  H   UNL     1      30.815 -23.455 -17.287  0.00  0.00    +0.210 HD
ENDBRANCH   1   2
BRANCH   1   4
ATOM      4  C   UNL     1      30.523 -24.551 -15.263  0.00  0.00    +0.139 C 
BRANCH   4   6
ATOM      5  O   UNL     1      30.646 -24.201 -12.850  0.00  0.00    -0.250 OA
ATOM      6  C   UNL     1      31.088 -24.706 -13.870  0.00  0.00    +0.316 C 
BRANCH   6   7
ATOM      7  O   UNL     1      32.189 -25.502 -13.901  0.00  0.00    -0.480 OA
ATOM      8  H   UNL     1      32.792 -25.495 -13.184  0.00  0.00    +0.295 HD
ENDBRANCH   6   7
ENDBRANCH   4   6
ENDBRANCH   1   4
BRANCH   1   9
ATOM      9  C   UNL     1      28.455 -23.135 -15.497  0.00  0.00    +0.139 C 
BRANCH   9  11
ATOM     10  O   UNL     1      27.599 -21.628 -17.183  0.00  0.00    -0.250 OA
ATOM     11  C   UNL     1      27.890 -22.768 -16.849  0.00  0.00    +0.316 C 
BRANCH  11  12
ATOM     12  O   UNL     1      27.726 -23.848 -17.654  0.00  0.00    -0.480 OA
ATOM     13  H   UNL     1      28.259 -24.608 -17.533  0.00  0.00    +0.295 HD
ENDBRANCH  11  12
ENDBRANCH   9  11
ENDBRANCH   1   9
TORSDOF 7
ENDMDL
