MODEL 1
REMARK VINA RESULT:      -9.0      0.000      0.000
REMARK  Name = 447911
REMARK  7 active torsions:
REMARK  status: ('A' for Active; 'I' for Inactive)
REMARK    1  A    between atoms: C_1  and  C_14
REMARK    2  A    between atoms: C_4  and  N_7
REMARK    3  A    between atoms: N_7  and  C_9
REMARK    4  A    between atoms: C_9  and  C_13
REMARK    5  A    between atoms: C_14  and  C_18
REMARK    6  A    between atoms: C_14  and  C_22
REMARK    7  A    between atoms: C_14  and  O_23
REMARK                            x       y       z     vdW  Elec       q    Type
REMARK                         _______ _______ _______ _____ _____    ______ ____
ROOT
ATOM      1  C   UNL     1      34.671 -19.611 -20.974  0.00  0.00    +0.018 C 
ATOM      2  C   UNL     1      33.283 -19.716 -20.884  0.00  0.00    -0.000 C 
ATOM      3  C   UNL     1      35.484 -20.525 -20.303  0.00  0.00    -0.000 C 
ATOM      4  C   UNL     1      33.520 -21.648 -19.453  0.00  0.00    +0.045 C 
ATOM      5  C   UNL     1      32.708 -20.734 -20.125  0.00  0.00    +0.014 C 
ATOM      6  C   UNL     1      34.908 -21.543 -19.542  0.00  0.00    +0.014 C 
ENDROOT
BRANCH   4   7
ATOM      7  N   UNL     1      32.939 -22.677 -18.684  0.00  0.00    -0.326 N 
ATOM      8  H   UNL     1      32.213 -23.209 -19.082  0.00  0.00    +0.147 HD
BRANCH   7   9
ATOM      9  C   UNL     1      33.356 -22.981 -17.350  0.00  0.00    +0.192 C 
BRANCH   9  13
ATOM     10  F   UNL     1      31.143 -22.321 -16.908  0.00  0.00    -0.168 F 
ATOM     11  F   UNL     1      31.706 -24.354 -16.360  0.00  0.00    -0.168 F 
ATOM     12  F   UNL     1      32.444 -22.659 -15.193  0.00  0.00    -0.168 F 
ATOM     13  C   UNL     1      32.156 -23.084 -16.442  0.00  0.00    +0.415 C 
ENDBRANCH   9  13
ENDBRANCH   7   9
ENDBRANCH   4   7
BRANCH   1  14
ATOM     14  C   UNL     1      35.286 -18.524 -21.788  0.00  0.00    +0.283 C 
BRANCH  14  18
ATOM     15  F   UNL     1      35.270 -16.178 -22.218  0.00  0.00    -0.167 F 
ATOM     16  F   UNL     1      35.309 -16.792 -20.125  0.00  0.00    -0.167 F 
ATOM     17  F   UNL     1      33.484 -17.006 -21.287  0.00  0.00    -0.167 F 
ATOM     18  C   UNL     1      34.832 -17.115 -21.346  0.00  0.00    +0.431 C 
ENDBRANCH  14  18
BRANCH  14  22
ATOM     19  F   UNL     1      36.061 -18.153 -24.012  0.00  0.00    -0.167 F 
ATOM     20  F   UNL     1      33.903 -18.111 -23.716  0.00  0.00    -0.167 F 
ATOM     21  F   UNL     1      34.968 -20.006 -23.651  0.00  0.00    -0.167 F 
ATOM     22  C   UNL     1      35.049 -18.703 -23.304  0.00  0.00    +0.431 C 
ENDBRANCH  14  22
BRANCH  14  23
ATOM     23  O   UNL     1      36.728 -18.511 -21.639  0.00  0.00    -0.369 OA
ATOM     24  H   UNL     1      37.008 -17.654 -21.281  0.00  0.00    +0.211 HD
ENDBRANCH  14  23
ENDBRANCH   1  14
TORSDOF 7
ENDMDL
MODEL 2
REMARK VINA RESULT:      -8.9      0.087      1.380
REMARK  Name = 447911
REMARK  7 active torsions:
REMARK  status: ('A' for Active; 'I' for Inactive)
REMARK    1  A    between atoms: C_1  and  C_14
REMARK    2  A    between atoms: C_4  and  N_7
REMARK    3  A    between atoms: N_7  and  C_9
REMARK    4  A    between atoms: C_9  and  C_13
REMARK    5  A    between atoms: C_14  and  C_18
REMARK    6  A    between atoms: C_14  and  C_22
REMARK    7  A    between atoms: C_14  and  O_23
REMARK                            x       y       z     vdW  Elec       q    Type
REMARK                         _______ _______ _______ _____ _____    ______ ____
ROOT
ATOM      1  C   UNL     1      34.666 -19.655 -20.925  0.00  0.00    +0.018 C 
ATOM      2  C   UNL     1      33.279 -19.756 -20.837  0.00  0.00    -0.000 C 
ATOM      3  C   UNL     1      35.477 -20.573 -20.257  0.00  0.00    -0.000 C 
ATOM      4  C   UNL     1      33.510 -21.694 -19.413  0.00  0.00    +0.045 C 
ATOM      5  C   UNL     1      32.701 -20.776 -20.082  0.00  0.00    +0.014 C 
ATOM      6  C   UNL     1      34.898 -21.593 -19.500  0.00  0.00    +0.014 C 
ENDROOT
BRANCH   4   7
ATOM      7  N   UNL     1      32.925 -22.725 -18.648  0.00  0.00    -0.326 N 
ATOM      8  H   UNL     1      32.226 -23.280 -19.062  0.00  0.00    +0.147 HD
BRANCH   7   9
ATOM      9  C   UNL     1      33.303 -22.999 -17.296  0.00  0.00    +0.192 C 
BRANCH   9  13
ATOM     10  F   UNL     1      31.609 -24.350 -16.382  0.00  0.00    -0.168 F 
ATOM     11  F   UNL     1      32.347 -22.707 -15.153  0.00  0.00    -0.168 F 
ATOM     12  F   UNL     1      31.082 -22.296 -16.889  0.00  0.00    -0.168 F 
ATOM     13  C   UNL     1      32.077 -23.083 -16.422  0.00  0.00    +0.415 C 
ENDBRANCH   9  13
ENDBRANCH   7   9
ENDBRANCH   4   7
BRANCH   1  14
ATOM     14  C   UNL     1      35.285 -18.566 -21.735  0.00  0.00    +0.283 C 
BRANCH  14  18
ATOM     15  F   UNL     1      35.385 -16.804 -20.131  0.00  0.00    -0.167 F 
ATOM     16  F   UNL     1      33.475 -17.103 -21.143  0.00  0.00    -0.167 F 
ATOM     17  F   UNL     1      35.143 -16.209 -22.212  0.00  0.00    -0.167 F 
ATOM     18  C   UNL     1      34.814 -17.159 -21.305  0.00  0.00    +0.431 C 
ENDBRANCH  14  18
BRANCH  14  22
ATOM     19  F   UNL     1      35.004 -20.066 -23.566  0.00  0.00    -0.167 F 
ATOM     20  F   UNL     1      36.081 -18.219 -23.982  0.00  0.00    -0.167 F 
ATOM     21  F   UNL     1      33.928 -18.172 -23.677  0.00  0.00    -0.167 F 
ATOM     22  C   UNL     1      35.071 -18.753 -23.254  0.00  0.00    +0.431 C 
ENDBRANCH  14  22
BRANCH  14  23
ATOM     23  O   UNL     1      36.724 -18.541 -21.565  0.00  0.00    -0.369 OA
ATOM     24  H   UNL     1      37.095 -17.790 -22.054  0.00  0.00    +0.211 HD
ENDBRANCH  14  23
ENDBRANCH   1  14
TORSDOF 7
ENDMDL
MODEL 3
REMARK VINA RESULT:      -8.3      4.228      8.281
REMARK  Name = 447911
REMARK  7 active torsions:
REMARK  status: ('A' for Active; 'I' for Inactive)
REMARK    1  A    between atoms: C_1  and  C_14
REMARK    2  A    between atoms: C_4  and  N_7
REMARK    3  A    between atoms: N_7  and  C_9
REMARK    4  A    between atoms: C_9  and  C_13
REMARK    5  A    between atoms: C_14  and  C_18
REMARK    6  A    between atoms: C_14  and  C_22
REMARK    7  A    between atoms: C_14  and  O_23
REMARK                            x       y       z     vdW  Elec       q    Type
REMARK                         _______ _______ _______ _____ _____    ______ ____
ROOT
ATOM      1  C   UNL     1      34.638 -17.435 -22.745  0.00  0.00    +0.018 C 
ATOM      2  C   UNL     1      34.696 -18.083 -23.979  0.00  0.00    -0.000 C 
ATOM      3  C   UNL     1      34.256 -16.095 -22.678  0.00  0.00    -0.000 C 
ATOM      4  C   UNL     1      33.991 -16.051 -25.080  0.00  0.00    +0.045 C 
ATOM      5  C   UNL     1      34.372 -17.391 -25.146  0.00  0.00    +0.014 C 
ATOM      6  C   UNL     1      33.933 -15.403 -23.847  0.00  0.00    +0.014 C 
ENDROOT
BRANCH   4   7
ATOM      7  N   UNL     1      33.665 -15.351 -26.261  0.00  0.00    -0.326 N 
ATOM      8  H   UNL     1      34.151 -15.571 -27.087  0.00  0.00    +0.147 HD
BRANCH   7   9
ATOM      9  C   UNL     1      32.660 -14.336 -26.309  0.00  0.00    +0.192 C 
BRANCH   9  13
ATOM     10  F   UNL     1      33.610 -12.186 -26.243  0.00  0.00    -0.168 F 
ATOM     11  F   UNL     1      34.185 -13.481 -27.900  0.00  0.00    -0.168 F 
ATOM     12  F   UNL     1      32.186 -12.598 -27.841  0.00  0.00    -0.168 F 
ATOM     13  C   UNL     1      33.163 -13.144 -27.085  0.00  0.00    +0.415 C 
ENDBRANCH   9  13
ENDBRANCH   7   9
ENDBRANCH   4   7
BRANCH   1  14
ATOM     14  C   UNL     1      34.981 -18.175 -21.497  0.00  0.00    +0.283 C 
BRANCH  14  18
ATOM     15  F   UNL     1      36.035 -20.222 -22.120  0.00  0.00    -0.167 F 
ATOM     16  F   UNL     1      36.903 -19.145 -20.432  0.00  0.00    -0.167 F 
ATOM     17  F   UNL     1      37.180 -18.399 -22.455  0.00  0.00    -0.167 F 
ATOM     18  C   UNL     1      36.288 -18.989 -21.624  0.00  0.00    +0.431 C 
ENDBRANCH  14  18
BRANCH  14  22
ATOM     19  F   UNL     1      32.790 -18.350 -20.574  0.00  0.00    -0.167 F 
ATOM     20  F   UNL     1      34.219 -19.883 -19.980  0.00  0.00    -0.167 F 
ATOM     21  F   UNL     1      33.385 -19.901 -21.988  0.00  0.00    -0.167 F 
ATOM     22  C   UNL     1      33.836 -19.089 -21.007  0.00  0.00    +0.431 C 
ENDBRANCH  14  22
BRANCH  14  23
ATOM     23  O   UNL     1      35.220 -17.262 -20.397  0.00  0.00    -0.369 OA
ATOM     24  H   UNL     1      35.089 -17.727 -19.556  0.00  0.00    +0.211 HD
ENDBRANCH  14  23
ENDBRANCH   1  14
TORSDOF 7
ENDMDL
MODEL 4
REMARK VINA RESULT:      -8.2      7.262      8.603
REMARK  Name = 447911
REMARK  7 active torsions:
REMARK  status: ('A' for Active; 'I' for Inactive)
REMARK    1  A    between atoms: C_1  and  C_14
REMARK    2  A    between atoms: C_4  and  N_7
REMARK    3  A    between atoms: N_7  and  C_9
REMARK    4  A    between atoms: C_9  and  C_13
REMARK    5  A    between atoms: C_14  and  C_18
REMARK    6  A    between atoms: C_14  and  C_22
REMARK    7  A    between atoms: C_14  and  O_23
REMARK                            x       y       z     vdW  Elec       q    Type
REMARK                         _______ _______ _______ _____ _____    ______ ____
ROOT
ATOM      1  C   UNL     1      34.815 -24.294 -14.204  0.00  0.00    +0.018 C 
ATOM      2  C   UNL     1      34.799 -23.827 -15.518  0.00  0.00    -0.000 C 
ATOM      3  C   UNL     1      33.634 -24.333 -13.462  0.00  0.00    -0.000 C 
ATOM      4  C   UNL     1      32.420 -23.437 -15.350  0.00  0.00    +0.045 C 
ATOM      5  C   UNL     1      33.602 -23.400 -16.091  0.00  0.00    +0.014 C 
ATOM      6  C   UNL     1      32.436 -23.904 -14.036  0.00  0.00    +0.014 C 
ENDROOT
BRANCH   4   7
ATOM      7  N   UNL     1      31.209 -23.004 -15.930  0.00  0.00    -0.326 N 
ATOM      8  H   UNL     1      31.231 -22.630 -16.840  0.00  0.00    +0.147 HD
BRANCH   7   9
ATOM      9  C   UNL     1      29.952 -23.083 -15.254  0.00  0.00    +0.192 C 
BRANCH   9  13
ATOM     10  F   UNL     1      28.565 -24.882 -14.645  0.00  0.00    -0.168 F 
ATOM     11  F   UNL     1      28.275 -24.025 -16.629  0.00  0.00    -0.168 F 
ATOM     12  F   UNL     1      30.040 -25.245 -16.209  0.00  0.00    -0.168 F 
ATOM     13  C   UNL     1      29.204 -24.317 -15.694  0.00  0.00    +0.415 C 
ENDBRANCH   9  13
ENDBRANCH   7   9
ENDBRANCH   4   7
BRANCH   1  14
ATOM     14  C   UNL     1      36.095 -24.753 -13.591  0.00  0.00    +0.283 C 
BRANCH  14  18
ATOM     15  F   UNL     1      36.464 -22.814 -12.253  0.00  0.00    -0.167 F 
ATOM     16  F   UNL     1      37.300 -22.790 -14.268  0.00  0.00    -0.167 F 
ATOM     17  F   UNL     1      38.218 -24.016 -12.725  0.00  0.00    -0.167 F 
ATOM     18  C   UNL     1      37.030 -23.584 -13.210  0.00  0.00    +0.431 C 
ENDBRANCH  14  18
BRANCH  14  22
ATOM     19  F   UNL     1      37.569 -26.623 -13.712  0.00  0.00    -0.167 F 
ATOM     20  F   UNL     1      37.720 -25.163 -15.321  0.00  0.00    -0.167 F 
ATOM     21  F   UNL     1      36.010 -26.504 -15.233  0.00  0.00    -0.167 F 
ATOM     22  C   UNL     1      36.852 -25.768 -14.476  0.00  0.00    +0.431 C 
ENDBRANCH  14  22
BRANCH  14  23
ATOM     23  O   UNL     1      35.856 -25.455 -12.346  0.00  0.00    -0.369 OA
ATOM     24  H   UNL     1      35.033 -25.964 -12.414  0.00  0.00    +0.211 HD
ENDBRANCH  14  23
ENDBRANCH   1  14
TORSDOF 7
ENDMDL
MODEL 5
REMARK VINA RESULT:      -8.1      7.402      9.288
REMARK  Name = 447911
REMARK  7 active torsions:
REMARK  status: ('A' for Active; 'I' for Inactive)
REMARK    1  A    between atoms: C_1  and  C_14
REMARK    2  A    between atoms: C_4  and  N_7
REMARK    3  A    between atoms: N_7  and  C_9
REMARK    4  A    between atoms: C_9  and  C_13
REMARK    5  A    between atoms: C_14  and  C_18
REMARK    6  A    between atoms: C_14  and  C_22
REMARK    7  A    between atoms: C_14  and  O_23
REMARK                            x       y       z     vdW  Elec       q    Type
REMARK                         _______ _______ _______ _____ _____    ______ ____
ROOT
ATOM      1  C   UNL     1      35.907 -24.037 -13.975  0.00  0.00    +0.018 C 
ATOM      2  C   UNL     1      35.769 -23.448 -15.231  0.00  0.00    -0.000 C 
ATOM      3  C   UNL     1      34.774 -24.328 -13.213  0.00  0.00    -0.000 C 
ATOM      4  C   UNL     1      33.367 -23.440 -14.966  0.00  0.00    +0.045 C 
ATOM      5  C   UNL     1      34.500 -23.150 -15.727  0.00  0.00    +0.014 C 
ATOM      6  C   UNL     1      33.505 -24.029 -13.709  0.00  0.00    +0.014 C 
ENDROOT
BRANCH   4   7
ATOM      7  N   UNL     1      32.084 -23.138 -15.467  0.00  0.00    -0.326 N 
ATOM      8  H   UNL     1      31.886 -22.209 -15.723  0.00  0.00    +0.147 HD
BRANCH   7   9
ATOM      9  C   UNL     1      31.057 -24.121 -15.617  0.00  0.00    +0.192 C 
BRANCH   9  13
ATOM     10  F   UNL     1      30.171 -24.328 -13.449  0.00  0.00    -0.168 F 
ATOM     11  F   UNL     1      29.716 -22.498 -14.543  0.00  0.00    -0.168 F 
ATOM     12  F   UNL     1      28.762 -24.381 -15.112  0.00  0.00    -0.168 F 
ATOM     13  C   UNL     1      29.915 -23.826 -14.678  0.00  0.00    +0.415 C 
ENDBRANCH   9  13
ENDBRANCH   7   9
ENDBRANCH   4   7
BRANCH   1  14
ATOM     14  C   UNL     1      37.263 -24.358 -13.446  0.00  0.00    +0.283 C 
BRANCH  14  18
ATOM     15  F   UNL     1      38.864 -26.125 -13.503  0.00  0.00    -0.167 F 
ATOM     16  F   UNL     1      36.909 -26.542 -14.379  0.00  0.00    -0.167 F 
ATOM     17  F   UNL     1      37.131 -26.427 -12.219  0.00  0.00    -0.167 F 
ATOM     18  C   UNL     1      37.539 -25.877 -13.387  0.00  0.00    +0.431 C 
ENDBRANCH  14  18
BRANCH  14  22
ATOM     19  F   UNL     1      38.830 -23.878 -11.714  0.00  0.00    -0.167 F 
ATOM     20  F   UNL     1      36.782 -24.275 -11.087  0.00  0.00    -0.167 F 
ATOM     21  F   UNL     1      37.270 -22.394 -12.063  0.00  0.00    -0.167 F 
ATOM     22  C   UNL     1      37.535 -23.719 -12.065  0.00  0.00    +0.431 C 
ENDBRANCH  14  22
BRANCH  14  23
ATOM     23  O   UNL     1      38.300 -23.828 -14.308  0.00  0.00    -0.369 OA
ATOM     24  H   UNL     1      38.980 -24.504 -14.450  0.00  0.00    +0.211 HD
ENDBRANCH  14  23
ENDBRANCH   1  14
TORSDOF 7
ENDMDL
MODEL 6
REMARK VINA RESULT:      -8.0      4.456      7.473
REMARK  Name = 447911
REMARK  7 active torsions:
REMARK  status: ('A' for Active; 'I' for Inactive)
REMARK    1  A    between atoms: C_1  and  C_14
REMARK    2  A    between atoms: C_4  and  N_7
REMARK    3  A    between atoms: N_7  and  C_9
REMARK    4  A    between atoms: C_9  and  C_13
REMARK    5  A    between atoms: C_14  and  C_18
REMARK    6  A    between atoms: C_14  and  C_22
REMARK    7  A    between atoms: C_14  and  O_23
REMARK                            x       y       z     vdW  Elec       q    Type
REMARK                         _______ _______ _______ _____ _____    ______ ____
ROOT
ATOM      1  C   UNL     1      34.198 -16.448 -22.508  0.00  0.00    +0.018 C 
ATOM      2  C   UNL     1      34.272 -15.552 -23.574  0.00  0.00    -0.000 C 
ATOM      3  C   UNL     1      33.315 -16.207 -21.454  0.00  0.00    -0.000 C 
ATOM      4  C   UNL     1      32.581 -14.174 -22.534  0.00  0.00    +0.045 C 
ATOM      5  C   UNL     1      33.463 -14.416 -23.587  0.00  0.00    +0.014 C 
ATOM      6  C   UNL     1      32.507 -15.070 -21.468  0.00  0.00    +0.014 C 
ENDROOT
BRANCH   4   7
ATOM      7  N   UNL     1      31.764 -13.025 -22.548  0.00  0.00    -0.326 N 
ATOM      8  H   UNL     1      30.855 -13.098 -22.917  0.00  0.00    +0.147 HD
BRANCH   7   9
ATOM      9  C   UNL     1      32.199 -11.757 -22.050  0.00  0.00    +0.192 C 
BRANCH   9  13
ATOM     10  F   UNL     1      30.119 -11.496 -20.984  0.00  0.00    -0.168 F 
ATOM     11  F   UNL     1      31.768 -12.259 -19.780  0.00  0.00    -0.168 F 
ATOM     12  F   UNL     1      31.726 -10.156 -20.375  0.00  0.00    -0.168 F 
ATOM     13  C   UNL     1      31.453 -11.414 -20.784  0.00  0.00    +0.415 C 
ENDBRANCH   9  13
ENDBRANCH   7   9
ENDBRANCH   4   7
BRANCH   1  14
ATOM     14  C   UNL     1      35.061 -17.664 -22.493  0.00  0.00    +0.283 C 
BRANCH  14  18
ATOM     15  F   UNL     1      35.306 -19.866 -23.375  0.00  0.00    -0.167 F 
ATOM     16  F   UNL     1      33.925 -18.539 -24.420  0.00  0.00    -0.167 F 
ATOM     17  F   UNL     1      33.374 -19.383 -22.494  0.00  0.00    -0.167 F 
ATOM     18  C   UNL     1      34.407 -18.870 -23.203  0.00  0.00    +0.431 C 
ENDBRANCH  14  18
BRANCH  14  22
ATOM     19  F   UNL     1      36.738 -18.621 -21.095  0.00  0.00    -0.167 F 
ATOM     20  F   UNL     1      34.669 -18.973 -20.510  0.00  0.00    -0.167 F 
ATOM     21  F   UNL     1      35.552 -17.004 -20.237  0.00  0.00    -0.167 F 
ATOM     22  C   UNL     1      35.506 -18.067 -21.069  0.00  0.00    +0.431 C 
ENDBRANCH  14  22
BRANCH  14  23
ATOM     23  O   UNL     1      36.297 -17.437 -23.215  0.00  0.00    -0.369 OA
ATOM     24  H   UNL     1      36.108 -16.961 -24.039  0.00  0.00    +0.211 HD
ENDBRANCH  14  23
ENDBRANCH   1  14
TORSDOF 7
ENDMDL
MODEL 7
REMARK VINA RESULT:      -8.0      5.467      9.563
REMARK  Name = 447911
REMARK  7 active torsions:
REMARK  status: ('A' for Active; 'I' for Inactive)
REMARK    1  A    between atoms: C_1  and  C_14
REMARK    2  A    between atoms: C_4  and  N_7
REMARK    3  A    between atoms: N_7  and  C_9
REMARK    4  A    between atoms: C_9  and  C_13
REMARK    5  A    between atoms: C_14  and  C_18
REMARK    6  A    between atoms: C_14  and  C_22
REMARK    7  A    between atoms: C_14  and  O_23
REMARK                            x       y       z     vdW  Elec       q    Type
REMARK                         _______ _______ _______ _____ _____    ______ ____
ROOT
ATOM      1  C   UNL     1      36.522 -23.944 -14.214  0.00  0.00    +0.018 C 
ATOM      2  C   UNL     1      37.728 -23.570 -14.805  0.00  0.00    -0.000 C 
ATOM      3  C   UNL     1      35.312 -23.583 -14.808  0.00  0.00    -0.000 C 
ATOM      4  C   UNL     1      36.516 -22.470 -16.583  0.00  0.00    +0.045 C 
ATOM      5  C   UNL     1      37.725 -22.833 -15.989  0.00  0.00    +0.014 C 
ATOM      6  C   UNL     1      35.310 -22.845 -15.993  0.00  0.00    +0.014 C 
ENDROOT
BRANCH   4   7
ATOM      7  N   UNL     1      36.514 -21.725 -17.781  0.00  0.00    -0.326 N 
ATOM      8  H   UNL     1      37.260 -21.106 -17.951  0.00  0.00    +0.147 HD
BRANCH   7   9
ATOM      9  C   UNL     1      35.476 -21.829 -18.758  0.00  0.00    +0.192 C 
BRANCH   9  13
ATOM     10  F   UNL     1      36.850 -20.161 -19.686  0.00  0.00    -0.168 F 
ATOM     11  F   UNL     1      36.143 -21.730 -21.025  0.00  0.00    -0.168 F 
ATOM     12  F   UNL     1      34.761 -20.193 -20.309  0.00  0.00    -0.168 F 
ATOM     13  C   UNL     1      35.805 -20.975 -19.957  0.00  0.00    +0.415 C 
ENDBRANCH   9  13
ENDBRANCH   7   9
ENDBRANCH   4   7
BRANCH   1  14
ATOM     14  C   UNL     1      36.524 -24.734 -12.949  0.00  0.00    +0.283 C 
BRANCH  14  18
ATOM     15  F   UNL     1      36.835 -22.603 -11.924  0.00  0.00    -0.167 F 
ATOM     16  F   UNL     1      38.373 -24.105 -11.552  0.00  0.00    -0.167 F 
ATOM     17  F   UNL     1      36.433 -24.274 -10.586  0.00  0.00    -0.167 F 
ATOM     18  C   UNL     1      37.049 -23.926 -11.741  0.00  0.00    +0.431 C 
ENDBRANCH  14  18
BRANCH  14  22
ATOM     19  F   UNL     1      37.164 -26.801 -11.949  0.00  0.00    -0.167 F 
ATOM     20  F   UNL     1      38.627 -25.864 -13.263  0.00  0.00    -0.167 F 
ATOM     21  F   UNL     1      36.861 -26.809 -14.108  0.00  0.00    -0.167 F 
ATOM     22  C   UNL     1      37.302 -26.063 -13.073  0.00  0.00    +0.431 C 
ENDBRANCH  14  22
BRANCH  14  23
ATOM     23  O   UNL     1      35.180 -25.126 -12.575  0.00  0.00    -0.369 OA
ATOM     24  H   UNL     1      34.539 -24.654 -13.130  0.00  0.00    +0.211 HD
ENDBRANCH  14  23
ENDBRANCH   1  14
TORSDOF 7
ENDMDL
MODEL 8
REMARK VINA RESULT:      -7.9      8.304     10.662
REMARK  Name = 447911
REMARK  7 active torsions:
REMARK  status: ('A' for Active; 'I' for Inactive)
REMARK    1  A    between atoms: C_1  and  C_14
REMARK    2  A    between atoms: C_4  and  N_7
REMARK    3  A    between atoms: N_7  and  C_9
REMARK    4  A    between atoms: C_9  and  C_13
REMARK    5  A    between atoms: C_14  and  C_18
REMARK    6  A    between atoms: C_14  and  C_22
REMARK    7  A    between atoms: C_14  and  O_23
REMARK                            x       y       z     vdW  Elec       q    Type
REMARK                         _______ _______ _______ _____ _____    ______ ____
ROOT
ATOM      1  C   UNL     1      32.377  -9.275 -22.683  0.00  0.00    +0.018 C 
ATOM      2  C   UNL     1      33.207 -10.063 -23.480  0.00  0.00    -0.000 C 
ATOM      3  C   UNL     1      31.441  -9.878 -21.841  0.00  0.00    -0.000 C 
ATOM      4  C   UNL     1      32.168 -12.056 -22.593  0.00  0.00    +0.045 C 
ATOM      5  C   UNL     1      33.103 -11.453 -23.434  0.00  0.00    +0.014 C 
ATOM      6  C   UNL     1      31.337 -11.268 -21.797  0.00  0.00    +0.014 C 
ENDROOT
BRANCH   4   7
ATOM      7  N   UNL     1      32.062 -13.462 -22.548  0.00  0.00    -0.326 N 
ATOM      8  H   UNL     1      31.207 -13.878 -22.799  0.00  0.00    +0.147 HD
BRANCH   7   9
ATOM      9  C   UNL     1      33.143 -14.310 -22.152  0.00  0.00    +0.192 C 
BRANCH   9  13
ATOM     10  F   UNL     1      32.102 -15.884 -20.750  0.00  0.00    -0.168 F 
ATOM     11  F   UNL     1      34.083 -15.185 -20.167  0.00  0.00    -0.168 F 
ATOM     12  F   UNL     1      32.352 -13.864 -19.969  0.00  0.00    -0.168 F 
ATOM     13  C   UNL     1      32.923 -14.810 -20.747  0.00  0.00    +0.415 C 
ENDBRANCH   9  13
ENDBRANCH   7   9
ENDBRANCH   4   7
BRANCH   1  14
ATOM     14  C   UNL     1      32.489  -7.789 -22.730  0.00  0.00    +0.283 C 
BRANCH  14  18
ATOM     15  F   UNL     1      32.581  -5.799 -21.419  0.00  0.00    -0.167 F 
ATOM     16  F   UNL     1      33.584  -7.557 -20.605  0.00  0.00    -0.167 F 
ATOM     17  F   UNL     1      31.413  -7.446 -20.602  0.00  0.00    -0.167 F 
ATOM     18  C   UNL     1      32.518  -7.147 -21.325  0.00  0.00    +0.431 C 
ENDBRANCH  14  18
BRANCH  14  22
ATOM     19  F   UNL     1      31.863  -6.036 -24.220  0.00  0.00    -0.167 F 
ATOM     20  F   UNL     1      30.327  -6.734 -22.843  0.00  0.00    -0.167 F 
ATOM     21  F   UNL     1      30.911  -7.974 -24.531  0.00  0.00    -0.167 F 
ATOM     22  C   UNL     1      31.385  -7.131 -23.588  0.00  0.00    +0.431 C 
ENDBRANCH  14  22
BRANCH  14  23
ATOM     23  O   UNL     1      33.733  -7.378 -23.350  0.00  0.00    -0.369 OA
ATOM     24  H   UNL     1      34.426  -7.318 -22.674  0.00  0.00    +0.211 HD
ENDBRANCH  14  23
ENDBRANCH   1  14
TORSDOF 7
ENDMDL
MODEL 9
REMARK VINA RESULT:      -7.8      7.150      9.018
REMARK  Name = 447911
REMARK  7 active torsions:
REMARK  status: ('A' for Active; 'I' for Inactive)
REMARK    1  A    between atoms: C_1  and  C_14
REMARK    2  A    between atoms: C_4  and  N_7
REMARK    3  A    between atoms: N_7  and  C_9
REMARK    4  A    between atoms: C_9  and  C_13
REMARK    5  A    between atoms: C_14  and  C_18
REMARK    6  A    between atoms: C_14  and  C_22
REMARK    7  A    between atoms: C_14  and  O_23
REMARK                            x       y       z     vdW  Elec       q    Type
REMARK                         _______ _______ _______ _____ _____    ______ ____
ROOT
ATOM      1  C   UNL     1      35.560 -24.370 -13.672  0.00  0.00    +0.018 C 
ATOM      2  C   UNL     1      34.303 -24.386 -13.070  0.00  0.00    -0.000 C 
ATOM      3  C   UNL     1      35.695 -23.950 -14.997  0.00  0.00    -0.000 C 
ATOM      4  C   UNL     1      33.312 -23.565 -15.115  0.00  0.00    +0.045 C 
ATOM      5  C   UNL     1      33.179 -23.984 -13.791  0.00  0.00    +0.014 C 
ATOM      6  C   UNL     1      34.570 -23.548 -15.718  0.00  0.00    +0.014 C 
ENDROOT
BRANCH   4   7
ATOM      7  N   UNL     1      32.175 -23.159 -15.845  0.00  0.00    -0.326 N 
ATOM      8  H   UNL     1      32.196 -22.288 -16.302  0.00  0.00    +0.147 HD
BRANCH   7   9
ATOM      9  C   UNL     1      30.993 -23.956 -15.948  0.00  0.00    +0.192 C 
BRANCH   9  13
ATOM     10  F   UNL     1      28.747 -23.916 -15.254  0.00  0.00    -0.168 F 
ATOM     11  F   UNL     1      30.019 -22.266 -14.611  0.00  0.00    -0.168 F 
ATOM     12  F   UNL     1      29.372 -22.405 -16.695  0.00  0.00    -0.168 F 
ATOM     13  C   UNL     1      29.777 -23.124 -15.626  0.00  0.00    +0.415 C 
ENDBRANCH   9  13
ENDBRANCH   7   9
ENDBRANCH   4   7
BRANCH   1  14
ATOM     14  C   UNL     1      36.763 -24.798 -12.901  0.00  0.00    +0.283 C 
BRANCH  14  18
ATOM     15  F   UNL     1      38.636 -23.954 -11.691  0.00  0.00    -0.167 F 
ATOM     16  F   UNL     1      36.660 -23.442 -10.922  0.00  0.00    -0.167 F 
ATOM     17  F   UNL     1      37.407 -22.484 -12.725  0.00  0.00    -0.167 F 
ATOM     18  C   UNL     1      37.367 -23.658 -12.052  0.00  0.00    +0.431 C 
ENDBRANCH  14  18
BRANCH  14  22
ATOM     19  F   UNL     1      38.517 -24.468 -14.481  0.00  0.00    -0.167 F 
ATOM     20  F   UNL     1      37.340 -26.287 -14.704  0.00  0.00    -0.167 F 
ATOM     21  F   UNL     1      38.766 -26.113 -13.071  0.00  0.00    -0.167 F 
ATOM     22  C   UNL     1      37.856 -25.426 -13.795  0.00  0.00    +0.431 C 
ENDBRANCH  14  22
BRANCH  14  23
ATOM     23  O   UNL     1      36.429 -25.834 -11.944  0.00  0.00    -0.369 OA
ATOM     24  H   UNL     1      36.956 -25.713 -11.139  0.00  0.00    +0.211 HD
ENDBRANCH  14  23
ENDBRANCH   1  14
TORSDOF 7
ENDMDL
