MODEL 1
REMARK VINA RESULT:     -11.0      0.000      0.000
REMARK  Name = 9804302
REMARK  7 active torsions:
REMARK  status: ('A' for Active; 'I' for Inactive)
REMARK    1  A    between atoms: C_5  and  O_21
REMARK    2  A    between atoms: C_17  and  O_19
REMARK    3  A    between atoms: C_18  and  O_28
REMARK    4  A    between atoms: O_21  and  S_22
REMARK    5  A    between atoms: S_22  and  N_25
REMARK    6  A    between atoms: O_28  and  S_29
REMARK    7  A    between atoms: S_29  and  N_32
REMARK                            x       y       z     vdW  Elec       q    Type
REMARK                         _______ _______ _______ _____ _____    ______ ____
ROOT
ATOM      1  C   UNL     1      34.254 -18.993 -21.661  0.00  0.00    +0.027 C 
ATOM      2  C   UNL     1      35.491 -19.861 -21.355  0.00  0.00    +0.003 C 
ATOM      3  C   UNL     1      35.449 -20.449 -19.945  0.00  0.00    +0.004 C 
ATOM      4  C   UNL     1      34.195 -21.368 -19.824  0.00  0.00    +0.022 C 
ATOM      5  C   UNL     1      34.629 -18.516 -23.077  0.00  0.00    +0.144 C 
ATOM      6  C   UNL     1      33.013 -19.890 -21.590  0.00  0.00    +0.003 C 
ATOM      7  C   UNL     1      36.661 -18.968 -21.758  0.00  0.00    +0.003 C 
ATOM      8  C   UNL     1      32.902 -20.610 -20.232  0.00  0.00    +0.004 C 
ATOM      9  C   UNL     1      36.131 -18.185 -22.974  0.00  0.00    +0.032 C 
ATOM     10  C   UNL     1      36.698 -21.267 -19.611  0.00  0.00    +0.005 C 
ATOM     11  C   UNL     1      34.063 -17.779 -20.717  0.00  0.00    +0.002 C 
ATOM     12  C   UNL     1      34.141 -22.053 -18.462  0.00  0.00    -0.023 C 
ATOM     13  C   UNL     1      36.657 -21.702 -18.150  0.00  0.00    +0.026 C 
ATOM     14  C   UNL     1      35.318 -22.239 -17.706  0.00  0.00    -0.023 C 
ATOM     15  C   UNL     1      32.940 -22.593 -17.966  0.00  0.00    +0.036 C 
ATOM     16  C   UNL     1      35.258 -22.904 -16.467  0.00  0.00    +0.038 C 
ATOM     17  C   UNL     1      32.896 -23.258 -16.739  0.00  0.00    +0.175 C 
ATOM     18  C   UNL     1      34.055 -23.411 -15.987  0.00  0.00    +0.206 C 
ENDROOT
BRANCH  17  19
ATOM     19  O   UNL     1      31.711 -23.759 -16.292  0.00  0.00    -0.468 OA
ATOM     20  C   UNL     1      30.573 -22.904 -16.379  0.00  0.00    +0.253 C 
ENDBRANCH  17  19
BRANCH   5  21
ATOM     21  O   UNL     1      33.874 -17.399 -23.503  0.00  0.00    -0.232 OA
BRANCH  21  22
ATOM     22  S   UNL     1      34.545 -16.292 -24.508  0.00  0.00    +0.045 S 
ATOM     23  O   UNL     1      35.468 -15.475 -23.741  0.00  0.00    -0.056 OA
ATOM     24  O   UNL     1      35.009 -16.999 -25.688  0.00  0.00    -0.056 OA
BRANCH  22  25
ATOM     25  N   UNL     1      33.226 -15.305 -24.980  0.00  0.00    -0.204 NA
ATOM     26  H   UNL     1      33.570 -14.385 -25.257  0.00  0.00    +0.144 HD
ATOM     27  H   UNL     1      32.579 -15.203 -24.197  0.00  0.00    +0.144 HD
ENDBRANCH  22  25
ENDBRANCH  21  22
ENDBRANCH   5  21
BRANCH  18  28
ATOM     28  O   UNL     1      34.026 -24.053 -14.787  0.00  0.00    -0.346 OA
BRANCH  28  29
ATOM     29  S   UNL     1      35.367 -24.355 -13.892  0.00  0.00    +0.086 S 
ATOM     30  O   UNL     1      36.043 -23.095 -13.642  0.00  0.00    -0.046 OA
ATOM     31  O   UNL     1      36.074 -25.472 -14.492  0.00  0.00    -0.046 OA
BRANCH  29  32
ATOM     32  N   UNL     1      34.724 -24.898 -12.396  0.00  0.00    -0.194 NA
ATOM     33  H   UNL     1      35.423 -24.780 -11.663  0.00  0.00    +0.145 HD
ATOM     34  H   UNL     1      34.474 -25.884 -12.472  0.00  0.00    +0.145 HD
ENDBRANCH  29  32
ENDBRANCH  28  29
ENDBRANCH  18  28
TORSDOF 7
ENDMDL
MODEL 2
REMARK VINA RESULT:     -10.2      2.283      9.493
REMARK  Name = 9804302
REMARK  7 active torsions:
REMARK  status: ('A' for Active; 'I' for Inactive)
REMARK    1  A    between atoms: C_5  and  O_21
REMARK    2  A    between atoms: C_17  and  O_19
REMARK    3  A    between atoms: C_18  and  O_28
REMARK    4  A    between atoms: O_21  and  S_22
REMARK    5  A    between atoms: S_22  and  N_25
REMARK    6  A    between atoms: O_28  and  S_29
REMARK    7  A    between atoms: S_29  and  N_32
REMARK                            x       y       z     vdW  Elec       q    Type
REMARK                         _______ _______ _______ _____ _____    ______ ____
ROOT
ATOM      1  C   UNL     1      36.297 -23.105 -15.826  0.00  0.00    +0.027 C 
ATOM      2  C   UNL     1      35.096 -23.527 -16.697  0.00  0.00    +0.003 C 
ATOM      3  C   UNL     1      34.608 -22.391 -17.595  0.00  0.00    +0.004 C 
ATOM      4  C   UNL     1      35.763 -21.986 -18.561  0.00  0.00    +0.022 C 
ATOM      5  C   UNL     1      36.491 -24.405 -15.023  0.00  0.00    +0.144 C 
ATOM      6  C   UNL     1      37.459 -22.744 -16.759  0.00  0.00    +0.003 C 
ATOM      7  C   UNL     1      34.133 -24.154 -15.694  0.00  0.00    +0.003 C 
ATOM      8  C   UNL     1      37.062 -21.657 -17.776  0.00  0.00    +0.004 C 
ATOM      9  C   UNL     1      35.056 -24.844 -14.671  0.00  0.00    +0.032 C 
ATOM     10  C   UNL     1      33.383 -22.782 -18.423  0.00  0.00    +0.005 C 
ATOM     11  C   UNL     1      36.020 -21.918 -14.870  0.00  0.00    +0.002 C 
ATOM     12  C   UNL     1      35.310 -20.909 -19.543  0.00  0.00    -0.023 C 
ATOM     13  C   UNL     1      32.862 -21.566 -19.185  0.00  0.00    +0.026 C 
ATOM     14  C   UNL     1      33.942 -20.754 -19.857  0.00  0.00    -0.023 C 
ATOM     15  C   UNL     1      36.244 -20.108 -20.225  0.00  0.00    +0.036 C 
ATOM     16  C   UNL     1      33.543 -19.781 -20.791  0.00  0.00    +0.038 C 
ATOM     17  C   UNL     1      35.834 -19.151 -21.157  0.00  0.00    +0.175 C 
ATOM     18  C   UNL     1      34.484 -18.985 -21.437  0.00  0.00    +0.206 C 
ENDROOT
BRANCH  17  19
ATOM     19  O   UNL     1      36.771 -18.389 -21.788  0.00  0.00    -0.468 OA
ATOM     20  C   UNL     1      38.094 -18.915 -21.858  0.00  0.00    +0.253 C 
ENDBRANCH  17  19
BRANCH   5  21
ATOM     21  O   UNL     1      37.283 -24.228 -13.865  0.00  0.00    -0.232 OA
BRANCH  21  22
ATOM     22  S   UNL     1      38.356 -25.385 -13.422  0.00  0.00    +0.045 S 
ATOM     23  O   UNL     1      39.697 -24.847 -13.565  0.00  0.00    -0.056 OA
ATOM     24  O   UNL     1      37.920 -25.916 -12.143  0.00  0.00    -0.056 OA
BRANCH  22  25
ATOM     25  N   UNL     1      38.147 -26.617 -14.595  0.00  0.00    -0.204 NA
ATOM     26  H   UNL     1      39.015 -26.742 -15.116  0.00  0.00    +0.144 HD
ATOM     27  H   UNL     1      37.400 -26.353 -15.238  0.00  0.00    +0.144 HD
ENDBRANCH  22  25
ENDBRANCH  21  22
ENDBRANCH   5  21
BRANCH  18  28
ATOM     28  O   UNL     1      34.070 -18.053 -22.339  0.00  0.00    -0.346 OA
BRANCH  28  29
ATOM     29  S   UNL     1      34.309 -16.441 -22.148  0.00  0.00    +0.086 S 
ATOM     30  O   UNL     1      34.827 -16.211 -20.812  0.00  0.00    -0.046 OA
ATOM     31  O   UNL     1      33.124 -15.745 -22.616  0.00  0.00    -0.046 OA
BRANCH  29  32
ATOM     32  N   UNL     1      35.575 -16.101 -23.255  0.00  0.00    -0.194 NA
ATOM     33  H   UNL     1      35.804 -15.107 -23.215  0.00  0.00    +0.145 HD
ATOM     34  H   UNL     1      35.275 -16.342 -24.200  0.00  0.00    +0.145 HD
ENDBRANCH  29  32
ENDBRANCH  28  29
ENDBRANCH  18  28
TORSDOF 7
ENDMDL
MODEL 3
REMARK VINA RESULT:      -9.8      7.851     13.395
REMARK  Name = 9804302
REMARK  7 active torsions:
REMARK  status: ('A' for Active; 'I' for Inactive)
REMARK    1  A    between atoms: C_5  and  O_21
REMARK    2  A    between atoms: C_17  and  O_19
REMARK    3  A    between atoms: C_18  and  O_28
REMARK    4  A    between atoms: O_21  and  S_22
REMARK    5  A    between atoms: S_22  and  N_25
REMARK    6  A    between atoms: O_28  and  S_29
REMARK    7  A    between atoms: S_29  and  N_32
REMARK                            x       y       z     vdW  Elec       q    Type
REMARK                         _______ _______ _______ _____ _____    ______ ____
ROOT
ATOM      1  C   UNL     1      33.463 -14.253 -22.287  0.00  0.00    +0.027 C 
ATOM      2  C   UNL     1      32.286 -13.682 -21.470  0.00  0.00    +0.003 C 
ATOM      3  C   UNL     1      32.386 -12.167 -21.296  0.00  0.00    +0.004 C 
ATOM      4  C   UNL     1      32.343 -11.499 -22.704  0.00  0.00    +0.022 C 
ATOM      5  C   UNL     1      33.109 -15.751 -22.221  0.00  0.00    +0.144 C 
ATOM      6  C   UNL     1      33.412 -13.640 -23.691  0.00  0.00    +0.003 C 
ATOM      7  C   UNL     1      32.245 -14.576 -20.234  0.00  0.00    +0.003 C 
ATOM      8  C   UNL     1      33.423 -12.100 -23.645  0.00  0.00    +0.004 C 
ATOM      9  C   UNL     1      32.656 -15.963 -20.763  0.00  0.00    +0.032 C 
ATOM     10  C   UNL     1      31.254 -11.598 -20.441  0.00  0.00    +0.005 C 
ATOM     11  C   UNL     1      34.863 -14.004 -21.670  0.00  0.00    +0.002 C 
ATOM     12  C   UNL     1      32.355  -9.977 -22.594  0.00  0.00    -0.023 C 
ATOM     13  C   UNL     1      31.491 -10.112 -20.188  0.00  0.00    +0.026 C 
ATOM     14  C   UNL     1      31.910  -9.340 -21.415  0.00  0.00    -0.023 C 
ATOM     15  C   UNL     1      32.722  -9.171 -23.687  0.00  0.00    +0.036 C 
ATOM     16  C   UNL     1      31.894  -7.935 -21.341  0.00  0.00    +0.038 C 
ATOM     17  C   UNL     1      32.693  -7.778 -23.603  0.00  0.00    +0.175 C 
ATOM     18  C   UNL     1      32.283  -7.159 -22.429  0.00  0.00    +0.206 C 
ENDROOT
BRANCH  17  19
ATOM     19  O   UNL     1      33.066  -7.034 -24.683  0.00  0.00    -0.468 OA
ATOM     20  C   UNL     1      34.444  -6.684 -24.783  0.00  0.00    +0.253 C 
ENDBRANCH  17  19
BRANCH   5  21
ATOM     21  O   UNL     1      34.193 -16.592 -22.561  0.00  0.00    -0.232 OA
BRANCH  21  22
ATOM     22  S   UNL     1      34.785 -17.652 -21.459  0.00  0.00    +0.045 S 
ATOM     23  O   UNL     1      35.305 -16.900 -20.332  0.00  0.00    -0.056 OA
ATOM     24  O   UNL     1      33.772 -18.670 -21.246  0.00  0.00    -0.056 OA
BRANCH  22  25
ATOM     25  N   UNL     1      36.106 -18.392 -22.262  0.00  0.00    -0.204 NA
ATOM     26  H   UNL     1      36.716 -18.836 -21.575  0.00  0.00    +0.144 HD
ATOM     27  H   UNL     1      36.631 -17.685 -22.777  0.00  0.00    +0.144 HD
ENDBRANCH  22  25
ENDBRANCH  21  22
ENDBRANCH   5  21
BRANCH  18  28
ATOM     28  O   UNL     1      32.254  -5.801 -22.331  0.00  0.00    -0.346 OA
BRANCH  28  29
ATOM     29  S   UNL     1      30.945  -4.895 -22.726  0.00  0.00    +0.086 S 
ATOM     30  O   UNL     1      29.926  -5.097 -21.712  0.00  0.00    -0.046 OA
ATOM     31  O   UNL     1      30.648  -5.109 -24.131  0.00  0.00    -0.046 OA
BRANCH  29  32
ATOM     32  N   UNL     1      31.520  -3.286 -22.562  0.00  0.00    -0.194 NA
ATOM     33  H   UNL     1      31.730  -2.905 -23.484  0.00  0.00    +0.145 HD
ATOM     34  H   UNL     1      32.367  -3.284 -21.994  0.00  0.00    +0.145 HD
ENDBRANCH  29  32
ENDBRANCH  28  29
ENDBRANCH  18  28
TORSDOF 7
ENDMDL
MODEL 4
REMARK VINA RESULT:      -9.7      2.384      4.152
REMARK  Name = 9804302
REMARK  7 active torsions:
REMARK  status: ('A' for Active; 'I' for Inactive)
REMARK    1  A    between atoms: C_5  and  O_21
REMARK    2  A    between atoms: C_17  and  O_19
REMARK    3  A    between atoms: C_18  and  O_28
REMARK    4  A    between atoms: O_21  and  S_22
REMARK    5  A    between atoms: S_22  and  N_25
REMARK    6  A    between atoms: O_28  and  S_29
REMARK    7  A    between atoms: S_29  and  N_32
REMARK                            x       y       z     vdW  Elec       q    Type
REMARK                         _______ _______ _______ _____ _____    ______ ____
ROOT
ATOM      1  C   UNL     1      35.135 -20.832 -20.171  0.00  0.00    +0.027 C 
ATOM      2  C   UNL     1      34.031 -21.133 -19.137  0.00  0.00    +0.003 C 
ATOM      3  C   UNL     1      34.399 -22.300 -18.223  0.00  0.00    +0.004 C 
ATOM      4  C   UNL     1      35.688 -21.926 -17.430  0.00  0.00    +0.022 C 
ATOM      5  C   UNL     1      34.446 -19.695 -20.948  0.00  0.00    +0.144 C 
ATOM      6  C   UNL     1      36.401 -20.419 -19.411  0.00  0.00    +0.003 C 
ATOM      7  C   UNL     1      32.765 -21.217 -19.985  0.00  0.00    +0.003 C 
ATOM      8  C   UNL     1      36.829 -21.489 -18.388  0.00  0.00    +0.004 C 
ATOM      9  C   UNL     1      32.988 -20.173 -21.095  0.00  0.00    +0.032 C 
ATOM     10  C   UNL     1      33.287 -22.642 -17.229  0.00  0.00    +0.005 C 
ATOM     11  C   UNL     1      35.471 -22.008 -21.123  0.00  0.00    +0.002 C 
ATOM     12  C   UNL     1      36.062 -23.020 -16.434  0.00  0.00    -0.023 C 
ATOM     13  C   UNL     1      33.657 -23.899 -16.448  0.00  0.00    +0.026 C 
ATOM     14  C   UNL     1      35.082 -23.915 -15.951  0.00  0.00    -0.023 C 
ATOM     15  C   UNL     1      37.363 -23.110 -15.907  0.00  0.00    +0.036 C 
ATOM     16  C   UNL     1      35.434 -24.896 -15.006  0.00  0.00    +0.038 C 
ATOM     17  C   UNL     1      37.697 -24.084 -14.963  0.00  0.00    +0.175 C 
ATOM     18  C   UNL     1      36.733 -24.980 -14.515  0.00  0.00    +0.206 C 
ENDROOT
BRANCH  17  19
ATOM     19  O   UNL     1      38.971 -24.143 -14.485  0.00  0.00    -0.468 OA
ATOM     20  C   UNL     1      39.819 -25.156 -15.022  0.00  0.00    +0.253 C 
ENDBRANCH  17  19
BRANCH   5  21
ATOM     21  O   UNL     1      35.043 -19.441 -22.204  0.00  0.00    -0.232 OA
BRANCH  21  22
ATOM     22  S   UNL     1      35.829 -18.027 -22.467  0.00  0.00    +0.045 S 
ATOM     23  O   UNL     1      35.236 -17.007 -21.621  0.00  0.00    -0.056 OA
ATOM     24  O   UNL     1      37.253 -18.298 -22.387  0.00  0.00    -0.056 OA
BRANCH  22  25
ATOM     25  N   UNL     1      35.464 -17.645 -24.098  0.00  0.00    -0.204 NA
ATOM     26  H   UNL     1      34.484 -17.370 -24.173  0.00  0.00    +0.144 HD
ATOM     27  H   UNL     1      35.632 -18.463 -24.685  0.00  0.00    +0.144 HD
ENDBRANCH  22  25
ENDBRANCH  21  22
ENDBRANCH   5  21
BRANCH  18  28
ATOM     28  O   UNL     1      37.046 -25.937 -13.599  0.00  0.00    -0.346 OA
BRANCH  28  29
ATOM     29  S   UNL     1      36.868 -25.732 -11.981  0.00  0.00    +0.086 S 
ATOM     30  O   UNL     1      37.241 -26.969 -11.320  0.00  0.00    -0.046 OA
ATOM     31  O   UNL     1      35.574 -25.120 -11.739  0.00  0.00    -0.046 OA
BRANCH  29  32
ATOM     32  N   UNL     1      38.067 -24.565 -11.602  0.00  0.00    -0.194 NA
ATOM     33  H   UNL     1      37.653 -23.633 -11.620  0.00  0.00    +0.145 HD
ATOM     34  H   UNL     1      38.820 -24.615 -12.288  0.00  0.00    +0.145 HD
ENDBRANCH  29  32
ENDBRANCH  28  29
ENDBRANCH  18  28
TORSDOF 7
ENDMDL
MODEL 5
REMARK VINA RESULT:      -9.3      9.203     12.622
REMARK  Name = 9804302
REMARK  7 active torsions:
REMARK  status: ('A' for Active; 'I' for Inactive)
REMARK    1  A    between atoms: C_5  and  O_21
REMARK    2  A    between atoms: C_17  and  O_19
REMARK    3  A    between atoms: C_18  and  O_28
REMARK    4  A    between atoms: O_21  and  S_22
REMARK    5  A    between atoms: S_22  and  N_25
REMARK    6  A    between atoms: O_28  and  S_29
REMARK    7  A    between atoms: S_29  and  N_32
REMARK                            x       y       z     vdW  Elec       q    Type
REMARK                         _______ _______ _______ _____ _____    ______ ____
ROOT
ATOM      1  C   UNL     1      31.589  -6.774 -23.392  0.00  0.00    +0.027 C 
ATOM      2  C   UNL     1      31.846  -7.247 -21.947  0.00  0.00    +0.003 C 
ATOM      3  C   UNL     1      31.711  -8.762 -21.804  0.00  0.00    +0.004 C 
ATOM      4  C   UNL     1      32.777  -9.446 -22.713  0.00  0.00    +0.022 C 
ATOM      5  C   UNL     1      31.729  -5.254 -23.185  0.00  0.00    +0.144 C 
ATOM      6  C   UNL     1      32.656  -7.402 -24.296  0.00  0.00    +0.003 C 
ATOM      7  C   UNL     1      30.953  -6.335 -21.111  0.00  0.00    +0.003 C 
ATOM      8  C   UNL     1      32.677  -8.938 -24.177  0.00  0.00    +0.004 C 
ATOM      9  C   UNL     1      30.990  -4.989 -21.858  0.00  0.00    +0.032 C 
ATOM     10  C   UNL     1      31.909  -9.237 -20.363  0.00  0.00    +0.005 C 
ATOM     11  C   UNL     1      30.183  -7.114 -23.947  0.00  0.00    +0.002 C 
ATOM     12  C   UNL     1      32.751 -10.963 -22.551  0.00  0.00    -0.023 C 
ATOM     13  C   UNL     1      31.621 -10.732 -20.265  0.00  0.00    +0.026 C 
ATOM     14  C   UNL     1      32.240 -11.550 -21.373  0.00  0.00    -0.023 C 
ATOM     15  C   UNL     1      33.311 -11.809 -23.526  0.00  0.00    +0.036 C 
ATOM     16  C   UNL     1      32.254 -12.948 -21.223  0.00  0.00    +0.038 C 
ATOM     17  C   UNL     1      33.326 -13.195 -23.360  0.00  0.00    +0.175 C 
ATOM     18  C   UNL     1      32.794 -13.766 -22.211  0.00  0.00    +0.206 C 
ENDROOT
BRANCH  17  19
ATOM     19  O   UNL     1      33.870 -13.979 -24.333  0.00  0.00    -0.468 OA
ATOM     20  C   UNL     1      33.044 -14.289 -25.453  0.00  0.00    +0.253 C 
ENDBRANCH  17  19
BRANCH   5  21
ATOM     21  O   UNL     1      31.185  -4.497 -24.248  0.00  0.00    -0.232 OA
BRANCH  21  22
ATOM     22  S   UNL     1      31.568  -2.911 -24.405  0.00  0.00    +0.045 S 
ATOM     23  O   UNL     1      31.926  -2.393 -23.097  0.00  0.00    -0.056 OA
ATOM     24  O   UNL     1      32.499  -2.795 -25.511  0.00  0.00    -0.056 OA
BRANCH  22  25
ATOM     25  N   UNL     1      30.096  -2.174 -24.885  0.00  0.00    -0.204 NA
ATOM     26  H   UNL     1      30.191  -1.809 -25.833  0.00  0.00    +0.144 HD
ATOM     27  H   UNL     1      29.875  -1.409 -24.247  0.00  0.00    +0.144 HD
ENDBRANCH  22  25
ENDBRANCH  21  22
ENDBRANCH   5  21
BRANCH  18  28
ATOM     28  O   UNL     1      32.798 -15.117 -22.038  0.00  0.00    -0.346 OA
BRANCH  28  29
ATOM     29  S   UNL     1      34.081 -15.948 -21.443  0.00  0.00    +0.086 S 
ATOM     30  O   UNL     1      33.645 -17.296 -21.125  0.00  0.00    -0.046 OA
ATOM     31  O   UNL     1      34.735 -15.123 -20.443  0.00  0.00    -0.046 OA
BRANCH  29  32
ATOM     32  N   UNL     1      35.137 -16.054 -22.791  0.00  0.00    -0.194 NA
ATOM     33  H   UNL     1      34.915 -16.890 -23.332  0.00  0.00    +0.145 HD
ATOM     34  H   UNL     1      36.102 -16.108 -22.464  0.00  0.00    +0.145 HD
ENDBRANCH  29  32
ENDBRANCH  28  29
ENDBRANCH  18  28
TORSDOF 7
ENDMDL
MODEL 6
REMARK VINA RESULT:      -8.4      5.411     10.677
REMARK  Name = 9804302
REMARK  7 active torsions:
REMARK  status: ('A' for Active; 'I' for Inactive)
REMARK    1  A    between atoms: C_5  and  O_21
REMARK    2  A    between atoms: C_17  and  O_19
REMARK    3  A    between atoms: C_18  and  O_28
REMARK    4  A    between atoms: O_21  and  S_22
REMARK    5  A    between atoms: S_22  and  N_25
REMARK    6  A    between atoms: O_28  and  S_29
REMARK    7  A    between atoms: S_29  and  N_32
REMARK                            x       y       z     vdW  Elec       q    Type
REMARK                         _______ _______ _______ _____ _____    ______ ____
ROOT
ATOM      1  C   UNL     1      34.497 -17.921 -21.694  0.00  0.00    +0.027 C 
ATOM      2  C   UNL     1      34.710 -17.158 -23.017  0.00  0.00    +0.003 C 
ATOM      3  C   UNL     1      33.777 -15.955 -23.146  0.00  0.00    +0.004 C 
ATOM      4  C   UNL     1      34.080 -14.961 -21.983  0.00  0.00    +0.022 C 
ATOM      5  C   UNL     1      35.503 -19.068 -21.904  0.00  0.00    +0.144 C 
ATOM      6  C   UNL     1      34.833 -16.972 -20.537  0.00  0.00    +0.003 C 
ATOM      7  C   UNL     1      34.662 -18.258 -24.073  0.00  0.00    +0.003 C 
ATOM      8  C   UNL     1      34.008 -15.673 -20.604  0.00  0.00    +0.004 C 
ATOM      9  C   UNL     1      35.308 -19.472 -23.378  0.00  0.00    +0.032 C 
ATOM     10  C   UNL     1      33.942 -15.223 -24.479  0.00  0.00    +0.005 C 
ATOM     11  C   UNL     1      33.069 -18.487 -21.494  0.00  0.00    +0.002 C 
ATOM     12  C   UNL     1      33.236 -13.696 -22.103  0.00  0.00    -0.023 C 
ATOM     13  C   UNL     1      32.888 -14.127 -24.603  0.00  0.00    +0.026 C 
ATOM     14  C   UNL     1      32.718 -13.296 -23.354  0.00  0.00    -0.023 C 
ATOM     15  C   UNL     1      33.028 -12.852 -20.997  0.00  0.00    +0.036 C 
ATOM     16  C   UNL     1      31.971 -12.108 -23.456  0.00  0.00    +0.038 C 
ATOM     17  C   UNL     1      32.292 -11.671 -21.114  0.00  0.00    +0.175 C 
ATOM     18  C   UNL     1      31.760 -11.300 -22.343  0.00  0.00    +0.206 C 
ENDROOT
BRANCH  17  19
ATOM     19  O   UNL     1      32.106 -10.887 -20.016  0.00  0.00    -0.468 OA
ATOM     20  C   UNL     1      30.824 -10.937 -19.393  0.00  0.00    +0.253 C 
ENDBRANCH  17  19
BRANCH   5  21
ATOM     21  O   UNL     1      35.290 -20.159 -21.029  0.00  0.00    -0.232 OA
BRANCH  21  22
ATOM     22  S   UNL     1      36.483 -20.641 -20.015  0.00  0.00    +0.045 S 
ATOM     23  O   UNL     1      37.231 -21.706 -20.659  0.00  0.00    -0.056 OA
ATOM     24  O   UNL     1      37.170 -19.449 -19.552  0.00  0.00    -0.056 OA
BRANCH  22  25
ATOM     25  N   UNL     1      35.646 -21.312 -18.677  0.00  0.00    -0.204 NA
ATOM     26  H   UNL     1      36.148 -21.093 -17.816  0.00  0.00    +0.144 HD
ATOM     27  H   UNL     1      35.585 -22.324 -18.786  0.00  0.00    +0.144 HD
ENDBRANCH  22  25
ENDBRANCH  21  22
ENDBRANCH   5  21
BRANCH  18  28
ATOM     28  O   UNL     1      31.036 -10.154 -22.471  0.00  0.00    -0.346 OA
BRANCH  28  29
ATOM     29  S   UNL     1      31.705  -8.698 -22.822  0.00  0.00    +0.086 S 
ATOM     30  O   UNL     1      30.719  -7.900 -23.527  0.00  0.00    -0.046 OA
ATOM     31  O   UNL     1      33.022  -8.926 -23.391  0.00  0.00    -0.046 OA
BRANCH  29  32
ATOM     32  N   UNL     1      31.930  -7.988 -21.276  0.00  0.00    -0.194 NA
ATOM     33  H   UNL     1      32.243  -8.701 -20.617  0.00  0.00    +0.145 HD
ATOM     34  H   UNL     1      31.048  -7.591 -20.953  0.00  0.00    +0.145 HD
ENDBRANCH  29  32
ENDBRANCH  28  29
ENDBRANCH  18  28
TORSDOF 7
ENDMDL
MODEL 7
REMARK VINA RESULT:      -8.3      6.574     12.574
REMARK  Name = 9804302
REMARK  7 active torsions:
REMARK  status: ('A' for Active; 'I' for Inactive)
REMARK    1  A    between atoms: C_5  and  O_21
REMARK    2  A    between atoms: C_17  and  O_19
REMARK    3  A    between atoms: C_18  and  O_28
REMARK    4  A    between atoms: O_21  and  S_22
REMARK    5  A    between atoms: S_22  and  N_25
REMARK    6  A    between atoms: O_28  and  S_29
REMARK    7  A    between atoms: S_29  and  N_32
REMARK                            x       y       z     vdW  Elec       q    Type
REMARK                         _______ _______ _______ _____ _____    ______ ____
ROOT
ATOM      1  C   UNL     1      33.782 -15.585 -21.586  0.00  0.00    +0.027 C 
ATOM      2  C   UNL     1      32.435 -14.841 -21.484  0.00  0.00    +0.003 C 
ATOM      3  C   UNL     1      32.600 -13.328 -21.612  0.00  0.00    +0.004 C 
ATOM      4  C   UNL     1      33.201 -13.008 -23.014  0.00  0.00    +0.022 C 
ATOM      5  C   UNL     1      33.289 -17.026 -21.357  0.00  0.00    +0.144 C 
ATOM      6  C   UNL     1      34.369 -15.317 -22.977  0.00  0.00    +0.003 C 
ATOM      7  C   UNL     1      31.805 -15.421 -20.220  0.00  0.00    +0.003 C 
ATOM      8  C   UNL     1      34.508 -13.810 -23.260  0.00  0.00    +0.004 C 
ATOM      9  C   UNL     1      32.261 -16.892 -20.217  0.00  0.00    +0.032 C 
ATOM     10  C   UNL     1      31.276 -12.577 -21.456  0.00  0.00    +0.005 C 
ATOM     11  C   UNL     1      34.823 -15.194 -20.507  0.00  0.00    +0.002 C 
ATOM     12  C   UNL     1      33.313 -11.502 -23.237  0.00  0.00    -0.023 C 
ATOM     13  C   UNL     1      31.531 -11.072 -21.450  0.00  0.00    +0.026 C 
ATOM     14  C   UNL     1      32.488 -10.608 -22.521  0.00  0.00    -0.023 C 
ATOM     15  C   UNL     1      34.172 -10.974 -24.218  0.00  0.00    +0.036 C 
ATOM     16  C   UNL     1      32.578  -9.225 -22.763  0.00  0.00    +0.038 C 
ATOM     17  C   UNL     1      34.245  -9.600 -24.454  0.00  0.00    +0.175 C 
ATOM     18  C   UNL     1      33.451  -8.724 -23.723  0.00  0.00    +0.206 C 
ENDROOT
BRANCH  17  19
ATOM     19  O   UNL     1      35.096  -9.129 -25.408  0.00  0.00    -0.468 OA
ATOM     20  C   UNL     1      35.770 -10.097 -26.210  0.00  0.00    +0.253 C 
ENDBRANCH  17  19
BRANCH   5  21
ATOM     21  O   UNL     1      34.331 -17.921 -21.021  0.00  0.00    -0.232 OA
BRANCH  21  22
ATOM     22  S   UNL     1      34.349 -19.432 -21.654  0.00  0.00    +0.045 S 
ATOM     23  O   UNL     1      34.289 -19.325 -23.101  0.00  0.00    -0.056 OA
ATOM     24  O   UNL     1      35.440 -20.155 -21.025  0.00  0.00    -0.056 OA
BRANCH  22  25
ATOM     25  N   UNL     1      32.881 -20.130 -21.109  0.00  0.00    -0.204 NA
ATOM     26  H   UNL     1      32.145 -19.424 -21.118  0.00  0.00    +0.144 HD
ATOM     27  H   UNL     1      33.003 -20.481 -20.159  0.00  0.00    +0.144 HD
ENDBRANCH  22  25
ENDBRANCH  21  22
ENDBRANCH   5  21
BRANCH  18  28
ATOM     28  O   UNL     1      33.515  -7.381 -23.939  0.00  0.00    -0.346 OA
BRANCH  28  29
ATOM     29  S   UNL     1      32.190  -6.432 -24.127  0.00  0.00    +0.086 S 
ATOM     30  O   UNL     1      31.067  -7.280 -24.483  0.00  0.00    -0.046 OA
ATOM     31  O   UNL     1      32.556  -5.297 -24.955  0.00  0.00    -0.046 OA
BRANCH  29  32
ATOM     32  N   UNL     1      31.906  -5.841 -22.542  0.00  0.00    -0.194 NA
ATOM     33  H   UNL     1      30.901  -5.751 -22.387  0.00  0.00    +0.145 HD
ATOM     34  H   UNL     1      32.348  -4.928 -22.435  0.00  0.00    +0.145 HD
ENDBRANCH  29  32
ENDBRANCH  28  29
ENDBRANCH  18  28
TORSDOF 7
ENDMDL
MODEL 8
REMARK VINA RESULT:      -8.2      8.230     11.380
REMARK  Name = 9804302
REMARK  7 active torsions:
REMARK  status: ('A' for Active; 'I' for Inactive)
REMARK    1  A    between atoms: C_5  and  O_21
REMARK    2  A    between atoms: C_17  and  O_19
REMARK    3  A    between atoms: C_18  and  O_28
REMARK    4  A    between atoms: O_21  and  S_22
REMARK    5  A    between atoms: S_22  and  N_25
REMARK    6  A    between atoms: O_28  and  S_29
REMARK    7  A    between atoms: S_29  and  N_32
REMARK                            x       y       z     vdW  Elec       q    Type
REMARK                         _______ _______ _______ _____ _____    ______ ____
ROOT
ATOM      1  C   UNL     1      32.638  -7.939 -22.971  0.00  0.00    +0.027 C 
ATOM      2  C   UNL     1      33.033  -8.645 -24.284  0.00  0.00    +0.003 C 
ATOM      3  C   UNL     1      33.545 -10.064 -24.044  0.00  0.00    +0.004 C 
ATOM      4  C   UNL     1      32.406 -10.903 -23.389  0.00  0.00    +0.022 C 
ATOM      5  C   UNL     1      32.245  -6.561 -23.538  0.00  0.00    +0.144 C 
ATOM      6  C   UNL     1      31.487  -8.726 -22.334  0.00  0.00    +0.003 C 
ATOM      7  C   UNL     1      33.938  -7.630 -24.975  0.00  0.00    +0.003 C 
ATOM      8  C   UNL     1      31.856 -10.205 -22.116  0.00  0.00    +0.004 C 
ATOM      9  C   UNL     1      33.333  -6.267 -24.589  0.00  0.00    +0.032 C 
ATOM     10  C   UNL     1      33.992 -10.754 -25.334  0.00  0.00    +0.005 C 
ATOM     11  C   UNL     1      33.787  -7.790 -21.943  0.00  0.00    +0.002 C 
ATOM     12  C   UNL     1      32.828 -12.357 -23.200  0.00  0.00    -0.023 C 
ATOM     13  C   UNL     1      34.622 -12.105 -25.009  0.00  0.00    +0.026 C 
ATOM     14  C   UNL     1      33.846 -12.918 -24.001  0.00  0.00    -0.023 C 
ATOM     15  C   UNL     1      32.159 -13.197 -22.291  0.00  0.00    +0.036 C 
ATOM     16  C   UNL     1      34.201 -14.270 -23.839  0.00  0.00    +0.038 C 
ATOM     17  C   UNL     1      32.515 -14.539 -22.147  0.00  0.00    +0.175 C 
ATOM     18  C   UNL     1      33.539 -15.075 -22.918  0.00  0.00    +0.206 C 
ENDROOT
BRANCH  17  19
ATOM     19  O   UNL     1      31.848 -15.315 -21.248  0.00  0.00    -0.468 OA
ATOM     20  C   UNL     1      32.162 -15.128 -19.870  0.00  0.00    +0.253 C 
ENDBRANCH  17  19
BRANCH   5  21
ATOM     21  O   UNL     1      32.186  -5.552 -22.549  0.00  0.00    -0.232 OA
BRANCH  21  22
ATOM     22  S   UNL     1      31.155  -4.290 -22.727  0.00  0.00    +0.045 S 
ATOM     23  O   UNL     1      30.051  -4.464 -21.800  0.00  0.00    -0.056 OA
ATOM     24  O   UNL     1      31.946  -3.074 -22.694  0.00  0.00    -0.056 OA
BRANCH  22  25
ATOM     25  N   UNL     1      30.547  -4.472 -24.320  0.00  0.00    -0.204 NA
ATOM     26  H   UNL     1      30.887  -3.707 -24.903  0.00  0.00    +0.144 HD
ATOM     27  H   UNL     1      29.527  -4.456 -24.299  0.00  0.00    +0.144 HD
ENDBRANCH  22  25
ENDBRANCH  21  22
ENDBRANCH   5  21
BRANCH  18  28
ATOM     28  O   UNL     1      33.900 -16.381 -22.784  0.00  0.00    -0.346 OA
BRANCH  28  29
ATOM     29  S   UNL     1      34.835 -16.939 -21.558  0.00  0.00    +0.086 S 
ATOM     30  O   UNL     1      34.172 -18.084 -20.962  0.00  0.00    -0.046 OA
ATOM     31  O   UNL     1      35.242 -15.808 -20.743  0.00  0.00    -0.046 OA
BRANCH  29  32
ATOM     32  N   UNL     1      36.234 -17.519 -22.366  0.00  0.00    -0.194 NA
ATOM     33  H   UNL     1      37.028 -16.918 -22.146  0.00  0.00    +0.145 HD
ATOM     34  H   UNL     1      36.072 -17.513 -23.373  0.00  0.00    +0.145 HD
ENDBRANCH  29  32
ENDBRANCH  28  29
ENDBRANCH  18  28
TORSDOF 7
ENDMDL
