MODEL 1
REMARK VINA RESULT:      -8.8      0.000      0.000
REMARK  Name = 11521822
REMARK  0 active torsions:
REMARK  status: ('A' for Active; 'I' for Inactive)
REMARK                            x       y       z     vdW  Elec       q    Type
REMARK                         _______ _______ _______ _____ _____    ______ ____
ROOT
ATOM      1  N   UNL     1      32.311  -9.684 -22.226  0.00  0.00    -0.310 N 
ATOM      2  N   UNL     1      32.282 -12.576 -21.805  0.00  0.00    +0.388 N 
ATOM      3  C   UNL     1      33.015  -7.346 -22.209  0.00  0.00    +0.024 C 
ATOM      4  C   UNL     1      34.114  -7.648 -23.239  0.00  0.00    +0.025 C 
ATOM      5  C   UNL     1      31.825  -6.769 -23.001  0.00  0.00    +0.002 C 
ATOM      6  C   UNL     1      33.844  -6.586 -24.314  0.00  0.00    +0.004 C 
ATOM      7  C   UNL     1      32.665  -8.562 -21.368  0.00  0.00    +0.091 C 
ATOM      8  C   UNL     1      32.328  -6.550 -24.424  0.00  0.00    +0.000 C 
ATOM      9  C   UNL     1      34.089  -9.077 -23.765  0.00  0.00    -0.010 C 
ATOM     10  C   UNL     1      33.195 -10.049 -23.239  0.00  0.00    +0.038 C 
ATOM     11  C   UNL     1      31.052 -10.382 -22.015  0.00  0.00    +0.068 C 
ATOM     12  C   UNL     1      33.246 -11.366 -23.773  0.00  0.00    -0.031 C 
ATOM     13  C   UNL     1      34.997  -9.424 -24.781  0.00  0.00    -0.003 C 
ATOM     14  C   UNL     1      31.253 -11.694 -21.264  0.00  0.00    -0.059 C 
ATOM     15  C   UNL     1      32.397 -12.519 -23.262  0.00  0.00    -0.053 C 
ATOM     16  C   UNL     1      34.137 -11.662 -24.823  0.00  0.00    -0.005 C 
ATOM     17  C   UNL     1      35.010 -10.703 -25.317  0.00  0.00    -0.001 C 
ATOM     18  H   UNL     1      32.059 -13.535 -21.537  0.00  0.00    -0.084 HD
ATOM     19  H   UNL     1      33.175 -12.265 -21.422  0.00  0.00    -0.084 HD
ENDROOT
TORSDOF 0
ENDMDL
MODEL 2
REMARK VINA RESULT:      -8.6      5.023      8.210
REMARK  Name = 11521822
REMARK  0 active torsions:
REMARK  status: ('A' for Active; 'I' for Inactive)
REMARK                            x       y       z     vdW  Elec       q    Type
REMARK                         _______ _______ _______ _____ _____    ______ ____
ROOT
ATOM      1  N   UNL     1      34.225 -16.097 -24.176  0.00  0.00    -0.310 N 
ATOM      2  N   UNL     1      33.309 -13.468 -25.066  0.00  0.00    +0.388 N 
ATOM      3  C   UNL     1      35.605 -17.870 -23.219  0.00  0.00    +0.024 C 
ATOM      4  C   UNL     1      35.369 -17.318 -21.805  0.00  0.00    +0.025 C 
ATOM      5  C   UNL     1      34.607 -19.029 -23.405  0.00  0.00    +0.002 C 
ATOM      6  C   UNL     1      34.891 -18.567 -21.051  0.00  0.00    +0.004 C 
ATOM      7  C   UNL     1      35.502 -16.790 -24.283  0.00  0.00    +0.091 C 
ATOM      8  C   UNL     1      33.969 -19.264 -22.039  0.00  0.00    +0.000 C 
ATOM      9  C   UNL     1      34.389 -16.154 -21.754  0.00  0.00    -0.010 C 
ATOM     10  C   UNL     1      33.853 -15.579 -22.938  0.00  0.00    +0.038 C 
ATOM     11  C   UNL     1      33.372 -15.975 -25.348  0.00  0.00    +0.068 C 
ATOM     12  C   UNL     1      32.956 -14.483 -22.805  0.00  0.00    -0.031 C 
ATOM     13  C   UNL     1      34.035 -15.642 -20.493  0.00  0.00    -0.003 C 
ATOM     14  C   UNL     1      33.477 -14.592 -25.982  0.00  0.00    -0.059 C 
ATOM     15  C   UNL     1      32.361 -13.730 -23.984  0.00  0.00    -0.053 C 
ATOM     16  C   UNL     1      32.591 -14.029 -21.523  0.00  0.00    -0.005 C 
ATOM     17  C   UNL     1      33.131 -14.598 -20.377  0.00  0.00    -0.001 C 
ATOM     18  H   UNL     1      32.976 -12.665 -25.599  0.00  0.00    -0.084 HD
ATOM     19  H   UNL     1      34.217 -13.297 -24.633  0.00  0.00    -0.084 HD
ENDROOT
TORSDOF 0
ENDMDL
MODEL 3
REMARK VINA RESULT:      -8.2     14.634     16.576
REMARK  Name = 11521822
REMARK  0 active torsions:
REMARK  status: ('A' for Active; 'I' for Inactive)
REMARK                            x       y       z     vdW  Elec       q    Type
REMARK                         _______ _______ _______ _____ _____    ______ ____
ROOT
ATOM      1  N   UNL     1      33.102 -23.700 -13.961  0.00  0.00    -0.310 N 
ATOM      2  N   UNL     1      35.926 -22.951 -14.048  0.00  0.00    +0.388 N 
ATOM      3  C   UNL     1      30.666 -23.553 -13.895  0.00  0.00    +0.024 C 
ATOM      4  C   UNL     1      30.635 -23.064 -15.351  0.00  0.00    +0.025 C 
ATOM      5  C   UNL     1      30.368 -25.065 -13.940  0.00  0.00    +0.002 C 
ATOM      6  C   UNL     1      29.626 -24.027 -15.991  0.00  0.00    +0.004 C 
ATOM      7  C   UNL     1      31.968 -23.200 -13.196  0.00  0.00    +0.091 C 
ATOM      8  C   UNL     1      29.965 -25.376 -15.377  0.00  0.00    +0.000 C 
ATOM      9  C   UNL     1      31.999 -23.060 -16.028  0.00  0.00    -0.010 C 
ATOM     10  C   UNL     1      33.187 -23.373 -15.313  0.00  0.00    +0.038 C 
ATOM     11  C   UNL     1      34.102 -24.530 -13.307  0.00  0.00    +0.068 C 
ATOM     12  C   UNL     1      34.423 -23.332 -16.014  0.00  0.00    -0.031 C 
ATOM     13  C   UNL     1      32.060 -22.718 -17.391  0.00  0.00    -0.003 C 
ATOM     14  C   UNL     1      35.355 -23.735 -12.957  0.00  0.00    -0.059 C 
ATOM     15  C   UNL     1      35.774 -23.577 -15.361  0.00  0.00    -0.053 C 
ATOM     16  C   UNL     1      34.438 -23.029 -17.390  0.00  0.00    -0.005 C 
ATOM     17  C   UNL     1      33.269 -22.718 -18.070  0.00  0.00    -0.001 C 
ATOM     18  H   UNL     1      36.921 -22.821 -13.866  0.00  0.00    -0.084 HD
ATOM     19  H   UNL     1      35.419 -22.066 -14.078  0.00  0.00    -0.084 HD
ENDROOT
TORSDOF 0
ENDMDL
MODEL 4
REMARK VINA RESULT:      -8.1      5.227      7.388
REMARK  Name = 11521822
REMARK  0 active torsions:
REMARK  status: ('A' for Active; 'I' for Inactive)
REMARK                            x       y       z     vdW  Elec       q    Type
REMARK                         _______ _______ _______ _____ _____    ______ ____
ROOT
ATOM      1  N   UNL     1      34.449 -17.178 -21.403  0.00  0.00    -0.310 N 
ATOM      2  N   UNL     1      35.479 -19.801 -22.178  0.00  0.00    +0.388 N 
ATOM      3  C   UNL     1      34.332 -14.795 -20.882  0.00  0.00    +0.024 C 
ATOM      4  C   UNL     1      34.516 -14.441 -22.365  0.00  0.00    +0.025 C 
ATOM      5  C   UNL     1      32.818 -14.721 -20.604  0.00  0.00    +0.002 C 
ATOM      6  C   UNL     1      33.338 -13.489 -22.615  0.00  0.00    +0.004 C 
ATOM      7  C   UNL     1      34.960 -16.132 -20.528  0.00  0.00    +0.091 C 
ATOM      8  C   UNL     1      32.183 -14.125 -21.856  0.00  0.00    +0.000 C 
ATOM      9  C   UNL     1      34.538 -15.651 -23.289  0.00  0.00    -0.010 C 
ATOM     10  C   UNL     1      34.509 -16.978 -22.781  0.00  0.00    +0.038 C 
ATOM     11  C   UNL     1      33.883 -18.387 -20.826  0.00  0.00    +0.068 C 
ATOM     12  C   UNL     1      34.549 -18.053 -23.710  0.00  0.00    -0.031 C 
ATOM     13  C   UNL     1      34.608 -15.423 -24.676  0.00  0.00    -0.003 C 
ATOM     14  C   UNL     1      34.868 -19.551 -20.876  0.00  0.00    -0.059 C 
ATOM     15  C   UNL     1      34.592 -19.518 -23.305  0.00  0.00    -0.053 C 
ATOM     16  C   UNL     1      34.572 -17.784 -25.092  0.00  0.00    -0.005 C 
ATOM     17  C   UNL     1      34.609 -16.481 -25.571  0.00  0.00    -0.001 C 
ATOM     18  H   UNL     1      35.753 -20.783 -22.222  0.00  0.00    -0.084 HD
ATOM     19  H   UNL     1      36.277 -19.172 -22.260  0.00  0.00    -0.084 HD
ENDROOT
TORSDOF 0
ENDMDL
MODEL 5
REMARK VINA RESULT:      -7.8      3.965      6.473
REMARK  Name = 11521822
REMARK  0 active torsions:
REMARK  status: ('A' for Active; 'I' for Inactive)
REMARK                            x       y       z     vdW  Elec       q    Type
REMARK                         _______ _______ _______ _____ _____    ______ ____
ROOT
ATOM      1  N   UNL     1      33.899 -15.688 -24.564  0.00  0.00    -0.310 N 
ATOM      2  N   UNL     1      34.616 -18.427 -23.835  0.00  0.00    +0.388 N 
ATOM      3  C   UNL     1      32.604 -13.650 -24.930  0.00  0.00    +0.024 C 
ATOM      4  C   UNL     1      32.490 -13.426 -23.414  0.00  0.00    +0.025 C 
ATOM      5  C   UNL     1      33.763 -12.756 -25.414  0.00  0.00    +0.002 C 
ATOM      6  C   UNL     1      32.973 -11.977 -23.269  0.00  0.00    +0.004 C 
ATOM      7  C   UNL     1      32.768 -15.119 -25.284  0.00  0.00    +0.091 C 
ATOM      8  C   UNL     1      34.151 -11.883 -24.226  0.00  0.00    +0.000 C 
ATOM      9  C   UNL     1      33.281 -14.427 -22.583  0.00  0.00    -0.010 C 
ATOM     10  C   UNL     1      33.955 -15.526 -23.181  0.00  0.00    +0.038 C 
ATOM     11  C   UNL     1      34.938 -16.394 -25.297  0.00  0.00    +0.068 C 
ATOM     12  C   UNL     1      34.658 -16.425 -22.332  0.00  0.00    -0.031 C 
ATOM     13  C   UNL     1      33.315 -14.247 -21.188  0.00  0.00    -0.003 C 
ATOM     14  C   UNL     1      34.777 -17.907 -25.190  0.00  0.00    -0.059 C 
ATOM     15  C   UNL     1      35.365 -17.676 -22.827  0.00  0.00    -0.053 C 
ATOM     16  C   UNL     1      34.707 -16.184 -20.946  0.00  0.00    -0.005 C 
ATOM     17  C   UNL     1      34.036 -15.110 -20.377  0.00  0.00    -0.001 C 
ATOM     18  H   UNL     1      34.938 -19.394 -23.821  0.00  0.00    -0.084 HD
ATOM     19  H   UNL     1      33.628 -18.343 -23.598  0.00  0.00    -0.084 HD
ENDROOT
TORSDOF 0
ENDMDL
MODEL 6
REMARK VINA RESULT:      -7.8      1.165      4.297
REMARK  Name = 11521822
REMARK  0 active torsions:
REMARK  status: ('A' for Active; 'I' for Inactive)
REMARK                            x       y       z     vdW  Elec       q    Type
REMARK                         _______ _______ _______ _____ _____    ______ ____
ROOT
ATOM      1  N   UNL     1      32.233  -9.528 -22.004  0.00  0.00    -0.310 N 
ATOM      2  N   UNL     1      33.028  -6.887 -22.972  0.00  0.00    +0.388 N 
ATOM      3  C   UNL     1      31.130 -11.700 -21.836  0.00  0.00    +0.024 C 
ATOM      4  C   UNL     1      31.941 -12.226 -23.030  0.00  0.00    +0.025 C 
ATOM      5  C   UNL     1      31.853 -12.198 -20.569  0.00  0.00    +0.002 C 
ATOM      6  C   UNL     1      32.528 -13.529 -22.469  0.00  0.00    +0.004 C 
ATOM      7  C   UNL     1      30.943 -10.193 -21.888  0.00  0.00    +0.091 C 
ATOM      8  C   UNL     1      32.928 -13.169 -21.046  0.00  0.00    +0.000 C 
ATOM      9  C   UNL     1      32.989 -11.248 -23.543  0.00  0.00    -0.010 C 
ATOM     10  C   UNL     1      33.099  -9.931 -23.019  0.00  0.00    +0.038 C 
ATOM     11  C   UNL     1      32.590  -8.478 -21.062  0.00  0.00    +0.068 C 
ATOM     12  C   UNL     1      34.093  -9.073 -23.563  0.00  0.00    -0.031 C 
ATOM     13  C   UNL     1      33.845 -11.675 -24.574  0.00  0.00    -0.003 C 
ATOM     14  C   UNL     1      32.406  -7.090 -21.667  0.00  0.00    -0.059 C 
ATOM     15  C   UNL     1      34.279  -7.623 -23.146  0.00  0.00    -0.053 C 
ATOM     16  C   UNL     1      34.962  -9.554 -24.563  0.00  0.00    -0.005 C 
ATOM     17  C   UNL     1      34.834 -10.840 -25.069  0.00  0.00    -0.001 C 
ATOM     18  H   UNL     1      33.221  -5.892 -23.086  0.00  0.00    -0.084 HD
ATOM     19  H   UNL     1      32.374  -7.237 -23.673  0.00  0.00    -0.084 HD
ENDROOT
TORSDOF 0
ENDMDL
MODEL 7
REMARK VINA RESULT:      -7.5      4.993      8.083
REMARK  Name = 11521822
REMARK  0 active torsions:
REMARK  status: ('A' for Active; 'I' for Inactive)
REMARK                            x       y       z     vdW  Elec       q    Type
REMARK                         _______ _______ _______ _____ _____    ______ ____
ROOT
ATOM      1  N   UNL     1      33.841 -16.147 -21.556  0.00  0.00    -0.310 N 
ATOM      2  N   UNL     1      32.253 -13.713 -21.866  0.00  0.00    +0.388 N 
ATOM      3  C   UNL     1      34.495 -18.500 -21.518  0.00  0.00    +0.024 C 
ATOM      4  C   UNL     1      34.447 -18.559 -23.052  0.00  0.00    +0.025 C 
ATOM      5  C   UNL     1      35.975 -18.295 -21.139  0.00  0.00    +0.002 C 
ATOM      6  C   UNL     1      35.822 -19.150 -23.392  0.00  0.00    +0.004 C 
ATOM      7  C   UNL     1      33.560 -17.443 -20.953  0.00  0.00    +0.091 C 
ATOM      8  C   UNL     1      36.771 -18.452 -22.430  0.00  0.00    +0.000 C 
ATOM      9  C   UNL     1      34.173 -17.214 -23.712  0.00  0.00    -0.010 C 
ATOM     10  C   UNL     1      33.874 -16.055 -22.945  0.00  0.00    +0.038 C 
ATOM     11  C   UNL     1      34.090 -14.995 -20.703  0.00  0.00    +0.068 C 
ATOM     12  C   UNL     1      33.614 -14.841 -23.639  0.00  0.00    -0.031 C 
ATOM     13  C   UNL     1      34.203 -17.148 -25.116  0.00  0.00    -0.003 C 
ATOM     14  C   UNL     1      32.863 -14.096 -20.596  0.00  0.00    -0.059 C 
ATOM     15  C   UNL     1      33.217 -13.544 -22.952  0.00  0.00    -0.053 C 
ATOM     16  C   UNL     1      33.699 -14.805 -25.044  0.00  0.00    -0.005 C 
ATOM     17  C   UNL     1      33.983 -15.949 -25.777  0.00  0.00    -0.001 C 
ATOM     18  H   UNL     1      31.759 -12.831 -21.733  0.00  0.00    -0.084 HD
ATOM     19  H   UNL     1      31.626 -14.471 -22.137  0.00  0.00    -0.084 HD
ENDROOT
TORSDOF 0
ENDMDL
MODEL 8
REMARK VINA RESULT:      -7.3      1.502      3.588
REMARK  Name = 11521822
REMARK  0 active torsions:
REMARK  status: ('A' for Active; 'I' for Inactive)
REMARK                            x       y       z     vdW  Elec       q    Type
REMARK                         _______ _______ _______ _____ _____    ______ ____
ROOT
ATOM      1  N   UNL     1      33.151 -10.151 -23.887  0.00  0.00    -0.310 N 
ATOM      2  N   UNL     1      33.378 -12.784 -25.134  0.00  0.00    +0.388 N 
ATOM      3  C   UNL     1      32.222  -8.049 -23.061  0.00  0.00    +0.024 C 
ATOM      4  C   UNL     1      31.468  -8.796 -21.950  0.00  0.00    +0.025 C 
ATOM      5  C   UNL     1      33.508  -7.497 -22.415  0.00  0.00    +0.002 C 
ATOM      6  C   UNL     1      31.892  -8.018 -20.697  0.00  0.00    +0.004 C 
ATOM      7  C   UNL     1      32.469  -8.926 -24.277  0.00  0.00    +0.091 C 
ATOM      8  C   UNL     1      33.372  -7.745 -20.917  0.00  0.00    +0.000 C 
ATOM      9  C   UNL     1      31.780 -10.285 -21.887  0.00  0.00    -0.010 C 
ATOM     10  C   UNL     1      32.606 -10.915 -22.857  0.00  0.00    +0.038 C 
ATOM     11  C   UNL     1      34.379 -10.539 -24.564  0.00  0.00    +0.068 C 
ATOM     12  C   UNL     1      32.836 -12.313 -22.736  0.00  0.00    -0.031 C 
ATOM     13  C   UNL     1      31.211 -11.037 -20.843  0.00  0.00    -0.003 C 
ATOM     14  C   UNL     1      34.131 -11.626 -25.604  0.00  0.00    -0.059 C 
ATOM     15  C   UNL     1      33.640 -13.126 -23.737  0.00  0.00    -0.053 C 
ATOM     16  C   UNL     1      32.285 -13.022 -21.651  0.00  0.00    -0.005 C 
ATOM     17  C   UNL     1      31.474 -12.392 -20.717  0.00  0.00    -0.001 C 
ATOM     18  H   UNL     1      33.625 -13.586 -25.714  0.00  0.00    -0.084 HD
ATOM     19  H   UNL     1      32.389 -12.546 -25.204  0.00  0.00    -0.084 HD
ENDROOT
TORSDOF 0
ENDMDL
MODEL 9
REMARK VINA RESULT:      -7.2      2.253      4.522
REMARK  Name = 11521822
REMARK  0 active torsions:
REMARK  status: ('A' for Active; 'I' for Inactive)
REMARK                            x       y       z     vdW  Elec       q    Type
REMARK                         _______ _______ _______ _____ _____    ______ ____
ROOT
ATOM      1  N   UNL     1      32.572 -11.213 -23.011  0.00  0.00    -0.310 N 
ATOM      2  N   UNL     1      33.537 -12.953 -25.152  0.00  0.00    +0.388 N 
ATOM      3  C   UNL     1      31.100 -10.117 -21.400  0.00  0.00    +0.024 C 
ATOM      4  C   UNL     1      30.992 -11.414 -20.585  0.00  0.00    +0.025 C 
ATOM      5  C   UNL     1      32.169  -9.254 -20.701  0.00  0.00    +0.002 C 
ATOM      6  C   UNL     1      31.350 -10.934 -19.172  0.00  0.00    +0.004 C 
ATOM      7  C   UNL     1      31.385 -10.382 -22.869  0.00  0.00    +0.091 C 
ATOM      8  C   UNL     1      32.500  -9.964 -19.393  0.00  0.00    +0.000 C 
ATOM      9  C   UNL     1      31.881 -12.540 -21.098  0.00  0.00    -0.010 C 
ATOM     10  C   UNL     1      32.637 -12.406 -22.294  0.00  0.00    +0.038 C 
ATOM     11  C   UNL     1      33.657 -10.778 -23.878  0.00  0.00    +0.068 C 
ATOM     12  C   UNL     1      33.430 -13.510 -22.713  0.00  0.00    -0.031 C 
ATOM     13  C   UNL     1      31.922 -13.737 -20.362  0.00  0.00    -0.003 C 
ATOM     14  C   UNL     1      33.629 -11.498 -25.222  0.00  0.00    -0.059 C 
ATOM     15  C   UNL     1      34.234 -13.530 -24.003  0.00  0.00    -0.053 C 
ATOM     16  C   UNL     1      33.480 -14.675 -21.924  0.00  0.00    -0.005 C 
ATOM     17  C   UNL     1      32.728 -14.791 -20.763  0.00  0.00    -0.001 C 
ATOM     18  H   UNL     1      33.941 -13.343 -26.003  0.00  0.00    -0.084 HD
ATOM     19  H   UNL     1      32.549 -13.186 -25.050  0.00  0.00    -0.084 HD
ENDROOT
TORSDOF 0
ENDMDL
