MODEL 1
REMARK VINA RESULT:      -8.5      0.000      0.000
REMARK  Name = 16615
REMARK  0 active torsions:
REMARK  status: ('A' for Active; 'I' for Inactive)
REMARK                            x       y       z     vdW  Elec       q    Type
REMARK                         _______ _______ _______ _____ _____    ______ ____
ROOT
ATOM      1  O   UNL     1      33.594 -14.488 -21.131  0.00  0.00    -0.287 OA
ATOM      2  O   UNL     1      34.425 -16.812 -25.864  0.00  0.00    -0.287 OA
ATOM      3  C   UNL     1      34.486 -16.302 -22.308  0.00  0.00    +0.042 C 
ATOM      4  C   UNL     1      34.699 -16.910 -23.542  0.00  0.00    +0.042 C 
ATOM      5  C   UNL     1      33.315 -14.369 -23.489  0.00  0.00    +0.016 C 
ATOM      6  C   UNL     1      33.507 -14.965 -24.681  0.00  0.00    +0.016 C 
ATOM      7  C   UNL     1      33.786 -15.012 -22.223  0.00  0.00    +0.192 C 
ATOM      8  C   UNL     1      34.224 -16.273 -24.780  0.00  0.00    +0.192 C 
ATOM      9  C   UNL     1      34.942 -16.921 -21.137  0.00  0.00    +0.003 C 
ATOM     10  C   UNL     1      35.369 -18.139 -23.608  0.00  0.00    +0.003 C 
ATOM     11  C   UNL     1      32.649 -13.033 -23.290  0.00  0.00    +0.034 C 
ATOM     12  C   UNL     1      33.029 -14.424 -26.002  0.00  0.00    +0.034 C 
ATOM     13  C   UNL     1      35.609 -18.145 -21.206  0.00  0.00    +0.000 C 
ATOM     14  C   UNL     1      35.822 -18.753 -22.440  0.00  0.00    +0.000 C 
ENDROOT
TORSDOF 0
ENDMDL
MODEL 2
REMARK VINA RESULT:      -8.5      0.026      2.921
REMARK  Name = 16615
REMARK  0 active torsions:
REMARK  status: ('A' for Active; 'I' for Inactive)
REMARK                            x       y       z     vdW  Elec       q    Type
REMARK                         _______ _______ _______ _____ _____    ______ ____
ROOT
ATOM      1  O   UNL     1      34.404 -16.786 -25.867  0.00  0.00    -0.287 OA
ATOM      2  O   UNL     1      33.589 -14.499 -21.112  0.00  0.00    -0.287 OA
ATOM      3  C   UNL     1      34.689 -16.901 -23.547  0.00  0.00    +0.042 C 
ATOM      4  C   UNL     1      34.480 -16.303 -22.308  0.00  0.00    +0.042 C 
ATOM      5  C   UNL     1      33.486 -14.950 -24.666  0.00  0.00    +0.016 C 
ATOM      6  C   UNL     1      33.298 -14.364 -23.469  0.00  0.00    +0.016 C 
ATOM      7  C   UNL     1      34.207 -16.256 -24.777  0.00  0.00    +0.192 C 
ATOM      8  C   UNL     1      33.776 -15.014 -22.210  0.00  0.00    +0.192 C 
ATOM      9  C   UNL     1      35.361 -18.128 -23.625  0.00  0.00    +0.003 C 
ATOM     10  C   UNL     1      34.943 -16.929 -21.143  0.00  0.00    +0.003 C 
ATOM     11  C   UNL     1      33.001 -14.401 -25.981  0.00  0.00    +0.034 C 
ATOM     12  C   UNL     1      32.630 -13.031 -23.257  0.00  0.00    +0.034 C 
ATOM     13  C   UNL     1      35.822 -18.749 -22.464  0.00  0.00    +0.000 C 
ATOM     14  C   UNL     1      35.613 -18.150 -21.224  0.00  0.00    +0.000 C 
ENDROOT
TORSDOF 0
ENDMDL
MODEL 3
REMARK VINA RESULT:      -8.4      1.085      3.951
REMARK  Name = 16615
REMARK  0 active torsions:
REMARK  status: ('A' for Active; 'I' for Inactive)
REMARK                            x       y       z     vdW  Elec       q    Type
REMARK                         _______ _______ _______ _____ _____    ______ ____
ROOT
ATOM      1  O   UNL     1      35.043 -16.052 -20.676  0.00  0.00    -0.287 OA
ATOM      2  O   UNL     1      34.054 -17.480 -25.724  0.00  0.00    -0.287 OA
ATOM      3  C   UNL     1      34.303 -15.407 -22.801  0.00  0.00    +0.042 C 
ATOM      4  C   UNL     1      34.050 -15.778 -24.118  0.00  0.00    +0.042 C 
ATOM      5  C   UNL     1      35.046 -17.794 -22.295  0.00  0.00    +0.016 C 
ATOM      6  C   UNL     1      34.815 -18.149 -23.573  0.00  0.00    +0.016 C 
ATOM      7  C   UNL     1      34.813 -16.390 -21.833  0.00  0.00    +0.192 C 
ATOM      8  C   UNL     1      34.290 -17.160 -24.563  0.00  0.00    +0.192 C 
ATOM      9  C   UNL     1      34.071 -14.087 -22.390  0.00  0.00    +0.003 C 
ATOM     10  C   UNL     1      33.563 -14.831 -25.029  0.00  0.00    +0.003 C 
ATOM     11  C   UNL     1      35.527 -18.725 -21.215  0.00  0.00    +0.034 C 
ATOM     12  C   UNL     1      35.064 -19.519 -24.145  0.00  0.00    +0.034 C 
ATOM     13  C   UNL     1      33.587 -13.147 -23.300  0.00  0.00    +0.000 C 
ATOM     14  C   UNL     1      33.333 -13.518 -24.617  0.00  0.00    +0.000 C 
ENDROOT
TORSDOF 0
ENDMDL
MODEL 4
REMARK VINA RESULT:      -8.4      1.079      4.856
REMARK  Name = 16615
REMARK  0 active torsions:
REMARK  status: ('A' for Active; 'I' for Inactive)
REMARK                            x       y       z     vdW  Elec       q    Type
REMARK                         _______ _______ _______ _____ _____    ______ ____
ROOT
ATOM      1  O   UNL     1      34.064 -17.482 -25.726  0.00  0.00    -0.287 OA
ATOM      2  O   UNL     1      35.026 -15.973 -20.696  0.00  0.00    -0.287 OA
ATOM      3  C   UNL     1      34.048 -15.755 -24.147  0.00  0.00    +0.042 C 
ATOM      4  C   UNL     1      34.295 -15.363 -22.834  0.00  0.00    +0.042 C 
ATOM      5  C   UNL     1      34.816 -18.115 -23.561  0.00  0.00    +0.016 C 
ATOM      6  C   UNL     1      35.040 -17.740 -22.288  0.00  0.00    +0.016 C 
ATOM      7  C   UNL     1      34.293 -17.142 -24.569  0.00  0.00    +0.192 C 
ATOM      8  C   UNL     1      34.802 -16.330 -21.849  0.00  0.00    +0.192 C 
ATOM      9  C   UNL     1      33.564 -14.824 -25.074  0.00  0.00    +0.003 C 
ATOM     10  C   UNL     1      34.058 -14.037 -22.446  0.00  0.00    +0.003 C 
ATOM     11  C   UNL     1      35.071 -19.494 -24.110  0.00  0.00    +0.034 C 
ATOM     12  C   UNL     1      35.518 -18.653 -21.190  0.00  0.00    +0.034 C 
ATOM     13  C   UNL     1      33.329 -13.505 -24.684  0.00  0.00    +0.000 C 
ATOM     14  C   UNL     1      33.576 -13.112 -23.372  0.00  0.00    +0.000 C 
ENDROOT
TORSDOF 0
ENDMDL
MODEL 5
REMARK VINA RESULT:      -8.2      1.476      3.926
REMARK  Name = 16615
REMARK  0 active torsions:
REMARK  status: ('A' for Active; 'I' for Inactive)
REMARK                            x       y       z     vdW  Elec       q    Type
REMARK                         _______ _______ _______ _____ _____    ______ ____
ROOT
ATOM      1  O   UNL     1      34.986 -16.445 -20.391  0.00  0.00    -0.287 OA
ATOM      2  O   UNL     1      33.181 -14.993 -25.200  0.00  0.00    -0.287 OA
ATOM      3  C   UNL     1      33.667 -14.970 -21.641  0.00  0.00    +0.042 C 
ATOM      4  C   UNL     1      33.200 -14.589 -22.895  0.00  0.00    +0.042 C 
ATOM      5  C   UNL     1      34.971 -16.873 -22.730  0.00  0.00    +0.016 C 
ATOM      6  C   UNL     1      34.531 -16.494 -23.944  0.00  0.00    +0.016 C 
ATOM      7  C   UNL     1      34.571 -16.121 -21.499  0.00  0.00    +0.192 C 
ATOM      8  C   UNL     1      33.606 -15.330 -24.099  0.00  0.00    +0.192 C 
ATOM      9  C   UNL     1      33.274 -14.254 -20.502  0.00  0.00    +0.003 C 
ATOM     10  C   UNL     1      32.339 -13.490 -23.015  0.00  0.00    +0.003 C 
ATOM     11  C   UNL     1      35.863 -18.057 -22.465  0.00  0.00    +0.034 C 
ATOM     12  C   UNL     1      34.914 -17.153 -25.243  0.00  0.00    +0.034 C 
ATOM     13  C   UNL     1      32.416 -13.161 -20.625  0.00  0.00    +0.000 C 
ATOM     14  C   UNL     1      31.949 -12.780 -21.879  0.00  0.00    +0.000 C 
ENDROOT
TORSDOF 0
ENDMDL
MODEL 6
REMARK VINA RESULT:      -8.2      1.504      4.506
REMARK  Name = 16615
REMARK  0 active torsions:
REMARK  status: ('A' for Active; 'I' for Inactive)
REMARK                            x       y       z     vdW  Elec       q    Type
REMARK                         _______ _______ _______ _____ _____    ______ ____
ROOT
ATOM      1  O   UNL     1      33.198 -14.973 -25.181  0.00  0.00    -0.287 OA
ATOM      2  O   UNL     1      35.053 -16.590 -20.444  0.00  0.00    -0.287 OA
ATOM      3  C   UNL     1      33.241 -14.649 -22.864  0.00  0.00    +0.042 C 
ATOM      4  C   UNL     1      33.721 -15.073 -21.629  0.00  0.00    +0.042 C 
ATOM      5  C   UNL     1      34.561 -16.517 -23.992  0.00  0.00    +0.016 C 
ATOM      6  C   UNL     1      35.013 -16.937 -22.796  0.00  0.00    +0.016 C 
ATOM      7  C   UNL     1      33.633 -15.348 -24.097  0.00  0.00    +0.192 C 
ATOM      8  C   UNL     1      34.627 -16.229 -21.537  0.00  0.00    +0.192 C 
ATOM      9  C   UNL     1      32.378 -13.548 -22.937  0.00  0.00    +0.003 C 
ATOM     10  C   UNL     1      33.340 -14.397 -20.462  0.00  0.00    +0.003 C 
ATOM     11  C   UNL     1      34.930 -17.130 -25.317  0.00  0.00    +0.034 C 
ATOM     12  C   UNL     1      35.907 -18.129 -22.582  0.00  0.00    +0.034 C 
ATOM     13  C   UNL     1      32.000 -12.877 -21.774  0.00  0.00    +0.000 C 
ATOM     14  C   UNL     1      32.481 -13.301 -20.538  0.00  0.00    +0.000 C 
ENDROOT
TORSDOF 0
ENDMDL
MODEL 7
REMARK VINA RESULT:      -8.0      0.902      4.048
REMARK  Name = 16615
REMARK  0 active torsions:
REMARK  status: ('A' for Active; 'I' for Inactive)
REMARK                            x       y       z     vdW  Elec       q    Type
REMARK                         _______ _______ _______ _____ _____    ______ ____
ROOT
ATOM      1  O   UNL     1      34.467 -14.441 -21.637  0.00  0.00    -0.287 OA
ATOM      2  O   UNL     1      34.126 -17.789 -25.780  0.00  0.00    -0.287 OA
ATOM      3  C   UNL     1      33.945 -14.734 -23.899  0.00  0.00    +0.042 C 
ATOM      4  C   UNL     1      33.861 -15.606 -24.980  0.00  0.00    +0.042 C 
ATOM      5  C   UNL     1      34.735 -16.665 -22.433  0.00  0.00    +0.016 C 
ATOM      6  C   UNL     1      34.668 -17.505 -23.482  0.00  0.00    +0.016 C 
ATOM      7  C   UNL     1      34.386 -15.218 -22.583  0.00  0.00    +0.192 C 
ATOM      8  C   UNL     1      34.213 -17.026 -24.823  0.00  0.00    +0.192 C 
ATOM      9  C   UNL     1      33.607 -13.384 -24.063  0.00  0.00    +0.003 C 
ATOM     10  C   UNL     1      33.438 -15.131 -26.229  0.00  0.00    +0.003 C 
ATOM     11  C   UNL     1      35.132 -17.061 -21.035  0.00  0.00    +0.034 C 
ATOM     12  C   UNL     1      35.043 -18.963 -23.445  0.00  0.00    +0.034 C 
ATOM     13  C   UNL     1      33.187 -12.914 -25.307  0.00  0.00    +0.000 C 
ATOM     14  C   UNL     1      33.102 -13.786 -26.389  0.00  0.00    +0.000 C 
ENDROOT
TORSDOF 0
ENDMDL
MODEL 8
REMARK VINA RESULT:      -7.9      1.470      3.227
REMARK  Name = 16615
REMARK  0 active torsions:
REMARK  status: ('A' for Active; 'I' for Inactive)
REMARK                            x       y       z     vdW  Elec       q    Type
REMARK                         _______ _______ _______ _____ _____    ______ ____
ROOT
ATOM      1  O   UNL     1      33.555 -15.067 -25.269  0.00  0.00    -0.287 OA
ATOM      2  O   UNL     1      35.229 -16.949 -20.562  0.00  0.00    -0.287 OA
ATOM      3  C   UNL     1      34.334 -16.901 -24.041  0.00  0.00    +0.042 C 
ATOM      4  C   UNL     1      34.775 -17.390 -22.814  0.00  0.00    +0.042 C 
ATOM      5  C   UNL     1      34.005 -14.605 -22.980  0.00  0.00    +0.016 C 
ATOM      6  C   UNL     1      34.446 -15.075 -21.798  0.00  0.00    +0.016 C 
ATOM      7  C   UNL     1      33.934 -15.493 -24.182  0.00  0.00    +0.192 C 
ATOM      8  C   UNL     1      34.849 -16.506 -21.641  0.00  0.00    +0.192 C 
ATOM      9  C   UNL     1      34.270 -17.754 -25.151  0.00  0.00    +0.003 C 
ATOM     10  C   UNL     1      35.153 -18.734 -22.694  0.00  0.00    +0.003 C 
ATOM     11  C   UNL     1      33.532 -13.197 -23.226  0.00  0.00    +0.034 C 
ATOM     12  C   UNL     1      34.600 -14.251 -20.547  0.00  0.00    +0.034 C 
ATOM     13  C   UNL     1      34.647 -19.091 -25.028  0.00  0.00    +0.000 C 
ATOM     14  C   UNL     1      35.088 -19.581 -23.801  0.00  0.00    +0.000 C 
ENDROOT
TORSDOF 0
ENDMDL
MODEL 9
REMARK VINA RESULT:      -7.8      1.455      2.293
REMARK  Name = 16615
REMARK  0 active torsions:
REMARK  status: ('A' for Active; 'I' for Inactive)
REMARK                            x       y       z     vdW  Elec       q    Type
REMARK                         _______ _______ _______ _____ _____    ______ ____
ROOT
ATOM      1  O   UNL     1      35.211 -16.893 -20.565  0.00  0.00    -0.287 OA
ATOM      2  O   UNL     1      33.596 -15.120 -25.334  0.00  0.00    -0.287 OA
ATOM      3  C   UNL     1      34.775 -17.388 -22.810  0.00  0.00    +0.042 C 
ATOM      4  C   UNL     1      34.349 -16.927 -24.052  0.00  0.00    +0.042 C 
ATOM      5  C   UNL     1      34.454 -15.045 -21.856  0.00  0.00    +0.016 C 
ATOM      6  C   UNL     1      34.028 -14.603 -23.054  0.00  0.00    +0.016 C 
ATOM      7  C   UNL     1      34.844 -16.476 -21.659  0.00  0.00    +0.192 C 
ATOM      8  C   UNL     1      33.961 -15.519 -24.233  0.00  0.00    +0.192 C 
ATOM      9  C   UNL     1      35.141 -18.731 -22.652  0.00  0.00    +0.003 C 
ATOM     10  C   UNL     1      34.289 -17.807 -25.141  0.00  0.00    +0.003 C 
ATOM     11  C   UNL     1      34.603 -14.191 -20.625  0.00  0.00    +0.034 C 
ATOM     12  C   UNL     1      33.568 -13.198 -23.340  0.00  0.00    +0.034 C 
ATOM     13  C   UNL     1      35.080 -19.606 -23.738  0.00  0.00    +0.000 C 
ATOM     14  C   UNL     1      34.654 -19.144 -24.980  0.00  0.00    +0.000 C 
ENDROOT
TORSDOF 0
ENDMDL
