MODEL 1
REMARK VINA RESULT:      -9.7      0.000      0.000
REMARK  Name = 448973
REMARK  4 active torsions:
REMARK  status: ('A' for Active; 'I' for Inactive)
REMARK    1  A    between atoms: C_6  and  C_16
REMARK    2  A    between atoms: C_16  and  C_17
REMARK    3  A    between atoms: C_18  and  O_23
REMARK    4  A    between atoms: C_20  and  O_25
REMARK                            x       y       z     vdW  Elec       q    Type
REMARK                         _______ _______ _______ _____ _____    ______ ____
ROOT
ATOM      1  F   UNL     1      33.065 -13.806 -22.191  0.00  0.00    -0.098 F 
ATOM      2  N   UNL     1      35.906 -18.251 -22.628  0.00  0.00    -0.270 NA
ATOM      3  N   UNL     1      35.413 -17.542 -20.574  0.00  0.00    -0.298 N 
ATOM      4  N   UNL     1      34.167 -15.567 -21.246  0.00  0.00    -0.305 NA
ATOM      5  N   UNL     1      34.025 -15.265 -23.663  0.00  0.00    -0.305 NA
ATOM      6  C   UNL     1      36.019 -18.471 -21.282  0.00  0.00    +0.134 C 
ATOM      7  C   UNL     1      35.180 -17.106 -22.795  0.00  0.00    +0.192 C 
ATOM      8  C   UNL     1      34.886 -16.685 -21.505  0.00  0.00    +0.195 C 
ATOM      9  C   UNL     1      34.744 -16.387 -23.891  0.00  0.00    +0.191 C 
ATOM     10  C   UNL     1      33.784 -14.929 -22.373  0.00  0.00    +0.299 C 
ATOM     11  H   UNL     1      36.279 -18.813 -23.344  0.00  0.00    +0.126 HD
ATOM     12  H   UNL     1      35.351 -17.477 -19.593  0.00  0.00    +0.150 HD
ATOM     13  N   UNL     1      35.036 -16.802 -25.200  0.00  0.00    -0.334 N 
ATOM     14  H   UNL     1      34.716 -16.274 -25.967  0.00  0.00    +0.144 HD
ATOM     15  H   UNL     1      35.561 -17.621 -25.350  0.00  0.00    +0.144 HD
ENDROOT
BRANCH   6  16
ATOM     16  C   UNL     1      36.752 -19.639 -20.757  0.00  0.00    +0.066 C 
BRANCH  16  17
ATOM     17  C   UNL     1      35.912 -20.582 -19.908  0.00  0.00    +0.018 C 
ATOM     18  C   UNL     1      34.581 -20.779 -20.217  0.00  0.00    +0.135 C 
ATOM     19  C   UNL     1      36.519 -21.217 -18.842  0.00  0.00    +0.036 C 
ATOM     20  C   UNL     1      35.763 -22.085 -18.053  0.00  0.00    +0.139 C 
ATOM     21  C   UNL     1      33.825 -21.647 -19.429  0.00  0.00    +0.040 C 
ATOM     22  C   UNL     1      34.416 -22.299 -18.347  0.00  0.00    +0.040 C 
BRANCH  18  23
ATOM     23  O   UNL     1      33.988 -20.149 -21.270  0.00  0.00    -0.472 OA
ATOM     24  C   UNL     1      32.640 -19.721 -21.093  0.00  0.00    +0.252 C 
ENDBRANCH  18  23
BRANCH  20  25
ATOM     25  O   UNL     1      36.340 -22.722 -16.999  0.00  0.00    -0.471 OA
ATOM     26  C   UNL     1      37.342 -22.008 -16.276  0.00  0.00    +0.252 C 
ENDBRANCH  20  25
ENDBRANCH  16  17
ENDBRANCH   6  16
TORSDOF 4
ENDMDL
MODEL 2
REMARK VINA RESULT:      -9.5      3.396      7.151
REMARK  Name = 448973
REMARK  4 active torsions:
REMARK  status: ('A' for Active; 'I' for Inactive)
REMARK    1  A    between atoms: C_6  and  C_16
REMARK    2  A    between atoms: C_16  and  C_17
REMARK    3  A    between atoms: C_18  and  O_23
REMARK    4  A    between atoms: C_20  and  O_25
REMARK                            x       y       z     vdW  Elec       q    Type
REMARK                         _______ _______ _______ _____ _____    ______ ____
ROOT
ATOM      1  F   UNL     1      32.144 -22.078 -18.437  0.00  0.00    -0.098 F 
ATOM      2  N   UNL     1      36.079 -19.857 -21.195  0.00  0.00    -0.270 NA
ATOM      3  N   UNL     1      33.992 -19.404 -21.832  0.00  0.00    -0.298 N 
ATOM      4  N   UNL     1      32.880 -20.743 -20.136  0.00  0.00    -0.305 NA
ATOM      5  N   UNL     1      34.413 -21.889 -18.622  0.00  0.00    -0.305 NA
ATOM      6  C   UNL     1      35.268 -19.191 -22.074  0.00  0.00    +0.134 C 
ATOM      7  C   UNL     1      35.271 -20.543 -20.333  0.00  0.00    +0.192 C 
ATOM      8  C   UNL     1      33.981 -20.246 -20.750  0.00  0.00    +0.195 C 
ATOM      9  C   UNL     1      35.493 -21.376 -19.254  0.00  0.00    +0.191 C 
ATOM     10  C   UNL     1      33.191 -21.546 -19.095  0.00  0.00    +0.299 C 
ATOM     11  H   UNL     1      37.063 -19.844 -21.185  0.00  0.00    +0.126 HD
ATOM     12  H   UNL     1      33.219 -19.041 -22.320  0.00  0.00    +0.150 HD
ATOM     13  N   UNL     1      36.793 -21.684 -18.824  0.00  0.00    -0.334 N 
ATOM     14  H   UNL     1      36.928 -22.281 -18.052  0.00  0.00    +0.144 HD
ATOM     15  H   UNL     1      37.570 -21.303 -19.294  0.00  0.00    +0.144 HD
ENDROOT
BRANCH   6  16
ATOM     16  C   UNL     1      35.831 -18.347 -23.145  0.00  0.00    +0.066 C 
BRANCH  16  17
ATOM     17  C   UNL     1      34.988 -17.131 -23.500  0.00  0.00    +0.018 C 
ATOM     18  C   UNL     1      34.617 -16.242 -22.511  0.00  0.00    +0.135 C 
ATOM     19  C   UNL     1      34.618 -16.957 -24.819  0.00  0.00    +0.036 C 
ATOM     20  C   UNL     1      33.844 -15.847 -25.162  0.00  0.00    +0.139 C 
ATOM     21  C   UNL     1      33.844 -15.133 -22.853  0.00  0.00    +0.040 C 
ATOM     22  C   UNL     1      33.457 -14.936 -24.179  0.00  0.00    +0.040 C 
BRANCH  18  23
ATOM     23  O   UNL     1      34.986 -16.421 -21.211  0.00  0.00    -0.472 OA
ATOM     24  C   UNL     1      34.595 -15.413 -20.282  0.00  0.00    +0.252 C 
ENDBRANCH  18  23
BRANCH  20  25
ATOM     25  O   UNL     1      33.468 -15.654 -26.455  0.00  0.00    -0.471 OA
ATOM     26  C   UNL     1      33.113 -14.325 -26.836  0.00  0.00    +0.252 C 
ENDBRANCH  20  25
ENDBRANCH  16  17
ENDBRANCH   6  16
TORSDOF 4
ENDMDL
MODEL 3
REMARK VINA RESULT:      -9.4      6.401      9.156
REMARK  Name = 448973
REMARK  4 active torsions:
REMARK  status: ('A' for Active; 'I' for Inactive)
REMARK    1  A    between atoms: C_6  and  C_16
REMARK    2  A    between atoms: C_16  and  C_17
REMARK    3  A    between atoms: C_18  and  O_23
REMARK    4  A    between atoms: C_20  and  O_25
REMARK                            x       y       z     vdW  Elec       q    Type
REMARK                         _______ _______ _______ _____ _____    ______ ____
ROOT
ATOM      1  F   UNL     1      35.597 -24.725 -10.615  0.00  0.00    -0.098 F 
ATOM      2  N   UNL     1      37.210 -24.230 -15.633  0.00  0.00    -0.270 NA
ATOM      3  N   UNL     1      36.216 -22.471 -14.693  0.00  0.00    -0.298 N 
ATOM      4  N   UNL     1      35.821 -23.493 -12.524  0.00  0.00    -0.305 NA
ATOM      5  N   UNL     1      36.620 -25.793 -12.357  0.00  0.00    -0.305 NA
ATOM      6  C   UNL     1      36.782 -22.939 -15.785  0.00  0.00    +0.134 C 
ATOM      7  C   UNL     1      36.898 -24.617 -14.360  0.00  0.00    +0.192 C 
ATOM      8  C   UNL     1      36.282 -23.508 -13.798  0.00  0.00    +0.195 C 
ATOM      9  C   UNL     1      37.070 -25.777 -13.631  0.00  0.00    +0.191 C 
ATOM     10  C   UNL     1      36.032 -24.666 -11.888  0.00  0.00    +0.299 C 
ATOM     11  H   UNL     1      37.660 -24.780 -16.315  0.00  0.00    +0.126 HD
ATOM     12  H   UNL     1      35.831 -21.577 -14.551  0.00  0.00    +0.150 HD
ATOM     13  N   UNL     1      37.692 -26.905 -14.190  0.00  0.00    -0.334 N 
ATOM     14  H   UNL     1      37.804 -27.723 -13.652  0.00  0.00    +0.144 HD
ATOM     15  H   UNL     1      38.015 -26.879 -15.119  0.00  0.00    +0.144 HD
ENDROOT
BRANCH   6  16
ATOM     16  C   UNL     1      36.969 -22.217 -17.058  0.00  0.00    +0.066 C 
BRANCH  16  17
ATOM     17  C   UNL     1      35.704 -22.069 -17.892  0.00  0.00    +0.018 C 
ATOM     18  C   UNL     1      35.724 -21.294 -19.034  0.00  0.00    +0.135 C 
ATOM     19  C   UNL     1      34.564 -22.724 -17.469  0.00  0.00    +0.036 C 
ATOM     20  C   UNL     1      33.396 -22.599 -18.222  0.00  0.00    +0.139 C 
ATOM     21  C   UNL     1      34.557 -21.169 -19.786  0.00  0.00    +0.040 C 
ATOM     22  C   UNL     1      33.393 -21.821 -19.380  0.00  0.00    +0.040 C 
BRANCH  18  23
ATOM     23  O   UNL     1      36.853 -20.650 -19.444  0.00  0.00    -0.472 OA
ATOM     24  C   UNL     1      36.704 -19.669 -20.467  0.00  0.00    +0.252 C 
ENDBRANCH  18  23
BRANCH  20  25
ATOM     25  O   UNL     1      32.260 -23.235 -17.827  0.00  0.00    -0.471 OA
ATOM     26  C   UNL     1      31.941 -23.191 -16.436  0.00  0.00    +0.252 C 
ENDBRANCH  20  25
ENDBRANCH  16  17
ENDBRANCH   6  16
TORSDOF 4
ENDMDL
MODEL 4
REMARK VINA RESULT:      -9.3      3.775      6.734
REMARK  Name = 448973
REMARK  4 active torsions:
REMARK  status: ('A' for Active; 'I' for Inactive)
REMARK    1  A    between atoms: C_6  and  C_16
REMARK    2  A    between atoms: C_16  and  C_17
REMARK    3  A    between atoms: C_18  and  O_23
REMARK    4  A    between atoms: C_20  and  O_25
REMARK                            x       y       z     vdW  Elec       q    Type
REMARK                         _______ _______ _______ _____ _____    ______ ____
ROOT
ATOM      1  F   UNL     1      32.506 -23.084 -18.054  0.00  0.00    -0.098 F 
ATOM      2  N   UNL     1      36.390 -20.129 -20.103  0.00  0.00    -0.270 NA
ATOM      3  N   UNL     1      34.361 -19.927 -21.000  0.00  0.00    -0.298 N 
ATOM      4  N   UNL     1      33.250 -21.534 -19.555  0.00  0.00    -0.305 NA
ATOM      5  N   UNL     1      34.726 -22.565 -17.907  0.00  0.00    -0.305 NA
ATOM      6  C   UNL     1      35.611 -19.518 -21.048  0.00  0.00    +0.134 C 
ATOM      7  C   UNL     1      35.588 -20.985 -19.403  0.00  0.00    +0.192 C 
ATOM      8  C   UNL     1      34.334 -20.841 -19.979  0.00  0.00    +0.195 C 
ATOM      9  C   UNL     1      35.790 -21.859 -18.352  0.00  0.00    +0.191 C 
ATOM     10  C   UNL     1      33.538 -22.362 -18.527  0.00  0.00    +0.299 C 
ATOM     11  H   UNL     1      37.352 -19.979 -19.954  0.00  0.00    +0.126 HD
ATOM     12  H   UNL     1      33.612 -19.640 -21.570  0.00  0.00    +0.150 HD
ATOM     13  N   UNL     1      37.054 -22.013 -17.762  0.00  0.00    -0.334 N 
ATOM     14  H   UNL     1      37.175 -22.642 -17.014  0.00  0.00    +0.144 HD
ATOM     15  H   UNL     1      37.820 -21.492 -18.096  0.00  0.00    +0.144 HD
ENDROOT
BRANCH   6  16
ATOM     16  C   UNL     1      36.176 -18.524 -21.980  0.00  0.00    +0.066 C 
BRANCH  16  17
ATOM     17  C   UNL     1      35.274 -17.330 -22.254  0.00  0.00    +0.018 C 
ATOM     18  C   UNL     1      34.844 -17.079 -23.542  0.00  0.00    +0.135 C 
ATOM     19  C   UNL     1      34.911 -16.528 -21.190  0.00  0.00    +0.036 C 
ATOM     20  C   UNL     1      34.084 -15.429 -21.424  0.00  0.00    +0.139 C 
ATOM     21  C   UNL     1      34.018 -15.980 -23.776  0.00  0.00    +0.040 C 
ATOM     22  C   UNL     1      33.638 -15.155 -22.718  0.00  0.00    +0.040 C 
BRANCH  18  23
ATOM     23  O   UNL     1      35.207 -17.874 -24.587  0.00  0.00    -0.472 OA
ATOM     24  C   UNL     1      34.217 -18.761 -25.101  0.00  0.00    +0.252 C 
ENDBRANCH  18  23
BRANCH  20  25
ATOM     25  O   UNL     1      33.712 -14.625 -20.392  0.00  0.00    -0.471 OA
ATOM     26  C   UNL     1      32.544 -13.827 -20.578  0.00  0.00    +0.252 C 
ENDBRANCH  20  25
ENDBRANCH  16  17
ENDBRANCH   6  16
TORSDOF 4
ENDMDL
MODEL 5
REMARK VINA RESULT:      -9.2      3.399      7.344
REMARK  Name = 448973
REMARK  4 active torsions:
REMARK  status: ('A' for Active; 'I' for Inactive)
REMARK    1  A    between atoms: C_6  and  C_16
REMARK    2  A    between atoms: C_16  and  C_17
REMARK    3  A    between atoms: C_18  and  O_23
REMARK    4  A    between atoms: C_20  and  O_25
REMARK                            x       y       z     vdW  Elec       q    Type
REMARK                         _______ _______ _______ _____ _____    ______ ____
ROOT
ATOM      1  F   UNL     1      36.833 -21.025 -18.475  0.00  0.00    -0.098 F 
ATOM      2  N   UNL     1      34.247 -18.932 -22.592  0.00  0.00    -0.270 NA
ATOM      3  N   UNL     1      36.426 -18.498 -22.417  0.00  0.00    -0.298 N 
ATOM      4  N   UNL     1      36.804 -19.764 -20.377  0.00  0.00    -0.305 NA
ATOM      5  N   UNL     1      34.801 -20.852 -19.504  0.00  0.00    -0.305 NA
ATOM      6  C   UNL     1      35.337 -18.300 -23.128  0.00  0.00    +0.134 C 
ATOM      7  C   UNL     1      34.665 -19.579 -21.464  0.00  0.00    +0.192 C 
ATOM      8  C   UNL     1      36.020 -19.294 -21.377  0.00  0.00    +0.195 C 
ATOM      9  C   UNL     1      34.044 -20.369 -20.515  0.00  0.00    +0.191 C 
ATOM     10  C   UNL     1      36.116 -20.524 -19.498  0.00  0.00    +0.299 C 
ATOM     11  H   UNL     1      33.332 -18.923 -22.954  0.00  0.00    +0.126 HD
ATOM     12  H   UNL     1      37.331 -18.153 -22.592  0.00  0.00    +0.150 HD
ATOM     13  N   UNL     1      32.674 -20.664 -20.593  0.00  0.00    -0.334 N 
ATOM     14  H   UNL     1      32.252 -21.229 -19.906  0.00  0.00    +0.144 HD
ATOM     15  H   UNL     1      32.135 -20.305 -21.335  0.00  0.00    +0.144 HD
ENDROOT
BRANCH   6  16
ATOM     16  C   UNL     1      35.227 -17.503 -24.365  0.00  0.00    +0.066 C 
BRANCH  16  17
ATOM     17  C   UNL     1      34.448 -16.205 -24.213  0.00  0.00    +0.018 C 
ATOM     18  C   UNL     1      34.407 -15.571 -22.987  0.00  0.00    +0.135 C 
ATOM     19  C   UNL     1      33.800 -15.699 -25.322  0.00  0.00    +0.036 C 
ATOM     20  C   UNL     1      33.080 -14.509 -25.200  0.00  0.00    +0.139 C 
ATOM     21  C   UNL     1      33.689 -14.382 -22.864  0.00  0.00    +0.040 C 
ATOM     22  C   UNL     1      33.025 -13.851 -23.970  0.00  0.00    +0.040 C 
BRANCH  18  23
ATOM     23  O   UNL     1      35.049 -16.077 -21.896  0.00  0.00    -0.472 OA
ATOM     24  C   UNL     1      34.592 -15.643 -20.617  0.00  0.00    +0.252 C 
ENDBRANCH  18  23
BRANCH  20  25
ATOM     25  O   UNL     1      32.434 -13.991 -26.279  0.00  0.00    -0.471 OA
ATOM     26  C   UNL     1      33.232 -13.313 -27.249  0.00  0.00    +0.252 C 
ENDBRANCH  20  25
ENDBRANCH  16  17
ENDBRANCH   6  16
TORSDOF 4
ENDMDL
MODEL 6
REMARK VINA RESULT:      -9.2      3.706      6.885
REMARK  Name = 448973
REMARK  4 active torsions:
REMARK  status: ('A' for Active; 'I' for Inactive)
REMARK    1  A    between atoms: C_6  and  C_16
REMARK    2  A    between atoms: C_16  and  C_17
REMARK    3  A    between atoms: C_18  and  O_23
REMARK    4  A    between atoms: C_20  and  O_25
REMARK                            x       y       z     vdW  Elec       q    Type
REMARK                         _______ _______ _______ _____ _____    ______ ____
ROOT
ATOM      1  F   UNL     1      36.805 -21.591 -18.599  0.00  0.00    -0.098 F 
ATOM      2  N   UNL     1      34.244 -18.626 -22.159  0.00  0.00    -0.270 NA
ATOM      3  N   UNL     1      36.439 -18.306 -21.940  0.00  0.00    -0.298 N 
ATOM      4  N   UNL     1      36.797 -19.970 -20.206  0.00  0.00    -0.305 NA
ATOM      5  N   UNL     1      34.768 -21.148 -19.534  0.00  0.00    -0.305 NA
ATOM      6  C   UNL     1      35.348 -17.933 -22.576  0.00  0.00    +0.134 C 
ATOM      7  C   UNL     1      34.652 -19.501 -21.193  0.00  0.00    +0.192 C 
ATOM      8  C   UNL     1      36.018 -19.283 -21.075  0.00  0.00    +0.195 C 
ATOM      9  C   UNL     1      34.016 -20.446 -20.412  0.00  0.00    +0.191 C 
ATOM     10  C   UNL     1      36.094 -20.870 -19.486  0.00  0.00    +0.299 C 
ATOM     11  H   UNL     1      33.325 -18.515 -22.494  0.00  0.00    +0.126 HD
ATOM     12  H   UNL     1      37.353 -17.961 -22.060  0.00  0.00    +0.150 HD
ATOM     13  N   UNL     1      32.635 -20.676 -20.522  0.00  0.00    -0.334 N 
ATOM     14  H   UNL     1      32.202 -21.355 -19.955  0.00  0.00    +0.144 HD
ATOM     15  H   UNL     1      32.101 -20.157 -21.165  0.00  0.00    +0.144 HD
ENDROOT
BRANCH   6  16
ATOM     16  C   UNL     1      35.251 -16.899 -23.624  0.00  0.00    +0.066 C 
BRANCH  16  17
ATOM     17  C   UNL     1      34.273 -15.776 -23.314  0.00  0.00    +0.018 C 
ATOM     18  C   UNL     1      33.601 -15.150 -24.345  0.00  0.00    +0.135 C 
ATOM     19  C   UNL     1      34.088 -15.416 -21.994  0.00  0.00    +0.036 C 
ATOM     20  C   UNL     1      33.195 -14.388 -21.692  0.00  0.00    +0.139 C 
ATOM     21  C   UNL     1      32.708 -14.122 -24.044  0.00  0.00    +0.040 C 
ATOM     22  C   UNL     1      32.505 -13.741 -22.718  0.00  0.00    +0.040 C 
BRANCH  18  23
ATOM     23  O   UNL     1      33.789 -15.509 -25.646  0.00  0.00    -0.472 OA
ATOM     24  C   UNL     1      33.113 -14.736 -26.636  0.00  0.00    +0.252 C 
ENDBRANCH  18  23
BRANCH  20  25
ATOM     25  O   UNL     1      32.996 -14.017 -20.399  0.00  0.00    -0.471 OA
ATOM     26  C   UNL     1      32.202 -12.852 -20.172  0.00  0.00    +0.252 C 
ENDBRANCH  20  25
ENDBRANCH  16  17
ENDBRANCH   6  16
TORSDOF 4
ENDMDL
MODEL 7
REMARK VINA RESULT:      -9.1      3.006      4.917
REMARK  Name = 448973
REMARK  4 active torsions:
REMARK  status: ('A' for Active; 'I' for Inactive)
REMARK    1  A    between atoms: C_6  and  C_16
REMARK    2  A    between atoms: C_16  and  C_17
REMARK    3  A    between atoms: C_18  and  O_23
REMARK    4  A    between atoms: C_20  and  O_25
REMARK                            x       y       z     vdW  Elec       q    Type
REMARK                         _______ _______ _______ _____ _____    ______ ____
ROOT
ATOM      1  F   UNL     1      33.816 -16.971 -21.959  0.00  0.00    -0.098 F 
ATOM      2  N   UNL     1      35.194 -21.544 -19.676  0.00  0.00    -0.270 NA
ATOM      3  N   UNL     1      33.018 -21.125 -19.909  0.00  0.00    -0.298 N 
ATOM      4  N   UNL     1      33.260 -18.957 -20.981  0.00  0.00    -0.305 NA
ATOM      5  N   UNL     1      35.579 -18.265 -21.297  0.00  0.00    -0.305 NA
ATOM      6  C   UNL     1      33.914 -21.984 -19.473  0.00  0.00    +0.134 C 
ATOM      7  C   UNL     1      35.115 -20.323 -20.282  0.00  0.00    +0.192 C 
ATOM      8  C   UNL     1      33.754 -20.085 -20.415  0.00  0.00    +0.195 C 
ATOM      9  C   UNL     1      36.042 -19.401 -20.729  0.00  0.00    +0.191 C 
ATOM     10  C   UNL     1      34.235 -18.116 -21.387  0.00  0.00    +0.299 C 
ATOM     11  H   UNL     1      36.021 -22.020 -19.431  0.00  0.00    +0.126 HD
ATOM     12  H   UNL     1      32.038 -21.209 -19.878  0.00  0.00    +0.150 HD
ATOM     13  N   UNL     1      37.421 -19.631 -20.599  0.00  0.00    -0.334 N 
ATOM     14  H   UNL     1      38.065 -18.960 -20.924  0.00  0.00    +0.144 HD
ATOM     15  H   UNL     1      37.744 -20.463 -20.183  0.00  0.00    +0.144 HD
ENDROOT
BRANCH   6  16
ATOM     16  C   UNL     1      33.646 -23.285 -18.831  0.00  0.00    +0.066 C 
BRANCH  16  17
ATOM     17  C   UNL     1      33.353 -23.206 -17.340  0.00  0.00    +0.018 C 
ATOM     18  C   UNL     1      34.398 -23.157 -16.439  0.00  0.00    +0.135 C 
ATOM     19  C   UNL     1      32.033 -23.186 -16.935  0.00  0.00    +0.036 C 
ATOM     20  C   UNL     1      31.747 -23.114 -15.571  0.00  0.00    +0.139 C 
ATOM     21  C   UNL     1      34.112 -23.085 -15.076  0.00  0.00    +0.040 C 
ATOM     22  C   UNL     1      32.786 -23.063 -14.642  0.00  0.00    +0.040 C 
BRANCH  18  23
ATOM     23  O   UNL     1      35.698 -23.179 -16.846  0.00  0.00    -0.472 OA
ATOM     24  C   UNL     1      36.589 -22.259 -16.220  0.00  0.00    +0.252 C 
ENDBRANCH  18  23
BRANCH  20  25
ATOM     25  O   UNL     1      30.454 -23.091 -15.147  0.00  0.00    -0.471 OA
ATOM     26  C   UNL     1      29.441 -23.107 -16.152  0.00  0.00    +0.252 C 
ENDBRANCH  20  25
ENDBRANCH  16  17
ENDBRANCH   6  16
TORSDOF 4
ENDMDL
MODEL 8
REMARK VINA RESULT:      -9.0      4.606      7.327
REMARK  Name = 448973
REMARK  4 active torsions:
REMARK  status: ('A' for Active; 'I' for Inactive)
REMARK    1  A    between atoms: C_6  and  C_16
REMARK    2  A    between atoms: C_16  and  C_17
REMARK    3  A    between atoms: C_18  and  O_23
REMARK    4  A    between atoms: C_20  and  O_25
REMARK                            x       y       z     vdW  Elec       q    Type
REMARK                         _______ _______ _______ _____ _____    ______ ____
ROOT
ATOM      1  F   UNL     1      35.400  -7.002 -23.646  0.00  0.00    -0.098 F 
ATOM      2  N   UNL     1      32.420 -11.377 -23.620  0.00  0.00    -0.270 NA
ATOM      3  N   UNL     1      34.538 -11.578 -24.283  0.00  0.00    -0.298 N 
ATOM      4  N   UNL     1      35.145  -9.241 -24.007  0.00  0.00    -0.305 NA
ATOM      5  N   UNL     1      33.322  -7.836 -23.197  0.00  0.00    -0.305 NA
ATOM      6  C   UNL     1      33.404 -12.213 -24.073  0.00  0.00    +0.134 C 
ATOM      7  C   UNL     1      32.956 -10.123 -23.535  0.00  0.00    +0.192 C 
ATOM      8  C   UNL     1      34.271 -10.275 -23.952  0.00  0.00    +0.195 C 
ATOM      9  C   UNL     1      32.472  -8.887 -23.152  0.00  0.00    +0.191 C 
ATOM     10  C   UNL     1      34.588  -8.075 -23.616  0.00  0.00    +0.299 C 
ATOM     11  H   UNL     1      31.495 -11.631 -23.398  0.00  0.00    +0.126 HD
ATOM     12  H   UNL     1      35.387 -11.955 -24.606  0.00  0.00    +0.150 HD
ATOM     13  N   UNL     1      31.144  -8.722 -22.729  0.00  0.00    -0.334 N 
ATOM     14  H   UNL     1      30.819  -7.832 -22.460  0.00  0.00    +0.144 HD
ATOM     15  H   UNL     1      30.536  -9.496 -22.701  0.00  0.00    +0.144 HD
ENDROOT
BRANCH   6  16
ATOM     16  C   UNL     1      33.151 -13.652 -24.278  0.00  0.00    +0.066 C 
BRANCH  16  17
ATOM     17  C   UNL     1      33.561 -14.538 -23.110  0.00  0.00    +0.018 C 
ATOM     18  C   UNL     1      32.968 -14.362 -21.876  0.00  0.00    +0.135 C 
ATOM     19  C   UNL     1      34.527 -15.500 -23.330  0.00  0.00    +0.036 C 
ATOM     20  C   UNL     1      34.916 -16.321 -22.270  0.00  0.00    +0.139 C 
ATOM     21  C   UNL     1      33.356 -15.182 -20.817  0.00  0.00    +0.040 C 
ATOM     22  C   UNL     1      34.330 -16.161 -21.014  0.00  0.00    +0.040 C 
BRANCH  18  23
ATOM     23  O   UNL     1      32.017 -13.409 -21.667  0.00  0.00    -0.472 OA
ATOM     24  C   UNL     1      32.047 -12.727 -20.415  0.00  0.00    +0.252 C 
ENDBRANCH  18  23
BRANCH  20  25
ATOM     25  O   UNL     1      35.864 -17.277 -22.462  0.00  0.00    -0.471 OA
ATOM     26  C   UNL     1      35.920 -18.337 -21.508  0.00  0.00    +0.252 C 
ENDBRANCH  20  25
ENDBRANCH  16  17
ENDBRANCH   6  16
TORSDOF 4
ENDMDL
MODEL 9
REMARK VINA RESULT:      -9.0      4.350      6.997
REMARK  Name = 448973
REMARK  4 active torsions:
REMARK  status: ('A' for Active; 'I' for Inactive)
REMARK    1  A    between atoms: C_6  and  C_16
REMARK    2  A    between atoms: C_16  and  C_17
REMARK    3  A    between atoms: C_18  and  O_23
REMARK    4  A    between atoms: C_20  and  O_25
REMARK                            x       y       z     vdW  Elec       q    Type
REMARK                         _______ _______ _______ _____ _____    ______ ____
ROOT
ATOM      1  F   UNL     1      33.577  -6.756 -23.319  0.00  0.00    -0.098 F 
ATOM      2  N   UNL     1      33.694 -12.033 -23.715  0.00  0.00    -0.270 NA
ATOM      3  N   UNL     1      32.149 -11.134 -22.385  0.00  0.00    -0.298 N 
ATOM      4  N   UNL     1      32.763  -8.814 -22.763  0.00  0.00    -0.305 NA
ATOM      5  N   UNL     1      34.639  -8.527 -24.297  0.00  0.00    -0.305 NA
ATOM      6  C   UNL     1      32.648 -12.255 -22.861  0.00  0.00    +0.134 C 
ATOM      7  C   UNL     1      33.879 -10.682 -23.791  0.00  0.00    +0.192 C 
ATOM      8  C   UNL     1      32.908 -10.147 -22.957  0.00  0.00    +0.195 C 
ATOM      9  C   UNL     1      34.758  -9.862 -24.472  0.00  0.00    +0.191 C 
ATOM     10  C   UNL     1      33.662  -8.091 -23.465  0.00  0.00    +0.299 C 
ATOM     11  H   UNL     1      34.218 -12.720 -24.187  0.00  0.00    +0.126 HD
ATOM     12  H   UNL     1      31.398 -11.029 -21.757  0.00  0.00    +0.150 HD
ATOM     13  N   UNL     1      35.745 -10.392 -25.318  0.00  0.00    -0.334 N 
ATOM     14  H   UNL     1      36.362  -9.789 -25.794  0.00  0.00    +0.144 HD
ATOM     15  H   UNL     1      35.821 -11.366 -25.436  0.00  0.00    +0.144 HD
ENDROOT
BRANCH   6  16
ATOM     16  C   UNL     1      32.186 -13.623 -22.557  0.00  0.00    +0.066 C 
BRANCH  16  17
ATOM     17  C   UNL     1      33.233 -14.706 -22.775  0.00  0.00    +0.018 C 
ATOM     18  C   UNL     1      33.629 -15.026 -24.058  0.00  0.00    +0.135 C 
ATOM     19  C   UNL     1      33.757 -15.340 -21.666  0.00  0.00    +0.036 C 
ATOM     20  C   UNL     1      34.717 -16.336 -21.848  0.00  0.00    +0.139 C 
ATOM     21  C   UNL     1      34.589 -16.021 -24.241  0.00  0.00    +0.040 C 
ATOM     22  C   UNL     1      35.133 -16.676 -23.136  0.00  0.00    +0.040 C 
BRANCH  18  23
ATOM     23  O   UNL     1      33.106 -14.397 -25.149  0.00  0.00    -0.472 OA
ATOM     24  C   UNL     1      33.005 -15.158 -26.349  0.00  0.00    +0.252 C 
ENDBRANCH  18  23
BRANCH  20  25
ATOM     25  O   UNL     1      35.249 -16.973 -20.771  0.00  0.00    -0.471 OA
ATOM     26  C   UNL     1      35.648 -18.332 -20.952  0.00  0.00    +0.252 C 
ENDBRANCH  20  25
ENDBRANCH  16  17
ENDBRANCH   6  16
TORSDOF 4
ENDMDL
