MODEL 1
REMARK VINA RESULT:     -10.5      0.000      0.000
REMARK  Name = 5281078
REMARK  11 active torsions:
REMARK  status: ('A' for Active; 'I' for Inactive)
REMARK    1  A    between atoms: C_1  and  C_4
REMARK    2  A    between atoms: C_2  and  C_20
REMARK    3  A    between atoms: C_4  and  C_8
REMARK    4  A    between atoms: C_11  and  O_16
REMARK    5  A    between atoms: C_12  and  O_18
REMARK    6  A    between atoms: C_20  and  C_21
REMARK    7  A    between atoms: C_21  and  C_23
REMARK    8  A    between atoms: C_23  and  O_24
REMARK    9  A    between atoms: O_24  and  C_25
REMARK   10  A    between atoms: C_25  and  C_26
REMARK   11  A    between atoms: C_26  and  N_28
REMARK                            x       y       z     vdW  Elec       q    Type
REMARK                         _______ _______ _______ _____ _____    ______ ____
ROOT
ATOM      1  C   UNL     1      34.736 -19.144 -21.029  0.00  0.00    -0.030 C 
ATOM      2  C   UNL     1      35.106 -20.255 -20.363  0.00  0.00    -0.047 C 
ATOM      3  C   UNL     1      36.525 -20.628 -20.031  0.00  0.00    +0.026 C 
ENDROOT
BRANCH   1   4
ATOM      4  C   UNL     1      35.616 -18.058 -21.581  0.00  0.00    +0.058 C 
BRANCH   4   8
ATOM      5  O   UNL     1      32.244 -13.160 -22.423  0.00  0.00    -0.440 OA
ATOM      6  O   UNL     1      32.716 -13.612 -20.206  0.00  0.00    -0.245 OA
ATOM      7  C   UNL     1      33.356 -14.913 -23.369  0.00  0.00    +0.029 A 
ATOM      8  C   UNL     1      34.815 -16.941 -22.201  0.00  0.00    +0.050 A 
ATOM      9  C   UNL     1      33.508 -14.983 -22.000  0.00  0.00    +0.108 A 
ATOM     10  C   UNL     1      33.936 -15.864 -24.189  0.00  0.00    +0.012 A 
ATOM     11  C   UNL     1      34.675 -16.890 -23.592  0.00  0.00    +0.134 A 
ATOM     12  C   UNL     1      34.232 -15.984 -21.379  0.00  0.00    +0.139 A 
ATOM     13  C   UNL     1      32.536 -13.739 -23.720  0.00  0.00    +0.235 C 
ATOM     14  C   UNL     1      32.801 -13.868 -21.390  0.00  0.00    +0.344 C 
ATOM     15  C   UNL     1      33.772 -15.792 -25.668  0.00  0.00    +0.034 C 
BRANCH  11  16
ATOM     16  O   UNL     1      35.259 -17.844 -24.376  0.00  0.00    -0.472 OA
ATOM     17  C   UNL     1      34.448 -18.955 -24.749  0.00  0.00    +0.252 C 
ENDBRANCH  11  16
BRANCH  12  18
ATOM     18  O   UNL     1      34.365 -16.030 -20.029  0.00  0.00    -0.506 OA
ATOM     19  H   UNL     1      33.775 -16.547 -19.517  0.00  0.00    +0.292 HD
ENDBRANCH  12  18
ENDBRANCH   4   8
ENDBRANCH   1   4
BRANCH   2  20
ATOM     20  C   UNL     1      34.051 -21.237 -19.887  0.00  0.00    +0.033 C 
BRANCH  20  21
ATOM     21  C   UNL     1      34.610 -22.351 -19.004  0.00  0.00    +0.114 C 
BRANCH  21  23
ATOM     22  O   UNL     1      32.413 -22.645 -18.047  0.00  0.00    -0.250 OA
ATOM     23  C   UNL     1      33.626 -22.763 -17.935  0.00  0.00    +0.317 C 
BRANCH  23  24
ATOM     24  O   UNL     1      34.289 -23.304 -16.873  0.00  0.00    -0.451 OA
BRANCH  24  25
ATOM     25  C   UNL     1      35.577 -22.743 -16.601  0.00  0.00    +0.186 C 
BRANCH  25  26
ATOM     26  C   UNL     1      36.062 -23.265 -15.258  0.00  0.00    -0.029 C 
BRANCH  26  28
ATOM     27  O   UNL     1      38.115 -26.838 -14.461  0.00  0.00    -0.358 OA
ATOM     28  N   UNL     1      36.869 -24.471 -15.433  0.00  0.00    +0.393 N 
ATOM     29  C   UNL     1      36.089 -25.674 -15.112  0.00  0.00    -0.044 C 
ATOM     30  C   UNL     1      38.077 -24.417 -14.598  0.00  0.00    -0.044 C 
ATOM     31  C   UNL     1      36.955 -26.918 -15.290  0.00  0.00    +0.119 C 
ATOM     32  C   UNL     1      38.897 -25.690 -14.790  0.00  0.00    +0.119 C 
ATOM     33  H   UNL     1      37.152 -24.518 -16.412  0.00  0.00    -0.079 HD
ENDBRANCH  26  28
ENDBRANCH  25  26
ENDBRANCH  24  25
ENDBRANCH  23  24
ENDBRANCH  21  23
ENDBRANCH  20  21
ENDBRANCH   2  20
TORSDOF 11
ENDMDL
MODEL 2
REMARK VINA RESULT:     -10.2      2.717      3.881
REMARK  Name = 5281078
REMARK  11 active torsions:
REMARK  status: ('A' for Active; 'I' for Inactive)
REMARK    1  A    between atoms: C_1  and  C_4
REMARK    2  A    between atoms: C_2  and  C_20
REMARK    3  A    between atoms: C_4  and  C_8
REMARK    4  A    between atoms: C_11  and  O_16
REMARK    5  A    between atoms: C_12  and  O_18
REMARK    6  A    between atoms: C_20  and  C_21
REMARK    7  A    between atoms: C_21  and  C_23
REMARK    8  A    between atoms: C_23  and  O_24
REMARK    9  A    between atoms: O_24  and  C_25
REMARK   10  A    between atoms: C_25  and  C_26
REMARK   11  A    between atoms: C_26  and  N_28
REMARK                            x       y       z     vdW  Elec       q    Type
REMARK                         _______ _______ _______ _____ _____    ______ ____
ROOT
ATOM      1  C   UNL     1      34.785 -18.793 -21.498  0.00  0.00    -0.030 C 
ATOM      2  C   UNL     1      35.216 -19.798 -20.710  0.00  0.00    -0.047 C 
ATOM      3  C   UNL     1      36.644 -20.009 -20.289  0.00  0.00    +0.026 C 
ENDROOT
BRANCH   1   4
ATOM      4  C   UNL     1      35.595 -17.692 -22.121  0.00  0.00    +0.058 C 
BRANCH   4   8
ATOM      5  O   UNL     1      32.038 -12.864 -22.474  0.00  0.00    -0.440 OA
ATOM      6  O   UNL     1      32.655 -13.428 -20.319  0.00  0.00    -0.245 OA
ATOM      7  C   UNL     1      33.143 -14.523 -23.585  0.00  0.00    +0.029 A 
ATOM      8  C   UNL     1      34.727 -16.567 -22.626  0.00  0.00    +0.050 A 
ATOM      9  C   UNL     1      33.378 -14.667 -22.233  0.00  0.00    +0.108 A 
ATOM     10  C   UNL     1      33.700 -15.406 -24.492  0.00  0.00    +0.012 A 
ATOM     11  C   UNL     1      34.502 -16.440 -24.002  0.00  0.00    +0.134 A 
ATOM     12  C   UNL     1      34.166 -15.679 -21.716  0.00  0.00    +0.139 A 
ATOM     13  C   UNL     1      32.270 -13.358 -23.817  0.00  0.00    +0.235 C 
ATOM     14  C   UNL     1      32.677 -13.613 -21.519  0.00  0.00    +0.344 C 
ATOM     15  C   UNL     1      33.446 -15.254 -25.953  0.00  0.00    +0.034 C 
BRANCH  11  16
ATOM     16  O   UNL     1      35.066 -17.328 -24.873  0.00  0.00    -0.472 OA
ATOM     17  C   UNL     1      34.322 -18.511 -25.158  0.00  0.00    +0.252 C 
ENDBRANCH  11  16
BRANCH  12  18
ATOM     18  O   UNL     1      34.381 -15.797 -20.381  0.00  0.00    -0.506 OA
ATOM     19  H   UNL     1      34.073 -16.554 -19.922  0.00  0.00    +0.292 HD
ENDBRANCH  12  18
ENDBRANCH   4   8
ENDBRANCH   1   4
BRANCH   2  20
ATOM     20  C   UNL     1      34.226 -20.820 -20.180  0.00  0.00    +0.033 C 
BRANCH  20  21
ATOM     21  C   UNL     1      34.850 -21.827 -19.215  0.00  0.00    +0.114 C 
BRANCH  21  23
ATOM     22  O   UNL     1      33.903 -24.027 -19.523  0.00  0.00    -0.250 OA
ATOM     23  C   UNL     1      33.906 -22.966 -18.912  0.00  0.00    +0.317 C 
BRANCH  23  24
ATOM     24  O   UNL     1      33.109 -22.643 -17.853  0.00  0.00    -0.451 OA
BRANCH  24  25
ATOM     25  C   UNL     1      33.181 -23.533 -16.735  0.00  0.00    +0.186 C 
BRANCH  25  26
ATOM     26  C   UNL     1      32.164 -23.092 -15.695  0.00  0.00    -0.029 C 
BRANCH  26  28
ATOM     27  O   UNL     1      28.130 -24.200 -15.358  0.00  0.00    -0.358 OA
ATOM     28  N   UNL     1      30.902 -23.809 -15.871  0.00  0.00    +0.393 N 
ATOM     29  C   UNL     1      29.880 -22.930 -16.457  0.00  0.00    -0.044 C 
ATOM     30  C   UNL     1      30.426 -24.350 -14.591  0.00  0.00    -0.044 C 
ATOM     31  C   UNL     1      28.569 -23.694 -16.619  0.00  0.00    +0.119 C 
ATOM     32  C   UNL     1      29.103 -25.082 -14.798  0.00  0.00    +0.119 C 
ATOM     33  H   UNL     1      31.070 -24.585 -16.511  0.00  0.00    -0.079 HD
ENDBRANCH  26  28
ENDBRANCH  25  26
ENDBRANCH  24  25
ENDBRANCH  23  24
ENDBRANCH  21  23
ENDBRANCH  20  21
ENDBRANCH   2  20
TORSDOF 11
ENDMDL
MODEL 3
REMARK VINA RESULT:      -9.8      3.146     10.642
REMARK  Name = 5281078
REMARK  11 active torsions:
REMARK  status: ('A' for Active; 'I' for Inactive)
REMARK    1  A    between atoms: C_1  and  C_4
REMARK    2  A    between atoms: C_2  and  C_20
REMARK    3  A    between atoms: C_4  and  C_8
REMARK    4  A    between atoms: C_11  and  O_16
REMARK    5  A    between atoms: C_12  and  O_18
REMARK    6  A    between atoms: C_20  and  C_21
REMARK    7  A    between atoms: C_21  and  C_23
REMARK    8  A    between atoms: C_23  and  O_24
REMARK    9  A    between atoms: O_24  and  C_25
REMARK   10  A    between atoms: C_25  and  C_26
REMARK   11  A    between atoms: C_26  and  N_28
REMARK                            x       y       z     vdW  Elec       q    Type
REMARK                         _______ _______ _______ _____ _____    ______ ____
ROOT
ATOM      1  C   UNL     1      33.689 -21.771 -19.191  0.00  0.00    -0.030 C 
ATOM      2  C   UNL     1      34.280 -20.871 -20.003  0.00  0.00    -0.047 C 
ATOM      3  C   UNL     1      35.741 -20.859 -20.354  0.00  0.00    +0.026 C 
ENDROOT
BRANCH   1   4
ATOM      4  C   UNL     1      34.324 -22.926 -18.471  0.00  0.00    +0.058 C 
BRANCH   4   8
ATOM      5  O   UNL     1      30.614 -23.301 -13.762  0.00  0.00    -0.440 OA
ATOM      6  O   UNL     1      29.563 -22.778 -15.753  0.00  0.00    -0.245 OA
ATOM      7  C   UNL     1      32.754 -23.452 -14.539  0.00  0.00    +0.029 A 
ATOM      8  C   UNL     1      33.757 -23.110 -17.085  0.00  0.00    +0.050 A 
ATOM      9  C   UNL     1      31.924 -23.137 -15.596  0.00  0.00    +0.108 A 
ATOM     10  C   UNL     1      34.114 -23.603 -14.738  0.00  0.00    +0.012 A 
ATOM     11  C   UNL     1      34.618 -23.429 -16.030  0.00  0.00    +0.134 A 
ATOM     12  C   UNL     1      32.390 -22.958 -16.884  0.00  0.00    +0.139 A 
ATOM     13  C   UNL     1      31.962 -23.575 -13.302  0.00  0.00    +0.235 C 
ATOM     14  C   UNL     1      30.558 -23.039 -15.106  0.00  0.00    +0.344 C 
ATOM     15  C   UNL     1      35.014 -23.940 -13.598  0.00  0.00    +0.034 C 
BRANCH  11  16
ATOM     16  O   UNL     1      35.957 -23.571 -16.257  0.00  0.00    -0.472 OA
ATOM     17  C   UNL     1      36.760 -22.400 -16.129  0.00  0.00    +0.252 C 
ENDBRANCH  11  16
BRANCH  12  18
ATOM     18  O   UNL     1      31.550 -22.649 -17.905  0.00  0.00    -0.506 OA
ATOM     19  H   UNL     1      31.251 -21.767 -18.015  0.00  0.00    +0.292 HD
ENDBRANCH  12  18
ENDBRANCH   4   8
ENDBRANCH   1   4
BRANCH   2  20
ATOM     20  C   UNL     1      33.452 -19.768 -20.637  0.00  0.00    +0.033 C 
BRANCH  20  21
ATOM     21  C   UNL     1      34.228 -18.932 -21.653  0.00  0.00    +0.114 C 
BRANCH  21  23
ATOM     22  O   UNL     1      35.580 -17.325 -20.461  0.00  0.00    -0.250 OA
ATOM     23  C   UNL     1      34.569 -17.566 -21.108  0.00  0.00    +0.317 C 
BRANCH  23  24
ATOM     24  O   UNL     1      33.614 -16.664 -21.476  0.00  0.00    -0.451 OA
BRANCH  24  25
ATOM     25  C   UNL     1      33.869 -15.309 -21.095  0.00  0.00    +0.186 C 
BRANCH  25  26
ATOM     26  C   UNL     1      34.361 -14.545 -22.315  0.00  0.00    -0.029 C 
BRANCH  26  28
ATOM     27  O   UNL     1      33.841 -15.543 -26.358  0.00  0.00    -0.358 OA
ATOM     28  N   UNL     1      33.825 -15.132 -23.542  0.00  0.00    +0.393 N 
ATOM     29  C   UNL     1      34.825 -15.994 -24.187  0.00  0.00    -0.044 C 
ATOM     30  C   UNL     1      33.388 -14.084 -24.474  0.00  0.00    -0.044 C 
ATOM     31  C   UNL     1      34.250 -16.585 -25.471  0.00  0.00    +0.119 C 
ATOM     32  C   UNL     1      32.845 -14.720 -25.750  0.00  0.00    +0.119 C 
ATOM     33  H   UNL     1      33.018 -15.702 -23.289  0.00  0.00    -0.079 HD
ENDBRANCH  26  28
ENDBRANCH  25  26
ENDBRANCH  24  25
ENDBRANCH  23  24
ENDBRANCH  21  23
ENDBRANCH  20  21
ENDBRANCH   2  20
TORSDOF 11
ENDMDL
MODEL 4
REMARK VINA RESULT:      -9.7      2.880     10.806
REMARK  Name = 5281078
REMARK  11 active torsions:
REMARK  status: ('A' for Active; 'I' for Inactive)
REMARK    1  A    between atoms: C_1  and  C_4
REMARK    2  A    between atoms: C_2  and  C_20
REMARK    3  A    between atoms: C_4  and  C_8
REMARK    4  A    between atoms: C_11  and  O_16
REMARK    5  A    between atoms: C_12  and  O_18
REMARK    6  A    between atoms: C_20  and  C_21
REMARK    7  A    between atoms: C_21  and  C_23
REMARK    8  A    between atoms: C_23  and  O_24
REMARK    9  A    between atoms: O_24  and  C_25
REMARK   10  A    between atoms: C_25  and  C_26
REMARK   11  A    between atoms: C_26  and  N_28
REMARK                            x       y       z     vdW  Elec       q    Type
REMARK                         _______ _______ _______ _____ _____    ______ ____
ROOT
ATOM      1  C   UNL     1      34.357 -21.916 -19.128  0.00  0.00    -0.030 C 
ATOM      2  C   UNL     1      34.114 -20.867 -19.940  0.00  0.00    -0.047 C 
ATOM      3  C   UNL     1      32.748 -20.335 -20.273  0.00  0.00    +0.026 C 
ENDROOT
BRANCH   1   4
ATOM      4  C   UNL     1      33.361 -22.771 -18.397  0.00  0.00    +0.058 C 
BRANCH   4   8
ATOM      5  O   UNL     1      36.662 -23.540 -13.438  0.00  0.00    -0.440 OA
ATOM      6  O   UNL     1      37.849 -22.724 -15.245  0.00  0.00    -0.245 OA
ATOM      7  C   UNL     1      34.611 -23.700 -14.425  0.00  0.00    +0.029 A 
ATOM      8  C   UNL     1      33.815 -23.095 -16.995  0.00  0.00    +0.050 A 
ATOM      9  C   UNL     1      35.509 -23.214 -15.353  0.00  0.00    +0.108 A 
ATOM     10  C   UNL     1      33.285 -23.893 -14.767  0.00  0.00    +0.012 A 
ATOM     11  C   UNL     1      32.887 -23.586 -16.071  0.00  0.00    +0.134 A 
ATOM     12  C   UNL     1      35.147 -22.901 -16.650  0.00  0.00    +0.139 A 
ATOM     13  C   UNL     1      35.299 -23.937 -13.143  0.00  0.00    +0.235 C 
ATOM     14  C   UNL     1      36.819 -23.110 -14.730  0.00  0.00    +0.344 C 
ATOM     15  C   UNL     1      32.313 -24.420 -13.768  0.00  0.00    +0.034 C 
BRANCH  11  16
ATOM     16  O   UNL     1      31.584 -23.767 -16.439  0.00  0.00    -0.472 OA
ATOM     17  C   UNL     1      30.668 -22.729 -16.098  0.00  0.00    +0.252 C 
ENDBRANCH  11  16
BRANCH  12  18
ATOM     18  O   UNL     1      36.052 -22.425 -17.543  0.00  0.00    -0.506 OA
ATOM     19  H   UNL     1      35.760 -21.999 -18.325  0.00  0.00    +0.292 HD
ENDBRANCH  12  18
ENDBRANCH   4   8
ENDBRANCH   1   4
BRANCH   2  20
ATOM     20  C   UNL     1      35.272 -20.132 -20.590  0.00  0.00    +0.033 C 
BRANCH  20  21
ATOM     21  C   UNL     1      34.874 -19.359 -21.846  0.00  0.00    +0.114 C 
BRANCH  21  23
ATOM     22  O   UNL     1      36.092 -17.518 -22.825  0.00  0.00    -0.250 OA
ATOM     23  C   UNL     1      35.483 -17.977 -21.868  0.00  0.00    +0.317 C 
BRANCH  23  24
ATOM     24  O   UNL     1      35.218 -17.331 -20.696  0.00  0.00    -0.451 OA
BRANCH  24  25
ATOM     25  C   UNL     1      34.681 -16.012 -20.829  0.00  0.00    +0.186 C 
BRANCH  25  26
ATOM     26  C   UNL     1      33.177 -16.116 -21.027  0.00  0.00    -0.029 C 
BRANCH  26  28
ATOM     27  O   UNL     1      33.025 -12.642 -23.378  0.00  0.00    -0.358 OA
ATOM     28  N   UNL     1      32.704 -15.079 -21.943  0.00  0.00    +0.393 N 
ATOM     29  C   UNL     1      33.574 -14.991 -23.125  0.00  0.00    -0.044 C 
ATOM     30  C   UNL     1      32.640 -13.776 -21.268  0.00  0.00    -0.044 C 
ATOM     31  C   UNL     1      33.070 -13.896 -24.060  0.00  0.00    +0.119 C 
ATOM     32  C   UNL     1      32.156 -12.709 -22.247  0.00  0.00    +0.119 C 
ATOM     33  H   UNL     1      31.765 -15.336 -22.248  0.00  0.00    -0.079 HD
ENDBRANCH  26  28
ENDBRANCH  25  26
ENDBRANCH  24  25
ENDBRANCH  23  24
ENDBRANCH  21  23
ENDBRANCH  20  21
ENDBRANCH   2  20
TORSDOF 11
ENDMDL
MODEL 5
REMARK VINA RESULT:      -9.7      3.045     10.671
REMARK  Name = 5281078
REMARK  11 active torsions:
REMARK  status: ('A' for Active; 'I' for Inactive)
REMARK    1  A    between atoms: C_1  and  C_4
REMARK    2  A    between atoms: C_2  and  C_20
REMARK    3  A    between atoms: C_4  and  C_8
REMARK    4  A    between atoms: C_11  and  O_16
REMARK    5  A    between atoms: C_12  and  O_18
REMARK    6  A    between atoms: C_20  and  C_21
REMARK    7  A    between atoms: C_21  and  C_23
REMARK    8  A    between atoms: C_23  and  O_24
REMARK    9  A    between atoms: O_24  and  C_25
REMARK   10  A    between atoms: C_25  and  C_26
REMARK   11  A    between atoms: C_26  and  N_28
REMARK                            x       y       z     vdW  Elec       q    Type
REMARK                         _______ _______ _______ _____ _____    ______ ____
ROOT
ATOM      1  C   UNL     1      34.245 -21.700 -19.185  0.00  0.00    -0.030 C 
ATOM      2  C   UNL     1      34.977 -20.855 -19.937  0.00  0.00    -0.047 C 
ATOM      3  C   UNL     1      36.475 -20.889 -20.058  0.00  0.00    +0.026 C 
ENDROOT
BRANCH   1   4
ATOM      4  C   UNL     1      34.730 -22.828 -18.320  0.00  0.00    +0.058 C 
BRANCH   4   8
ATOM      5  O   UNL     1      29.926 -23.221 -14.735  0.00  0.00    -0.440 OA
ATOM      6  O   UNL     1      29.464 -22.403 -16.847  0.00  0.00    -0.245 OA
ATOM      7  C   UNL     1      32.173 -23.535 -14.979  0.00  0.00    +0.029 A 
ATOM      8  C   UNL     1      33.815 -23.074 -17.146  0.00  0.00    +0.050 A 
ATOM      9  C   UNL     1      31.668 -23.035 -16.161  0.00  0.00    +0.108 A 
ATOM     10  C   UNL     1      33.521 -23.818 -14.856  0.00  0.00    +0.012 A 
ATOM     11  C   UNL     1      34.350 -23.582 -15.957  0.00  0.00    +0.134 A 
ATOM     12  C   UNL     1      32.460 -22.791 -17.268  0.00  0.00    +0.139 A 
ATOM     13  C   UNL     1      31.085 -23.683 -13.995  0.00  0.00    +0.235 C 
ATOM     14  C   UNL     1      30.236 -22.832 -16.012  0.00  0.00    +0.344 C 
ATOM     15  C   UNL     1      34.070 -24.356 -13.579  0.00  0.00    +0.034 C 
BRANCH  11  16
ATOM     16  O   UNL     1      35.686 -23.850 -15.865  0.00  0.00    -0.472 OA
ATOM     17  C   UNL     1      36.532 -22.777 -15.461  0.00  0.00    +0.252 C 
ENDBRANCH  11  16
BRANCH  12  18
ATOM     18  O   UNL     1      31.937 -22.298 -18.419  0.00  0.00    -0.506 OA
ATOM     19  H   UNL     1      31.008 -22.216 -18.515  0.00  0.00    +0.292 HD
ENDBRANCH  12  18
ENDBRANCH   4   8
ENDBRANCH   1   4
BRANCH   2  20
ATOM     20  C   UNL     1      34.287 -19.770 -20.745  0.00  0.00    +0.033 C 
BRANCH  20  21
ATOM     21  C   UNL     1      35.018 -19.417 -22.039  0.00  0.00    +0.114 C 
BRANCH  21  23
ATOM     22  O   UNL     1      35.505 -17.386 -23.251  0.00  0.00    -0.250 OA
ATOM     23  C   UNL     1      35.172 -17.924 -22.203  0.00  0.00    +0.317 C 
BRANCH  23  24
ATOM     24  O   UNL     1      34.852 -17.290 -21.038  0.00  0.00    -0.451 OA
BRANCH  24  25
ATOM     25  C   UNL     1      34.602 -15.886 -21.151  0.00  0.00    +0.186 C 
BRANCH  25  26
ATOM     26  C   UNL     1      33.098 -15.661 -21.196  0.00  0.00    -0.029 C 
BRANCH  26  28
ATOM     27  O   UNL     1      33.148 -12.032 -23.303  0.00  0.00    -0.358 OA
ATOM     28  N   UNL     1      32.763 -14.605 -22.150  0.00  0.00    +0.393 N 
ATOM     29  C   UNL     1      33.900 -14.323 -23.037  0.00  0.00    -0.044 C 
ATOM     30  C   UNL     1      32.355 -13.380 -21.449  0.00  0.00    -0.044 C 
ATOM     31  C   UNL     1      33.532 -13.210 -24.014  0.00  0.00    +0.119 C 
ATOM     32  C   UNL     1      32.022 -12.290 -22.464  0.00  0.00    +0.119 C 
ATOM     33  H   UNL     1      31.981 -14.933 -22.717  0.00  0.00    -0.079 HD
ENDBRANCH  26  28
ENDBRANCH  25  26
ENDBRANCH  24  25
ENDBRANCH  23  24
ENDBRANCH  21  23
ENDBRANCH  20  21
ENDBRANCH   2  20
TORSDOF 11
ENDMDL
MODEL 6
REMARK VINA RESULT:      -9.6      3.366      6.577
REMARK  Name = 5281078
REMARK  11 active torsions:
REMARK  status: ('A' for Active; 'I' for Inactive)
REMARK    1  A    between atoms: C_1  and  C_4
REMARK    2  A    between atoms: C_2  and  C_20
REMARK    3  A    between atoms: C_4  and  C_8
REMARK    4  A    between atoms: C_11  and  O_16
REMARK    5  A    between atoms: C_12  and  O_18
REMARK    6  A    between atoms: C_20  and  C_21
REMARK    7  A    between atoms: C_21  and  C_23
REMARK    8  A    between atoms: C_23  and  O_24
REMARK    9  A    between atoms: O_24  and  C_25
REMARK   10  A    between atoms: C_25  and  C_26
REMARK   11  A    between atoms: C_26  and  N_28
REMARK                            x       y       z     vdW  Elec       q    Type
REMARK                         _______ _______ _______ _____ _____    ______ ____
ROOT
ATOM      1  C   UNL     1      33.161 -13.986 -22.783  0.00  0.00    -0.030 C 
ATOM      2  C   UNL     1      33.423 -14.746 -21.702  0.00  0.00    -0.047 C 
ATOM      3  C   UNL     1      32.705 -14.647 -20.385  0.00  0.00    +0.026 C 
ENDROOT
BRANCH   1   4
ATOM      4  C   UNL     1      32.133 -12.899 -22.924  0.00  0.00    +0.058 C 
BRANCH   4   8
ATOM      5  O   UNL     1      33.590  -7.076 -22.705  0.00  0.00    -0.440 OA
ATOM      6  O   UNL     1      31.965  -7.701 -21.184  0.00  0.00    -0.245 OA
ATOM      7  C   UNL     1      33.937  -9.108 -23.682  0.00  0.00    +0.029 A 
ATOM      8  C   UNL     1      32.764 -11.554 -23.182  0.00  0.00    +0.050 A 
ATOM      9  C   UNL     1      32.971  -9.249 -22.707  0.00  0.00    +0.108 A 
ATOM     10  C   UNL     1      34.339 -10.198 -24.433  0.00  0.00    +0.012 A 
ATOM     11  C   UNL     1      33.741 -11.435 -24.176  0.00  0.00    +0.134 A 
ATOM     12  C   UNL     1      32.361 -10.458 -22.428  0.00  0.00    +0.139 A 
ATOM     13  C   UNL     1      34.389  -7.706 -23.737  0.00  0.00    +0.235 C 
ATOM     14  C   UNL     1      32.745  -7.957 -22.080  0.00  0.00    +0.344 C 
ATOM     15  C   UNL     1      35.380 -10.049 -25.489  0.00  0.00    +0.034 C 
BRANCH  11  16
ATOM     16  O   UNL     1      34.117 -12.529 -24.903  0.00  0.00    -0.472 OA
ATOM     17  C   UNL     1      33.512 -12.691 -26.183  0.00  0.00    +0.252 C 
ENDBRANCH  11  16
BRANCH  12  18
ATOM     18  O   UNL     1      31.413 -10.568 -21.463  0.00  0.00    -0.506 OA
ATOM     19  H   UNL     1      31.652 -10.486 -20.560  0.00  0.00    +0.292 HD
ENDBRANCH  12  18
ENDBRANCH   4   8
ENDBRANCH   1   4
BRANCH   2  20
ATOM     20  C   UNL     1      34.515 -15.799 -21.766  0.00  0.00    +0.033 C 
BRANCH  20  21
ATOM     21  C   UNL     1      35.045 -16.041 -23.179  0.00  0.00    +0.114 C 
BRANCH  21  23
ATOM     22  O   UNL     1      34.454 -17.904 -24.596  0.00  0.00    -0.250 OA
ATOM     23  C   UNL     1      34.967 -17.499 -23.561  0.00  0.00    +0.317 C 
BRANCH  23  24
ATOM     24  O   UNL     1      35.577 -18.265 -22.611  0.00  0.00    -0.451 OA
BRANCH  24  25
ATOM     25  C   UNL     1      34.928 -19.505 -22.311  0.00  0.00    +0.186 C 
BRANCH  25  26
ATOM     26  C   UNL     1      33.969 -19.285 -21.152  0.00  0.00    -0.029 C 
BRANCH  26  28
ATOM     27  O   UNL     1      34.953 -22.736 -18.976  0.00  0.00    -0.358 OA
ATOM     28  N   UNL     1      34.285 -20.184 -20.044  0.00  0.00    +0.393 N 
ATOM     29  C   UNL     1      35.630 -20.756 -20.203  0.00  0.00    -0.044 C 
ATOM     30  C   UNL     1      33.289 -21.260 -19.943  0.00  0.00    -0.044 C 
ATOM     31  C   UNL     1      35.933 -21.700 -19.042  0.00  0.00    +0.119 C 
ATOM     32  C   UNL     1      33.647 -22.190 -18.788  0.00  0.00    +0.119 C 
ATOM     33  H   UNL     1      34.263 -19.638 -19.182  0.00  0.00    -0.079 HD
ENDBRANCH  26  28
ENDBRANCH  25  26
ENDBRANCH  24  25
ENDBRANCH  23  24
ENDBRANCH  21  23
ENDBRANCH  20  21
ENDBRANCH   2  20
TORSDOF 11
ENDMDL
MODEL 7
REMARK VINA RESULT:      -9.6      3.604      7.167
REMARK  Name = 5281078
REMARK  11 active torsions:
REMARK  status: ('A' for Active; 'I' for Inactive)
REMARK    1  A    between atoms: C_1  and  C_4
REMARK    2  A    between atoms: C_2  and  C_20
REMARK    3  A    between atoms: C_4  and  C_8
REMARK    4  A    between atoms: C_11  and  O_16
REMARK    5  A    between atoms: C_12  and  O_18
REMARK    6  A    between atoms: C_20  and  C_21
REMARK    7  A    between atoms: C_21  and  C_23
REMARK    8  A    between atoms: C_23  and  O_24
REMARK    9  A    between atoms: O_24  and  C_25
REMARK   10  A    between atoms: C_25  and  C_26
REMARK   11  A    between atoms: C_26  and  N_28
REMARK                            x       y       z     vdW  Elec       q    Type
REMARK                         _______ _______ _______ _____ _____    ______ ____
ROOT
ATOM      1  C   UNL     1      33.259 -13.300 -23.342  0.00  0.00    -0.030 C 
ATOM      2  C   UNL     1      33.671 -14.383 -24.030  0.00  0.00    -0.047 C 
ATOM      3  C   UNL     1      33.275 -14.706 -25.444  0.00  0.00    +0.026 C 
ENDROOT
BRANCH   1   4
ATOM      4  C   UNL     1      32.340 -12.204 -23.802  0.00  0.00    +0.058 C 
BRANCH   4   8
ATOM      5  O   UNL     1      31.819  -8.280 -19.284  0.00  0.00    -0.440 OA
ATOM      6  O   UNL     1      30.769 -10.304 -18.904  0.00  0.00    -0.245 OA
ATOM      7  C   UNL     1      32.647  -8.716 -21.366  0.00  0.00    +0.029 A 
ATOM      8  C   UNL     1      32.442 -10.977 -22.931  0.00  0.00    +0.050 A 
ATOM      9  C   UNL     1      31.958  -9.827 -20.925  0.00  0.00    +0.108 A 
ATOM     10  C   UNL     1      33.252  -8.713 -22.609  0.00  0.00    +0.012 A 
ATOM     11  C   UNL     1      33.146  -9.862 -23.399  0.00  0.00    +0.134 A 
ATOM     12  C   UNL     1      31.834 -10.977 -21.682  0.00  0.00    +0.139 A 
ATOM     13  C   UNL     1      32.597  -7.659 -20.338  0.00  0.00    +0.235 C 
ATOM     14  C   UNL     1      31.428  -9.556 -19.599  0.00  0.00    +0.344 C 
ATOM     15  C   UNL     1      33.995  -7.513 -23.089  0.00  0.00    +0.034 C 
BRANCH  11  16
ATOM     16  O   UNL     1      33.733  -9.889 -24.632  0.00  0.00    -0.472 OA
ATOM     17  C   UNL     1      35.104 -10.276 -24.683  0.00  0.00    +0.252 C 
ENDBRANCH  11  16
BRANCH  12  18
ATOM     18  O   UNL     1      31.150 -12.057 -21.224  0.00  0.00    -0.506 OA
ATOM     19  H   UNL     1      30.762 -12.657 -21.829  0.00  0.00    +0.292 HD
ENDBRANCH  12  18
ENDBRANCH   4   8
ENDBRANCH   1   4
BRANCH   2  20
ATOM     20  C   UNL     1      34.607 -15.383 -23.375  0.00  0.00    +0.033 C 
BRANCH  20  21
ATOM     21  C   UNL     1      33.994 -16.089 -22.167  0.00  0.00    +0.114 C 
BRANCH  21  23
ATOM     22  O   UNL     1      34.969 -14.805 -20.369  0.00  0.00    -0.250 OA
ATOM     23  C   UNL     1      34.825 -15.888 -20.922  0.00  0.00    +0.317 C 
BRANCH  23  24
ATOM     24  O   UNL     1      35.343 -17.080 -20.508  0.00  0.00    -0.451 OA
BRANCH  24  25
ATOM     25  C   UNL     1      35.695 -17.993 -21.552  0.00  0.00    +0.186 C 
BRANCH  25  26
ATOM     26  C   UNL     1      36.190 -19.286 -20.923  0.00  0.00    -0.029 C 
BRANCH  26  28
ATOM     27  O   UNL     1      33.120 -21.941 -19.857  0.00  0.00    -0.358 OA
ATOM     28  N   UNL     1      35.118 -19.939 -20.175  0.00  0.00    +0.393 N 
ATOM     29  C   UNL     1      35.468 -21.334 -19.871  0.00  0.00    -0.044 C 
ATOM     30  C   UNL     1      33.854 -19.890 -20.923  0.00  0.00    -0.044 C 
ATOM     31  C   UNL     1      34.330 -21.999 -19.102  0.00  0.00    +0.119 C 
ATOM     32  C   UNL     1      32.754 -20.588 -20.129  0.00  0.00    +0.119 C 
ATOM     33  H   UNL     1      34.996 -19.434 -19.297  0.00  0.00    -0.079 HD
ENDBRANCH  26  28
ENDBRANCH  25  26
ENDBRANCH  24  25
ENDBRANCH  23  24
ENDBRANCH  21  23
ENDBRANCH  20  21
ENDBRANCH   2  20
TORSDOF 11
ENDMDL
MODEL 8
REMARK VINA RESULT:      -9.5      3.339      6.971
REMARK  Name = 5281078
REMARK  11 active torsions:
REMARK  status: ('A' for Active; 'I' for Inactive)
REMARK    1  A    between atoms: C_1  and  C_4
REMARK    2  A    between atoms: C_2  and  C_20
REMARK    3  A    between atoms: C_4  and  C_8
REMARK    4  A    between atoms: C_11  and  O_16
REMARK    5  A    between atoms: C_12  and  O_18
REMARK    6  A    between atoms: C_20  and  C_21
REMARK    7  A    between atoms: C_21  and  C_23
REMARK    8  A    between atoms: C_23  and  O_24
REMARK    9  A    between atoms: O_24  and  C_25
REMARK   10  A    between atoms: C_25  and  C_26
REMARK   11  A    between atoms: C_26  and  N_28
REMARK                            x       y       z     vdW  Elec       q    Type
REMARK                         _______ _______ _______ _____ _____    ______ ____
ROOT
ATOM      1  C   UNL     1      33.080 -14.031 -22.567  0.00  0.00    -0.030 C 
ATOM      2  C   UNL     1      33.398 -14.858 -21.551  0.00  0.00    -0.047 C 
ATOM      3  C   UNL     1      32.666 -14.929 -20.239  0.00  0.00    +0.026 C 
ENDROOT
BRANCH   1   4
ATOM      4  C   UNL     1      31.968 -13.023 -22.629  0.00  0.00    +0.058 C 
BRANCH   4   8
ATOM      5  O   UNL     1      34.984  -8.157 -24.448  0.00  0.00    -0.440 OA
ATOM      6  O   UNL     1      35.542 -10.093 -25.582  0.00  0.00    -0.245 OA
ATOM      7  C   UNL     1      33.417  -9.031 -23.038  0.00  0.00    +0.029 A 
ATOM      8  C   UNL     1      32.488 -11.616 -22.784  0.00  0.00    +0.050 A 
ATOM      9  C   UNL     1      33.903 -10.045 -23.838  0.00  0.00    +0.108 A 
ATOM     10  C   UNL     1      32.448  -9.293 -22.087  0.00  0.00    +0.012 A 
ATOM     11  C   UNL     1      31.980 -10.604 -21.962  0.00  0.00    +0.134 A 
ATOM     12  C   UNL     1      33.462 -11.351 -23.739  0.00  0.00    +0.139 A 
ATOM     13  C   UNL     1      34.083  -7.762 -23.384  0.00  0.00    +0.235 C 
ATOM     14  C   UNL     1      34.903  -9.494 -24.740  0.00  0.00    +0.344 C 
ATOM     15  C   UNL     1      31.923  -8.200 -21.220  0.00  0.00    +0.034 C 
BRANCH  11  16
ATOM     16  O   UNL     1      31.024 -10.892 -21.030  0.00  0.00    -0.472 OA
ATOM     17  C   UNL     1      31.481 -11.316 -19.748  0.00  0.00    +0.252 C 
ENDBRANCH  11  16
BRANCH  12  18
ATOM     18  O   UNL     1      33.958 -12.330 -24.539  0.00  0.00    -0.506 OA
ATOM     19  H   UNL     1      33.999 -13.213 -24.229  0.00  0.00    +0.292 HD
ENDBRANCH  12  18
ENDBRANCH   4   8
ENDBRANCH   1   4
BRANCH   2  20
ATOM     20  C   UNL     1      34.573 -15.809 -21.690  0.00  0.00    +0.033 C 
BRANCH  20  21
ATOM     21  C   UNL     1      35.035 -15.997 -23.134  0.00  0.00    +0.114 C 
BRANCH  21  23
ATOM     22  O   UNL     1      34.652 -17.855 -24.629  0.00  0.00    -0.250 OA
ATOM     23  C   UNL     1      35.030 -17.453 -23.536  0.00  0.00    +0.317 C 
BRANCH  23  24
ATOM     24  O   UNL     1      35.534 -18.219 -22.526  0.00  0.00    -0.451 OA
BRANCH  24  25
ATOM     25  C   UNL     1      34.910 -19.494 -22.351  0.00  0.00    +0.186 C 
BRANCH  25  26
ATOM     26  C   UNL     1      33.869 -19.380 -21.248  0.00  0.00    -0.029 C 
BRANCH  26  28
ATOM     27  O   UNL     1      34.958 -22.727 -18.961  0.00  0.00    -0.358 OA
ATOM     28  N   UNL     1      34.226 -20.229 -20.113  0.00  0.00    +0.393 N 
ATOM     29  C   UNL     1      35.574 -20.788 -20.282  0.00  0.00    -0.044 C 
ATOM     30  C   UNL     1      33.249 -21.314 -19.945  0.00  0.00    -0.044 C 
ATOM     31  C   UNL     1      35.920 -21.679 -19.092  0.00  0.00    +0.119 C 
ATOM     32  C   UNL     1      33.649 -22.192 -18.763  0.00  0.00    +0.119 C 
ATOM     33  H   UNL     1      34.216 -19.649 -19.274  0.00  0.00    -0.079 HD
ENDBRANCH  26  28
ENDBRANCH  25  26
ENDBRANCH  24  25
ENDBRANCH  23  24
ENDBRANCH  21  23
ENDBRANCH  20  21
ENDBRANCH   2  20
TORSDOF 11
ENDMDL
MODEL 9
REMARK VINA RESULT:      -9.5      2.541      3.100
REMARK  Name = 5281078
REMARK  11 active torsions:
REMARK  status: ('A' for Active; 'I' for Inactive)
REMARK    1  A    between atoms: C_1  and  C_4
REMARK    2  A    between atoms: C_2  and  C_20
REMARK    3  A    between atoms: C_4  and  C_8
REMARK    4  A    between atoms: C_11  and  O_16
REMARK    5  A    between atoms: C_12  and  O_18
REMARK    6  A    between atoms: C_20  and  C_21
REMARK    7  A    between atoms: C_21  and  C_23
REMARK    8  A    between atoms: C_23  and  O_24
REMARK    9  A    between atoms: O_24  and  C_25
REMARK   10  A    between atoms: C_25  and  C_26
REMARK   11  A    between atoms: C_26  and  N_28
REMARK                            x       y       z     vdW  Elec       q    Type
REMARK                         _______ _______ _______ _____ _____    ______ ____
ROOT
ATOM      1  C   UNL     1      34.749 -18.825 -21.288  0.00  0.00    -0.030 C 
ATOM      2  C   UNL     1      35.160 -19.915 -20.612  0.00  0.00    -0.047 C 
ATOM      3  C   UNL     1      36.588 -20.211 -20.243  0.00  0.00    +0.026 C 
ENDROOT
BRANCH   1   4
ATOM      4  C   UNL     1      35.583 -17.693 -21.819  0.00  0.00    +0.058 C 
BRANCH   4   8
ATOM      5  O   UNL     1      32.054 -12.885 -22.531  0.00  0.00    -0.440 OA
ATOM      6  O   UNL     1      32.593 -13.343 -20.330  0.00  0.00    -0.245 OA
ATOM      7  C   UNL     1      33.192 -14.597 -23.521  0.00  0.00    +0.029 A 
ATOM      8  C   UNL     1      34.736 -16.593 -22.408  0.00  0.00    +0.050 A 
ATOM      9  C   UNL     1      33.380 -14.676 -22.156  0.00  0.00    +0.108 A 
ATOM     10  C   UNL     1      33.778 -15.524 -24.363  0.00  0.00    +0.012 A 
ATOM     11  C   UNL     1      34.560 -16.534 -23.795  0.00  0.00    +0.134 A 
ATOM     12  C   UNL     1      34.146 -15.661 -21.563  0.00  0.00    +0.139 A 
ATOM     13  C   UNL     1      32.331 -13.444 -23.840  0.00  0.00    +0.235 C 
ATOM     14  C   UNL     1      32.657 -13.587 -21.519  0.00  0.00    +0.344 C 
ATOM     15  C   UNL     1      33.575 -15.443 -25.838  0.00  0.00    +0.034 C 
BRANCH  11  16
ATOM     16  O   UNL     1      35.151 -17.464 -24.602  0.00  0.00    -0.472 OA
ATOM     17  C   UNL     1      34.368 -18.601 -24.954  0.00  0.00    +0.252 C 
ENDBRANCH  11  16
BRANCH  12  18
ATOM     18  O   UNL     1      34.313 -15.715 -20.217  0.00  0.00    -0.506 OA
ATOM     19  H   UNL     1      34.389 -14.923 -19.722  0.00  0.00    +0.292 HD
ENDBRANCH  12  18
ENDBRANCH   4   8
ENDBRANCH   1   4
BRANCH   2  20
ATOM     20  C   UNL     1      34.147 -20.952 -20.162  0.00  0.00    +0.033 C 
BRANCH  20  21
ATOM     21  C   UNL     1      34.783 -22.260 -19.692  0.00  0.00    +0.114 C 
BRANCH  21  23
ATOM     22  O   UNL     1      34.885 -22.938 -17.376  0.00  0.00    -0.250 OA
ATOM     23  C   UNL     1      34.208 -22.716 -18.372  0.00  0.00    +0.317 C 
BRANCH  23  24
ATOM     24  O   UNL     1      32.850 -22.802 -18.459  0.00  0.00    -0.451 OA
BRANCH  24  25
ATOM     25  C   UNL     1      32.131 -22.358 -17.304  0.00  0.00    +0.186 C 
BRANCH  25  26
ATOM     26  C   UNL     1      31.244 -23.493 -16.816  0.00  0.00    -0.029 C 
BRANCH  26  28
ATOM     27  O   UNL     1      32.056 -25.071 -13.012  0.00  0.00    -0.358 OA
ATOM     28  N   UNL     1      31.341 -23.636 -15.364  0.00  0.00    +0.393 N 
ATOM     29  C   UNL     1      32.743 -23.778 -14.946  0.00  0.00    -0.044 C 
ATOM     30  C   UNL     1      30.559 -24.790 -14.900  0.00  0.00    -0.044 C 
ATOM     31  C   UNL     1      32.819 -23.939 -13.431  0.00  0.00    +0.119 C 
ATOM     32  C   UNL     1      30.685 -24.926 -13.385  0.00  0.00    +0.119 C 
ATOM     33  H   UNL     1      30.959 -22.791 -14.940  0.00  0.00    -0.079 HD
ENDBRANCH  26  28
ENDBRANCH  25  26
ENDBRANCH  24  25
ENDBRANCH  23  24
ENDBRANCH  21  23
ENDBRANCH  20  21
ENDBRANCH   2  20
TORSDOF 11
ENDMDL
