MODEL 1
REMARK VINA RESULT:     -11.5      0.000      0.000
REMARK  Name = 44177328
REMARK  2 active torsions:
REMARK  status: ('A' for Active; 'I' for Inactive)
REMARK    1  A    between atoms: N_1  and  C_15
REMARK    2  A    between atoms: C_6  and  C_23
REMARK                            x       y       z     vdW  Elec       q    Type
REMARK                         _______ _______ _______ _____ _____    ______ ____
ROOT
ATOM      1  N   UNL     1      32.736 -22.447 -18.459  0.00  0.00    -0.286 N 
ATOM      2  N   UNL     1      33.989 -23.318 -16.650  0.00  0.00    -0.386 NA
ATOM      3  N   UNL     1      31.613 -23.679 -15.204  0.00  0.00    -0.246 NA
ATOM      4  N   UNL     1      30.384 -22.803 -17.035  0.00  0.00    -0.340 N 
ATOM      5  C   UNL     1      32.787 -22.988 -17.161  0.00  0.00    +0.214 C 
ATOM      6  C   UNL     1      33.984 -23.832 -15.404  0.00  0.00    +0.135 C 
ATOM      7  C   UNL     1      31.619 -23.166 -16.452  0.00  0.00    +0.166 C 
ATOM      8  C   UNL     1      32.816 -24.009 -14.695  0.00  0.00    +0.185 C 
ATOM      9  H   UNL     1      31.903 -22.655 -18.942  0.00  0.00    +0.155 HD
ATOM     10  H   UNL     1      29.546 -22.927 -16.532  0.00  0.00    +0.144 HD
ATOM     11  H   UNL     1      30.361 -22.425 -17.944  0.00  0.00    +0.144 HD
ENDROOT
BRANCH   1  15
ATOM     12  N   UNL     1      36.103 -19.240 -21.456  0.00  0.00    -0.312 N 
ATOM     13  C   UNL     1      34.081 -19.816 -20.708  0.00  0.00    +0.016 C 
ATOM     14  C   UNL     1      35.438 -20.142 -20.655  0.00  0.00    +0.048 C 
ATOM     15  C   UNL     1      33.645 -21.664 -19.204  0.00  0.00    +0.050 C 
ATOM     16  C   UNL     1      33.168 -20.593 -19.968  0.00  0.00    +0.016 C 
ATOM     17  C   UNL     1      35.929 -21.208 -19.895  0.00  0.00    +0.016 C 
ATOM     18  C   UNL     1      35.005 -21.966 -19.170  0.00  0.00    +0.016 C 
ATOM     19  C   UNL     1      33.955 -18.689 -21.568  0.00  0.00    +0.017 C 
ATOM     20  C   UNL     1      35.215 -18.358 -22.012  0.00  0.00    +0.062 C 
ATOM     21  H   UNL     1      37.075 -19.231 -21.607  0.00  0.00    +0.152 HD
ENDBRANCH   1  15
BRANCH   6  23
ATOM     22  N   UNL     1      37.769 -24.856 -13.802  0.00  0.00    -0.242 NA
ATOM     23  C   UNL     1      35.271 -24.181 -14.860  0.00  0.00    +0.031 C 
ATOM     24  C   UNL     1      35.795 -25.452 -15.066  0.00  0.00    +0.023 C 
ATOM     25  C   UNL     1      35.994 -23.246 -14.126  0.00  0.00    +0.023 C 
ATOM     26  C   UNL     1      37.037 -25.737 -14.521  0.00  0.00    +0.099 C 
ATOM     27  C   UNL     1      37.227 -23.631 -13.623  0.00  0.00    +0.099 C 
ENDBRANCH   6  23
TORSDOF 2
ENDMDL
MODEL 2
REMARK VINA RESULT:     -10.8      7.640     12.306
REMARK  Name = 44177328
REMARK  2 active torsions:
REMARK  status: ('A' for Active; 'I' for Inactive)
REMARK    1  A    between atoms: N_1  and  C_15
REMARK    2  A    between atoms: C_6  and  C_23
REMARK                            x       y       z     vdW  Elec       q    Type
REMARK                         _______ _______ _______ _____ _____    ______ ____
ROOT
ATOM      1  N   UNL     1      33.852 -11.463 -25.340  0.00  0.00    -0.286 N 
ATOM      2  N   UNL     1      34.093 -13.434 -24.051  0.00  0.00    -0.386 NA
ATOM      3  N   UNL     1      33.125 -14.939 -26.210  0.00  0.00    -0.246 NA
ATOM      4  N   UNL     1      32.896 -12.947 -27.478  0.00  0.00    -0.340 N 
ATOM      5  C   UNL     1      33.733 -12.860 -25.216  0.00  0.00    +0.214 C 
ATOM      6  C   UNL     1      33.960 -14.773 -23.983  0.00  0.00    +0.135 C 
ATOM      7  C   UNL     1      33.258 -13.599 -26.277  0.00  0.00    +0.166 C 
ATOM      8  C   UNL     1      33.484 -15.512 -25.044  0.00  0.00    +0.185 C 
ATOM      9  H   UNL     1      34.034 -11.162 -26.259  0.00  0.00    +0.155 HD
ATOM     10  H   UNL     1      32.556 -13.470 -28.239  0.00  0.00    +0.144 HD
ATOM     11  H   UNL     1      32.984 -11.969 -27.552  0.00  0.00    +0.144 HD
ENDROOT
BRANCH   1  15
ATOM     12  N   UNL     1      33.302  -7.457 -21.565  0.00  0.00    -0.312 N 
ATOM     13  C   UNL     1      32.678  -9.388 -22.493  0.00  0.00    +0.016 C 
ATOM     14  C   UNL     1      33.600  -8.342 -22.577  0.00  0.00    +0.048 C 
ATOM     15  C   UNL     1      33.762 -10.410 -24.403  0.00  0.00    +0.050 C 
ATOM     16  C   UNL     1      32.762 -10.441 -23.425  0.00  0.00    +0.016 C 
ATOM     17  C   UNL     1      34.606  -8.298 -23.548  0.00  0.00    +0.016 C 
ATOM     18  C   UNL     1      34.669  -9.354 -24.462  0.00  0.00    +0.016 C 
ATOM     19  C   UNL     1      31.817  -9.099 -21.398  0.00  0.00    +0.017 C 
ATOM     20  C   UNL     1      32.225  -7.906 -20.847  0.00  0.00    +0.062 C 
ATOM     21  H   UNL     1      33.791  -6.622 -21.385  0.00  0.00    +0.152 HD
ENDBRANCH   1  15
BRANCH   6  23
ATOM     22  N   UNL     1      35.082 -16.568 -20.314  0.00  0.00    -0.242 NA
ATOM     23  C   UNL     1      34.341 -15.383 -22.735  0.00  0.00    +0.031 C 
ATOM     24  C   UNL     1      34.215 -14.676 -21.545  0.00  0.00    +0.023 C 
ATOM     25  C   UNL     1      34.836 -16.683 -22.717  0.00  0.00    +0.023 C 
ATOM     26  C   UNL     1      34.596 -15.307 -20.372  0.00  0.00    +0.099 C 
ATOM     27  C   UNL     1      35.190 -17.224 -21.491  0.00  0.00    +0.099 C 
ENDBRANCH   6  23
TORSDOF 2
ENDMDL
MODEL 3
REMARK VINA RESULT:     -10.7      7.304     11.536
REMARK  Name = 44177328
REMARK  2 active torsions:
REMARK  status: ('A' for Active; 'I' for Inactive)
REMARK    1  A    between atoms: N_1  and  C_15
REMARK    2  A    between atoms: C_6  and  C_23
REMARK                            x       y       z     vdW  Elec       q    Type
REMARK                         _______ _______ _______ _____ _____    ______ ____
ROOT
ATOM      1  N   UNL     1      33.302 -12.093 -24.763  0.00  0.00    -0.286 N 
ATOM      2  N   UNL     1      33.943 -14.207 -23.912  0.00  0.00    -0.386 NA
ATOM      3  N   UNL     1      33.489 -15.337 -26.439  0.00  0.00    -0.246 NA
ATOM      4  N   UNL     1      32.854 -13.205 -27.263  0.00  0.00    -0.340 N 
ATOM      5  C   UNL     1      33.519 -13.470 -24.958  0.00  0.00    +0.214 C 
ATOM      6  C   UNL     1      34.136 -15.519 -24.152  0.00  0.00    +0.135 C 
ATOM      7  C   UNL     1      33.297 -14.024 -26.199  0.00  0.00    +0.166 C 
ATOM      8  C   UNL     1      33.912 -16.074 -25.393  0.00  0.00    +0.185 C 
ATOM      9  H   UNL     1      33.456 -11.550 -25.569  0.00  0.00    +0.155 HD
ATOM     10  H   UNL     1      32.693 -13.596 -28.152  0.00  0.00    +0.144 HD
ATOM     11  H   UNL     1      32.706 -12.243 -27.113  0.00  0.00    +0.144 HD
ENDROOT
BRANCH   1  15
ATOM     12  N   UNL     1      31.673  -9.352 -20.241  0.00  0.00    -0.312 N 
ATOM     13  C   UNL     1      31.905 -11.224 -21.433  0.00  0.00    +0.016 C 
ATOM     14  C   UNL     1      32.143  -9.848 -21.437  0.00  0.00    +0.048 C 
ATOM     15  C   UNL     1      32.908 -11.338 -23.635  0.00  0.00    +0.050 C 
ATOM     16  C   UNL     1      32.296 -11.983 -22.555  0.00  0.00    +0.016 C 
ATOM     17  C   UNL     1      32.755  -9.191 -22.510  0.00  0.00    +0.016 C 
ATOM     18  C   UNL     1      33.132  -9.964 -23.612  0.00  0.00    +0.016 C 
ATOM     19  C   UNL     1      31.277 -11.536 -20.195  0.00  0.00    +0.017 C 
ATOM     20  C   UNL     1      31.148 -10.365 -19.484  0.00  0.00    +0.062 C 
ATOM     21  H   UNL     1      31.709  -8.407 -19.971  0.00  0.00    +0.152 HD
ENDBRANCH   1  15
BRANCH   6  23
ATOM     22  N   UNL     1      35.457 -17.832 -20.858  0.00  0.00    -0.242 NA
ATOM     23  C   UNL     1      34.584 -16.306 -23.031  0.00  0.00    +0.031 C 
ATOM     24  C   UNL     1      34.435 -15.824 -21.735  0.00  0.00    +0.023 C 
ATOM     25  C   UNL     1      35.168 -17.550 -23.242  0.00  0.00    +0.023 C 
ATOM     26  C   UNL     1      34.884 -16.618 -20.693  0.00  0.00    +0.099 C 
ATOM     27  C   UNL     1      35.584 -18.268 -22.131  0.00  0.00    +0.099 C 
ENDBRANCH   6  23
TORSDOF 2
ENDMDL
MODEL 4
REMARK VINA RESULT:     -10.7      5.511      9.597
REMARK  Name = 44177328
REMARK  2 active torsions:
REMARK  status: ('A' for Active; 'I' for Inactive)
REMARK    1  A    between atoms: N_1  and  C_15
REMARK    2  A    between atoms: C_6  and  C_23
REMARK                            x       y       z     vdW  Elec       q    Type
REMARK                         _______ _______ _______ _____ _____    ______ ____
ROOT
ATOM      1  N   UNL     1      33.520 -14.302 -23.831  0.00  0.00    -0.286 N 
ATOM      2  N   UNL     1      34.298 -16.409 -23.084  0.00  0.00    -0.386 NA
ATOM      3  N   UNL     1      34.085 -17.393 -25.701  0.00  0.00    -0.246 NA
ATOM      4  N   UNL     1      33.309 -15.270 -26.421  0.00  0.00    -0.340 N 
ATOM      5  C   UNL     1      33.869 -15.639 -24.103  0.00  0.00    +0.214 C 
ATOM      6  C   UNL     1      34.619 -17.680 -23.396  0.00  0.00    +0.135 C 
ATOM      7  C   UNL     1      33.764 -16.121 -25.389  0.00  0.00    +0.166 C 
ATOM      8  C   UNL     1      34.514 -18.163 -24.682  0.00  0.00    +0.185 C 
ATOM      9  H   UNL     1      33.669 -13.693 -24.590  0.00  0.00    +0.155 HD
ATOM     10  H   UNL     1      33.232 -15.609 -27.342  0.00  0.00    +0.144 HD
ATOM     11  H   UNL     1      33.068 -14.337 -26.219  0.00  0.00    +0.144 HD
ENDROOT
BRANCH   1  15
ATOM     12  N   UNL     1      31.422 -11.606 -19.480  0.00  0.00    -0.312 N 
ATOM     13  C   UNL     1      31.948 -11.745 -21.644  0.00  0.00    +0.016 C 
ATOM     14  C   UNL     1      31.983 -12.432 -20.428  0.00  0.00    +0.048 C 
ATOM     15  C   UNL     1      33.000 -13.665 -22.683  0.00  0.00    +0.050 C 
ATOM     16  C   UNL     1      32.467 -12.375 -22.793  0.00  0.00    +0.016 C 
ATOM     17  C   UNL     1      32.511 -13.722 -20.304  0.00  0.00    +0.016 C 
ATOM     18  C   UNL     1      33.021 -14.326 -21.457  0.00  0.00    +0.016 C 
ATOM     19  C   UNL     1      31.349 -10.480 -21.392  0.00  0.00    +0.017 C 
ATOM     20  C   UNL     1      31.037 -10.423 -20.053  0.00  0.00    +0.062 C 
ATOM     21  H   UNL     1      31.316 -11.832 -18.528  0.00  0.00    +0.152 HD
ENDBRANCH   1  15
BRANCH   6  23
ATOM     22  N   UNL     1      35.956 -20.099 -20.186  0.00  0.00    -0.242 NA
ATOM     23  C   UNL     1      35.074 -18.502 -22.304  0.00  0.00    +0.031 C 
ATOM     24  C   UNL     1      36.398 -18.437 -21.885  0.00  0.00    +0.023 C 
ATOM     25  C   UNL     1      34.190 -19.365 -21.665  0.00  0.00    +0.023 C 
ATOM     26  C   UNL     1      36.786 -19.248 -20.831  0.00  0.00    +0.099 C 
ATOM     27  C   UNL     1      34.676 -20.135 -20.621  0.00  0.00    +0.099 C 
ENDBRANCH   6  23
TORSDOF 2
ENDMDL
MODEL 5
REMARK VINA RESULT:     -10.7      0.941      1.750
REMARK  Name = 44177328
REMARK  2 active torsions:
REMARK  status: ('A' for Active; 'I' for Inactive)
REMARK    1  A    between atoms: N_1  and  C_15
REMARK    2  A    between atoms: C_6  and  C_23
REMARK                            x       y       z     vdW  Elec       q    Type
REMARK                         _______ _______ _______ _____ _____    ______ ____
ROOT
ATOM      1  N   UNL     1      32.672 -22.692 -18.154  0.00  0.00    -0.286 N 
ATOM      2  N   UNL     1      34.117 -23.229 -16.358  0.00  0.00    -0.386 NA
ATOM      3  N   UNL     1      31.892 -23.940 -14.806  0.00  0.00    -0.246 NA
ATOM      4  N   UNL     1      30.468 -23.395 -16.624  0.00  0.00    -0.340 N 
ATOM      5  C   UNL     1      32.860 -23.148 -16.835  0.00  0.00    +0.214 C 
ATOM      6  C   UNL     1      34.243 -23.671 -15.091  0.00  0.00    +0.135 C 
ATOM      7  C   UNL     1      31.766 -23.498 -16.074  0.00  0.00    +0.166 C 
ATOM      8  C   UNL     1      33.149 -24.020 -14.329  0.00  0.00    +0.185 C 
ATOM      9  H   UNL     1      31.877 -23.072 -18.594  0.00  0.00    +0.155 HD
ATOM     10  H   UNL     1      29.683 -23.643 -16.085  0.00  0.00    +0.144 HD
ATOM     11  H   UNL     1      30.350 -23.074 -17.548  0.00  0.00    +0.144 HD
ENDROOT
BRANCH   1  15
ATOM     12  N   UNL     1      35.740 -19.284 -21.249  0.00  0.00    -0.312 N 
ATOM     13  C   UNL     1      35.520 -20.910 -19.736  0.00  0.00    +0.016 C 
ATOM     14  C   UNL     1      34.811 -20.040 -20.569  0.00  0.00    +0.048 C 
ATOM     15  C   UNL     1      33.401 -21.797 -18.968  0.00  0.00    +0.050 C 
ATOM     16  C   UNL     1      34.799 -21.805 -18.920  0.00  0.00    +0.016 C 
ATOM     17  C   UNL     1      33.414 -20.023 -20.627  0.00  0.00    +0.016 C 
ATOM     18  C   UNL     1      32.720 -20.919 -19.808  0.00  0.00    +0.016 C 
ATOM     19  C   UNL     1      36.904 -20.648 -19.940  0.00  0.00    +0.017 C 
ATOM     20  C   UNL     1      37.007 -19.644 -20.875  0.00  0.00    +0.062 C 
ATOM     21  H   UNL     1      35.523 -18.585 -21.907  0.00  0.00    +0.152 HD
ENDBRANCH   1  15
BRANCH   6  23
ATOM     22  N   UNL     1      38.199 -23.912 -13.595  0.00  0.00    -0.242 NA
ATOM     23  C   UNL     1      35.588 -23.753 -14.582  0.00  0.00    +0.031 C 
ATOM     24  C   UNL     1      35.855 -23.426 -13.257  0.00  0.00    +0.023 C 
ATOM     25  C   UNL     1      36.625 -24.161 -15.414  0.00  0.00    +0.023 C 
ATOM     26  C   UNL     1      37.164 -23.521 -12.817  0.00  0.00    +0.099 C 
ATOM     27  C   UNL     1      37.902 -24.222 -14.877  0.00  0.00    +0.099 C 
ENDBRANCH   6  23
TORSDOF 2
ENDMDL
MODEL 6
REMARK VINA RESULT:     -10.3      1.796      6.723
REMARK  Name = 44177328
REMARK  2 active torsions:
REMARK  status: ('A' for Active; 'I' for Inactive)
REMARK    1  A    between atoms: N_1  and  C_15
REMARK    2  A    between atoms: C_6  and  C_23
REMARK                            x       y       z     vdW  Elec       q    Type
REMARK                         _______ _______ _______ _____ _____    ______ ____
ROOT
ATOM      1  N   UNL     1      34.340 -24.403 -14.681  0.00  0.00    -0.286 N 
ATOM      2  N   UNL     1      35.089 -23.070 -16.488  0.00  0.00    -0.386 NA
ATOM      3  N   UNL     1      37.576 -22.789 -15.221  0.00  0.00    -0.246 NA
ATOM      4  N   UNL     1      36.797 -24.130 -13.426  0.00  0.00    -0.340 N 
ATOM      5  C   UNL     1      35.352 -23.643 -15.297  0.00  0.00    +0.214 C 
ATOM      6  C   UNL     1      36.091 -22.353 -17.035  0.00  0.00    +0.135 C 
ATOM      7  C   UNL     1      36.573 -23.506 -14.674  0.00  0.00    +0.166 C 
ATOM      8  C   UNL     1      37.312 -22.216 -16.412  0.00  0.00    +0.185 C 
ATOM      9  H   UNL     1      34.681 -25.136 -14.120  0.00  0.00    +0.155 HD
ATOM     10  H   UNL     1      37.667 -24.035 -12.977  0.00  0.00    +0.144 HD
ATOM     11  H   UNL     1      36.081 -24.659 -13.005  0.00  0.00    +0.144 HD
ENDROOT
BRANCH   1  15
ATOM     12  N   UNL     1      28.837 -23.923 -15.002  0.00  0.00    -0.312 N 
ATOM     13  C   UNL     1      30.900 -23.446 -15.705  0.00  0.00    +0.016 C 
ATOM     14  C   UNL     1      30.170 -24.170 -14.759  0.00  0.00    +0.048 C 
ATOM     15  C   UNL     1      32.930 -24.320 -14.712  0.00  0.00    +0.050 C 
ATOM     16  C   UNL     1      32.308 -23.524 -15.680  0.00  0.00    +0.016 C 
ATOM     17  C   UNL     1      30.779 -24.970 -13.787  0.00  0.00    +0.016 C 
ATOM     18  C   UNL     1      32.176 -25.031 -13.781  0.00  0.00    +0.016 C 
ATOM     19  C   UNL     1      29.960 -22.757 -16.522  0.00  0.00    +0.017 C 
ATOM     20  C   UNL     1      28.701 -23.070 -16.064  0.00  0.00    +0.062 C 
ATOM     21  H   UNL     1      28.092 -24.303 -14.484  0.00  0.00    +0.152 HD
ENDBRANCH   1  15
BRANCH   6  23
ATOM     22  N   UNL     1      35.250 -20.545 -20.772  0.00  0.00    -0.242 NA
ATOM     23  C   UNL     1      35.805 -21.739 -18.306  0.00  0.00    +0.031 C 
ATOM     24  C   UNL     1      36.810 -21.076 -19.002  0.00  0.00    +0.023 C 
ATOM     25  C   UNL     1      34.523 -21.806 -18.841  0.00  0.00    +0.023 C 
ATOM     26  C   UNL     1      36.484 -20.502 -20.220  0.00  0.00    +0.099 C 
ATOM     27  C   UNL     1      34.300 -21.198 -20.066  0.00  0.00    +0.099 C 
ENDBRANCH   6  23
TORSDOF 2
ENDMDL
MODEL 7
REMARK VINA RESULT:     -10.0      1.573      4.103
REMARK  Name = 44177328
REMARK  2 active torsions:
REMARK  status: ('A' for Active; 'I' for Inactive)
REMARK    1  A    between atoms: N_1  and  C_15
REMARK    2  A    between atoms: C_6  and  C_23
REMARK                            x       y       z     vdW  Elec       q    Type
REMARK                         _______ _______ _______ _____ _____    ______ ____
ROOT
ATOM      1  N   UNL     1      36.621 -22.145 -17.051  0.00  0.00    -0.286 N 
ATOM      2  N   UNL     1      34.779 -23.061 -15.879  0.00  0.00    -0.386 NA
ATOM      3  N   UNL     1      36.527 -24.785 -14.523  0.00  0.00    -0.246 NA
ATOM      4  N   UNL     1      38.353 -23.847 -15.712  0.00  0.00    -0.340 N 
ATOM      5  C   UNL     1      36.108 -23.052 -16.105  0.00  0.00    +0.214 C 
ATOM      6  C   UNL     1      34.339 -23.947 -14.964  0.00  0.00    +0.135 C 
ATOM      7  C   UNL     1      36.967 -23.898 -15.438  0.00  0.00    +0.166 C 
ATOM      8  C   UNL     1      35.198 -24.793 -14.298  0.00  0.00    +0.185 C 
ATOM      9  H   UNL     1      37.539 -21.848 -16.857  0.00  0.00    +0.155 HD
ATOM     10  H   UNL     1      38.971 -24.449 -15.239  0.00  0.00    +0.144 HD
ATOM     11  H   UNL     1      38.699 -23.208 -16.377  0.00  0.00    +0.144 HD
ENDROOT
BRANCH   1  15
ATOM     12  N   UNL     1      34.699 -19.795 -21.676  0.00  0.00    -0.312 N 
ATOM     13  C   UNL     1      36.272 -20.082 -20.120  0.00  0.00    +0.016 C 
ATOM     14  C   UNL     1      34.995 -20.482 -20.520  0.00  0.00    +0.048 C 
ATOM     15  C   UNL     1      36.076 -21.579 -18.225  0.00  0.00    +0.050 C 
ATOM     16  C   UNL     1      36.822 -20.643 -18.949  0.00  0.00    +0.016 C 
ATOM     17  C   UNL     1      34.239 -21.418 -19.807  0.00  0.00    +0.016 C 
ATOM     18  C   UNL     1      34.804 -21.959 -18.648  0.00  0.00    +0.016 C 
ATOM     19  C   UNL     1      36.731 -19.132 -21.075  0.00  0.00    +0.017 C 
ATOM     20  C   UNL     1      35.742 -18.976 -22.018  0.00  0.00    +0.062 C 
ATOM     21  H   UNL     1      33.859 -19.879 -22.182  0.00  0.00    +0.152 HD
ENDBRANCH   1  15
BRANCH   6  23
ATOM     22  N   UNL     1      30.161 -23.976 -14.268  0.00  0.00    -0.242 NA
ATOM     23  C   UNL     1      32.919 -23.956 -14.728  0.00  0.00    +0.031 C 
ATOM     24  C   UNL     1      32.082 -23.129 -15.468  0.00  0.00    +0.023 C 
ATOM     25  C   UNL     1      32.378 -24.795 -13.758  0.00  0.00    +0.023 C 
ATOM     26  C   UNL     1      30.723 -23.176 -15.202  0.00  0.00    +0.099 C 
ATOM     27  C   UNL     1      31.006 -24.767 -13.569  0.00  0.00    +0.099 C 
ENDBRANCH   6  23
TORSDOF 2
ENDMDL
MODEL 8
REMARK VINA RESULT:      -9.9      1.836      6.818
REMARK  Name = 44177328
REMARK  2 active torsions:
REMARK  status: ('A' for Active; 'I' for Inactive)
REMARK    1  A    between atoms: N_1  and  C_15
REMARK    2  A    between atoms: C_6  and  C_23
REMARK                            x       y       z     vdW  Elec       q    Type
REMARK                         _______ _______ _______ _____ _____    ______ ____
ROOT
ATOM      1  N   UNL     1      34.753 -24.529 -13.653  0.00  0.00    -0.286 N 
ATOM      2  N   UNL     1      34.492 -23.477 -15.757  0.00  0.00    -0.386 NA
ATOM      3  N   UNL     1      31.741 -24.015 -15.661  0.00  0.00    -0.246 NA
ATOM      4  N   UNL     1      32.034 -25.062 -13.552  0.00  0.00    -0.340 N 
ATOM      5  C   UNL     1      33.927 -24.121 -14.716  0.00  0.00    +0.214 C 
ATOM      6  C   UNL     1      33.658 -23.107 -16.749  0.00  0.00    +0.135 C 
ATOM      7  C   UNL     1      32.576 -24.384 -14.668  0.00  0.00    +0.166 C 
ATOM      8  C   UNL     1      32.307 -23.372 -16.701  0.00  0.00    +0.185 C 
ATOM      9  H   UNL     1      34.295 -24.550 -12.782  0.00  0.00    +0.155 HD
ATOM     10  H   UNL     1      31.069 -25.254 -13.513  0.00  0.00    +0.144 HD
ATOM     11  H   UNL     1      32.622 -25.343 -12.814  0.00  0.00    +0.144 HD
ENDROOT
BRANCH   1  15
ATOM     12  N   UNL     1      40.100 -25.948 -13.647  0.00  0.00    -0.312 N 
ATOM     13  C   UNL     1      38.296 -25.073 -14.625  0.00  0.00    +0.016 C 
ATOM     14  C   UNL     1      38.765 -25.673 -13.454  0.00  0.00    +0.048 C 
ATOM     15  C   UNL     1      36.111 -24.914 -13.591  0.00  0.00    +0.050 C 
ATOM     16  C   UNL     1      36.942 -24.686 -14.693  0.00  0.00    +0.016 C 
ATOM     17  C   UNL     1      37.945 -25.906 -12.344  0.00  0.00    +0.016 C 
ATOM     18  C   UNL     1      36.606 -25.515 -12.436  0.00  0.00    +0.016 C 
ATOM     19  C   UNL     1      39.395 -24.998 -15.525  0.00  0.00    +0.017 C 
ATOM     20  C   UNL     1      40.490 -25.544 -14.896  0.00  0.00    +0.062 C 
ATOM     21  H   UNL     1      40.689 -26.375 -12.983  0.00  0.00    +0.152 HD
ENDBRANCH   1  15
BRANCH   6  23
ATOM     22  N   UNL     1      35.445 -21.097 -20.021  0.00  0.00    -0.242 NA
ATOM     23  C   UNL     1      34.265 -22.423 -17.862  0.00  0.00    +0.031 C 
ATOM     24  C   UNL     1      33.483 -21.993 -18.928  0.00  0.00    +0.023 C 
ATOM     25  C   UNL     1      35.636 -22.190 -17.873  0.00  0.00    +0.023 C 
ATOM     26  C   UNL     1      34.116 -21.340 -19.974  0.00  0.00    +0.099 C 
ATOM     27  C   UNL     1      36.173 -21.529 -18.967  0.00  0.00    +0.099 C 
ENDBRANCH   6  23
TORSDOF 2
ENDMDL
MODEL 9
REMARK VINA RESULT:      -9.8     10.321     13.725
REMARK  Name = 44177328
REMARK  2 active torsions:
REMARK  status: ('A' for Active; 'I' for Inactive)
REMARK    1  A    between atoms: N_1  and  C_15
REMARK    2  A    between atoms: C_6  and  C_23
REMARK                            x       y       z     vdW  Elec       q    Type
REMARK                         _______ _______ _______ _____ _____    ______ ____
ROOT
ATOM      1  N   UNL     1      31.730 -10.004 -21.906  0.00  0.00    -0.286 N 
ATOM      2  N   UNL     1      32.356 -11.993 -23.027  0.00  0.00    -0.386 NA
ATOM      3  N   UNL     1      32.193 -13.388 -20.599  0.00  0.00    -0.246 NA
ATOM      4  N   UNL     1      31.566 -11.379 -19.503  0.00  0.00    -0.340 N 
ATOM      5  C   UNL     1      32.013 -11.383 -21.875  0.00  0.00    +0.214 C 
ATOM      6  C   UNL     1      32.616 -13.313 -22.944  0.00  0.00    +0.135 C 
ATOM      7  C   UNL     1      31.932 -12.067 -20.683  0.00  0.00    +0.166 C 
ATOM      8  C   UNL     1      32.536 -13.997 -21.751  0.00  0.00    +0.185 C 
ATOM      9  H   UNL     1      31.075  -9.719 -21.228  0.00  0.00    +0.155 HD
ATOM     10  H   UNL     1      31.507 -11.863 -18.648  0.00  0.00    +0.144 HD
ATOM     11  H   UNL     1      31.371 -10.415 -19.538  0.00  0.00    +0.144 HD
ENDROOT
BRANCH   1  15
ATOM     12  N   UNL     1      33.345  -5.781 -25.094  0.00  0.00    -0.312 N 
ATOM     13  C   UNL     1      31.787  -6.920 -23.974  0.00  0.00    +0.016 C 
ATOM     14  C   UNL     1      33.143  -6.893 -24.307  0.00  0.00    +0.048 C 
ATOM     15  C   UNL     1      32.203  -8.950 -22.719  0.00  0.00    +0.050 C 
ATOM     16  C   UNL     1      31.309  -7.970 -23.164  0.00  0.00    +0.016 C 
ATOM     17  C   UNL     1      34.048  -7.865 -23.868  0.00  0.00    +0.016 C 
ATOM     18  C   UNL     1      33.550  -8.897 -23.066  0.00  0.00    +0.016 C 
ATOM     19  C   UNL     1      31.183  -5.787 -24.588  0.00  0.00    +0.017 C 
ATOM     20  C   UNL     1      32.166  -5.107 -25.270  0.00  0.00    +0.062 C 
ATOM     21  H   UNL     1      34.211  -5.511 -25.476  0.00  0.00    +0.152 HD
ENDBRANCH   1  15
BRANCH   6  23
ATOM     22  N   UNL     1      33.705 -15.222 -26.565  0.00  0.00    -0.242 NA
ATOM     23  C   UNL     1      32.986 -13.961 -24.175  0.00  0.00    +0.031 C 
ATOM     24  C   UNL     1      32.811 -13.307 -25.390  0.00  0.00    +0.023 C 
ATOM     25  C   UNL     1      33.522 -15.245 -24.154  0.00  0.00    +0.023 C 
ATOM     26  C   UNL     1      33.182 -13.974 -26.545  0.00  0.00    +0.099 C 
ATOM     27  C   UNL     1      33.861 -15.826 -25.366  0.00  0.00    +0.099 C 
ENDBRANCH   6  23
TORSDOF 2
ENDMDL
