MODEL 1
REMARK VINA RESULT:      -7.6      0.000      0.000
REMARK  Name = 102669
REMARK  6 active torsions:
REMARK  status: ('A' for Active; 'I' for Inactive)
REMARK    1  A    between atoms: C_4  and  C_10
REMARK    2  A    between atoms: C_4  and  C_16
REMARK    3  A    between atoms: C_16  and  C_17
REMARK    4  A    between atoms: C_17  and  N_18
REMARK    5  A    between atoms: N_18  and  C_20
REMARK    6  A    between atoms: N_18  and  C_22
REMARK                            x       y       z     vdW  Elec       q    Type
REMARK                         _______ _______ _______ _____ _____    ______ ____
ROOT
ATOM      1  O   UNL     1      36.374 -23.131 -12.570  0.00  0.00    -0.274 OA
ATOM      2  O   UNL     1      38.556 -26.784 -14.306  0.00  0.00    -0.275 OA
ATOM      3  N   UNL     1      37.416 -24.966 -13.469  0.00  0.00    -0.255 N 
ATOM      4  C   UNL     1      35.403 -24.045 -14.605  0.00  0.00    +0.086 C 
ATOM      5  C   UNL     1      35.228 -25.526 -15.011  0.00  0.00    +0.022 C 
ATOM      6  C   UNL     1      36.412 -23.999 -13.444  0.00  0.00    +0.231 C 
ATOM      7  C   UNL     1      36.550 -26.144 -15.439  0.00  0.00    +0.086 C 
ATOM      8  C   UNL     1      37.593 -26.019 -14.358  0.00  0.00    +0.228 C 
ATOM      9  H   UNL     1      38.093 -24.891 -12.759  0.00  0.00    +0.158 HD
ENDROOT
BRANCH   4  10
ATOM     10  C   UNL     1      35.822 -23.163 -15.794  0.00  0.00    -0.015 C 
ATOM     11  C   UNL     1      34.968 -23.024 -16.883  0.00  0.00    -0.004 C 
ATOM     12  C   UNL     1      37.051 -22.513 -15.771  0.00  0.00    -0.004 C 
ATOM     13  C   UNL     1      35.348 -22.224 -17.962  0.00  0.00    -0.000 C 
ATOM     14  C   UNL     1      37.431 -21.713 -16.849  0.00  0.00    -0.000 C 
ATOM     15  C   UNL     1      36.579 -21.569 -17.944  0.00  0.00    -0.000 C 
ENDBRANCH   4  10
BRANCH   4  16
ATOM     16  C   UNL     1      34.054 -23.525 -14.057  0.00  0.00    -0.010 C 
BRANCH  16  17
ATOM     17  C   UNL     1      33.066 -24.668 -13.870  0.00  0.00    -0.077 C 
BRANCH  17  18
ATOM     18  N   UNL     1      31.850 -24.403 -14.630  0.00  0.00    +0.387 N 
ATOM     19  H   UNL     1      31.873 -24.973 -15.476  0.00  0.00    -0.080 HD
BRANCH  18  20
ATOM     20  C   UNL     1      31.785 -22.994 -15.022  0.00  0.00    -0.077 C 
ATOM     21  C   UNL     1      31.317 -22.844 -16.459  0.00  0.00    -0.025 C 
ENDBRANCH  18  20
BRANCH  18  22
ATOM     22  C   UNL     1      30.666 -24.770 -13.854  0.00  0.00    -0.077 C 
ATOM     23  C   UNL     1      29.646 -25.492 -14.718  0.00  0.00    -0.025 C 
ENDBRANCH  18  22
ENDBRANCH  17  18
ENDBRANCH  16  17
ENDBRANCH   4  16
TORSDOF 6
ENDMDL
MODEL 2
REMARK VINA RESULT:      -7.2      1.887      4.968
REMARK  Name = 102669
REMARK  6 active torsions:
REMARK  status: ('A' for Active; 'I' for Inactive)
REMARK    1  A    between atoms: C_4  and  C_10
REMARK    2  A    between atoms: C_4  and  C_16
REMARK    3  A    between atoms: C_16  and  C_17
REMARK    4  A    between atoms: C_17  and  N_18
REMARK    5  A    between atoms: N_18  and  C_20
REMARK    6  A    between atoms: N_18  and  C_22
REMARK                            x       y       z     vdW  Elec       q    Type
REMARK                         _______ _______ _______ _____ _____    ______ ____
ROOT
ATOM      1  O   UNL     1      35.551 -26.268 -15.788  0.00  0.00    -0.274 OA
ATOM      2  O   UNL     1      36.900 -25.092 -11.554  0.00  0.00    -0.275 OA
ATOM      3  N   UNL     1      36.215 -25.625 -13.688  0.00  0.00    -0.255 N 
ATOM      4  C   UNL     1      34.977 -24.003 -15.110  0.00  0.00    +0.086 C 
ATOM      5  C   UNL     1      35.826 -22.990 -14.308  0.00  0.00    +0.022 C 
ATOM      6  C   UNL     1      35.613 -25.391 -14.924  0.00  0.00    +0.231 C 
ATOM      7  C   UNL     1      35.871 -23.352 -12.831  0.00  0.00    +0.086 C 
ATOM      8  C   UNL     1      36.392 -24.751 -12.623  0.00  0.00    +0.228 C 
ATOM      9  H   UNL     1      36.564 -26.535 -13.553  0.00  0.00    +0.158 HD
ENDROOT
BRANCH   4  10
ATOM     10  C   UNL     1      33.494 -23.967 -14.705  0.00  0.00    -0.015 C 
ATOM     11  C   UNL     1      32.959 -25.009 -13.954  0.00  0.00    -0.004 C 
ATOM     12  C   UNL     1      32.699 -22.894 -15.092  0.00  0.00    -0.004 C 
ATOM     13  C   UNL     1      31.613 -24.977 -13.587  0.00  0.00    -0.000 C 
ATOM     14  C   UNL     1      31.353 -22.861 -14.725  0.00  0.00    -0.000 C 
ATOM     15  C   UNL     1      30.810 -23.903 -13.972  0.00  0.00    -0.000 C 
ENDBRANCH   4  10
BRANCH   4  16
ATOM     16  C   UNL     1      35.086 -23.649 -16.612  0.00  0.00    -0.010 C 
BRANCH  16  17
ATOM     17  C   UNL     1      35.901 -22.380 -16.815  0.00  0.00    -0.077 C 
BRANCH  17  18
ATOM     18  N   UNL     1      35.529 -21.747 -18.075  0.00  0.00    +0.387 N 
ATOM     19  H   UNL     1      35.153 -20.822 -17.868  0.00  0.00    -0.080 HD
BRANCH  18  20
ATOM     20  C   UNL     1      34.494 -22.527 -18.757  0.00  0.00    -0.077 C 
ATOM     21  C   UNL     1      33.313 -21.654 -19.145  0.00  0.00    -0.025 C 
ENDBRANCH  18  20
BRANCH  18  22
ATOM     22  C   UNL     1      36.699 -21.590 -18.939  0.00  0.00    -0.077 C 
ATOM     23  C   UNL     1      36.452 -20.543 -20.012  0.00  0.00    -0.025 C 
ENDBRANCH  18  22
ENDBRANCH  17  18
ENDBRANCH  16  17
ENDBRANCH   4  16
TORSDOF 6
ENDMDL
MODEL 3
REMARK VINA RESULT:      -7.2     14.721     17.356
REMARK  Name = 102669
REMARK  6 active torsions:
REMARK  status: ('A' for Active; 'I' for Inactive)
REMARK    1  A    between atoms: C_4  and  C_10
REMARK    2  A    between atoms: C_4  and  C_16
REMARK    3  A    between atoms: C_16  and  C_17
REMARK    4  A    between atoms: C_17  and  N_18
REMARK    5  A    between atoms: N_18  and  C_20
REMARK    6  A    between atoms: N_18  and  C_22
REMARK                            x       y       z     vdW  Elec       q    Type
REMARK                         _______ _______ _______ _____ _____    ______ ____
ROOT
ATOM      1  O   UNL     1      34.668  -7.881 -22.716  0.00  0.00    -0.274 OA
ATOM      2  O   UNL     1      31.248  -4.821 -22.464  0.00  0.00    -0.275 OA
ATOM      3  N   UNL     1      32.927  -6.391 -22.618  0.00  0.00    -0.255 N 
ATOM      4  C   UNL     1      32.449  -8.770 -23.164  0.00  0.00    +0.086 C 
ATOM      5  C   UNL     1      31.291  -8.125 -23.959  0.00  0.00    +0.022 C 
ATOM      6  C   UNL     1      33.462  -7.661 -22.835  0.00  0.00    +0.231 C 
ATOM      7  C   UNL     1      30.618  -7.020 -23.161  0.00  0.00    +0.086 C 
ATOM      8  C   UNL     1      31.608  -5.967 -22.732  0.00  0.00    +0.228 C 
ATOM      9  H   UNL     1      33.573  -5.700 -22.347  0.00  0.00    +0.158 HD
ENDROOT
BRANCH   4  10
ATOM     10  C   UNL     1      31.949  -9.512 -21.911  0.00  0.00    -0.015 C 
ATOM     11  C   UNL     1      32.376  -9.102 -20.652  0.00  0.00    -0.004 C 
ATOM     12  C   UNL     1      31.076 -10.585 -22.047  0.00  0.00    -0.004 C 
ATOM     13  C   UNL     1      31.923  -9.774 -19.516  0.00  0.00    -0.000 C 
ATOM     14  C   UNL     1      30.623 -11.257 -20.912  0.00  0.00    -0.000 C 
ATOM     15  C   UNL     1      31.047 -10.852 -19.646  0.00  0.00    -0.000 C 
ENDBRANCH   4  10
BRANCH   4  16
ATOM     16  C   UNL     1      33.167  -9.786 -24.083  0.00  0.00    -0.010 C 
BRANCH  16  17
ATOM     17  C   UNL     1      33.441 -11.089 -23.344  0.00  0.00    -0.077 C 
BRANCH  17  18
ATOM     18  N   UNL     1      34.168 -12.007 -24.212  0.00  0.00    +0.387 N 
ATOM     19  H   UNL     1      35.153 -11.980 -23.950  0.00  0.00    -0.080 HD
BRANCH  18  20
ATOM     20  C   UNL     1      34.048 -11.598 -25.612  0.00  0.00    -0.077 C 
ATOM     21  C   UNL     1      33.463 -12.712 -26.463  0.00  0.00    -0.025 C 
ENDBRANCH  18  20
BRANCH  18  22
ATOM     22  C   UNL     1      33.680 -13.376 -24.040  0.00  0.00    -0.077 C 
ATOM     23  C   UNL     1      33.020 -13.556 -22.683  0.00  0.00    -0.025 C 
ENDBRANCH  18  22
ENDBRANCH  17  18
ENDBRANCH  16  17
ENDBRANCH   4  16
TORSDOF 6
ENDMDL
MODEL 4
REMARK VINA RESULT:      -7.0      1.955      4.982
REMARK  Name = 102669
REMARK  6 active torsions:
REMARK  status: ('A' for Active; 'I' for Inactive)
REMARK    1  A    between atoms: C_4  and  C_10
REMARK    2  A    between atoms: C_4  and  C_16
REMARK    3  A    between atoms: C_16  and  C_17
REMARK    4  A    between atoms: C_17  and  N_18
REMARK    5  A    between atoms: N_18  and  C_20
REMARK    6  A    between atoms: N_18  and  C_22
REMARK                            x       y       z     vdW  Elec       q    Type
REMARK                         _______ _______ _______ _____ _____    ______ ____
ROOT
ATOM      1  O   UNL     1      36.043 -26.030 -15.685  0.00  0.00    -0.274 OA
ATOM      2  O   UNL     1      31.978 -24.878 -13.876  0.00  0.00    -0.275 OA
ATOM      3  N   UNL     1      34.035 -25.402 -14.770  0.00  0.00    -0.255 N 
ATOM      4  C   UNL     1      35.694 -23.645 -15.359  0.00  0.00    +0.086 C 
ATOM      5  C   UNL     1      35.017 -22.920 -14.173  0.00  0.00    +0.022 C 
ATOM      6  C   UNL     1      35.305 -25.131 -15.278  0.00  0.00    +0.231 C 
ATOM      7  C   UNL     1      33.504 -23.070 -14.223  0.00  0.00    +0.086 C 
ATOM      8  C   UNL     1      33.094 -24.520 -14.252  0.00  0.00    +0.228 C 
ATOM      9  H   UNL     1      33.769 -26.349 -14.780  0.00  0.00    +0.158 HD
ENDROOT
BRANCH   4  10
ATOM     10  C   UNL     1      35.333 -23.007 -16.712  0.00  0.00    -0.015 C 
ATOM     11  C   UNL     1      36.259 -22.196 -17.360  0.00  0.00    -0.004 C 
ATOM     12  C   UNL     1      34.084 -23.244 -17.275  0.00  0.00    -0.004 C 
ATOM     13  C   UNL     1      35.931 -21.617 -18.587  0.00  0.00    -0.000 C 
ATOM     14  C   UNL     1      33.757 -22.665 -18.501  0.00  0.00    -0.000 C 
ATOM     15  C   UNL     1      34.681 -21.852 -19.157  0.00  0.00    -0.000 C 
ENDBRANCH   4  10
BRANCH   4  16
ATOM     16  C   UNL     1      37.227 -23.564 -15.170  0.00  0.00    -0.010 C 
BRANCH  16  17
ATOM     17  C   UNL     1      37.595 -23.581 -13.693  0.00  0.00    -0.077 C 
BRANCH  17  18
ATOM     18  N   UNL     1      38.551 -24.650 -13.432  0.00  0.00    +0.387 N 
ATOM     19  H   UNL     1      39.302 -24.272 -12.855  0.00  0.00    -0.080 HD
BRANCH  18  20
ATOM     20  C   UNL     1      39.130 -25.141 -14.685  0.00  0.00    -0.077 C 
ATOM     21  C   UNL     1      40.418 -25.906 -14.433  0.00  0.00    -0.025 C 
ENDBRANCH  18  20
BRANCH  18  22
ATOM     22  C   UNL     1      37.913 -25.748 -12.705  0.00  0.00    -0.077 C 
ATOM     23  C   UNL     1      36.707 -25.258 -11.921  0.00  0.00    -0.025 C 
ENDBRANCH  18  22
ENDBRANCH  17  18
ENDBRANCH  16  17
ENDBRANCH   4  16
TORSDOF 6
ENDMDL
MODEL 5
REMARK VINA RESULT:      -6.8      7.588     10.035
REMARK  Name = 102669
REMARK  6 active torsions:
REMARK  status: ('A' for Active; 'I' for Inactive)
REMARK    1  A    between atoms: C_4  and  C_10
REMARK    2  A    between atoms: C_4  and  C_16
REMARK    3  A    between atoms: C_16  and  C_17
REMARK    4  A    between atoms: C_17  and  N_18
REMARK    5  A    between atoms: N_18  and  C_20
REMARK    6  A    between atoms: N_18  and  C_22
REMARK                            x       y       z     vdW  Elec       q    Type
REMARK                         _______ _______ _______ _____ _____    ______ ____
ROOT
ATOM      1  O   UNL     1      36.665 -18.910 -20.428  0.00  0.00    -0.274 OA
ATOM      2  O   UNL     1      33.104 -21.761 -19.871  0.00  0.00    -0.275 OA
ATOM      3  N   UNL     1      34.851 -20.289 -20.163  0.00  0.00    -0.255 N 
ATOM      4  C   UNL     1      34.555 -18.123 -21.349  0.00  0.00    +0.086 C 
ATOM      5  C   UNL     1      33.135 -18.242 -20.752  0.00  0.00    +0.022 C 
ATOM      6  C   UNL     1      35.461 -19.112 -20.596  0.00  0.00    +0.231 C 
ATOM      7  C   UNL     1      32.594 -19.657 -20.887  0.00  0.00    +0.086 C 
ATOM      8  C   UNL     1      33.516 -20.664 -20.248  0.00  0.00    +0.228 C 
ATOM      9  H   UNL     1      35.450 -20.944 -19.738  0.00  0.00    +0.158 HD
ENDROOT
BRANCH   4  10
ATOM     10  C   UNL     1      34.565 -18.346 -22.872  0.00  0.00    -0.015 C 
ATOM     11  C   UNL     1      34.876 -19.603 -23.382  0.00  0.00    -0.004 C 
ATOM     12  C   UNL     1      34.264 -17.291 -23.726  0.00  0.00    -0.004 C 
ATOM     13  C   UNL     1      34.885 -19.805 -24.762  0.00  0.00    -0.000 C 
ATOM     14  C   UNL     1      34.273 -17.494 -25.106  0.00  0.00    -0.000 C 
ATOM     15  C   UNL     1      34.583 -18.751 -25.624  0.00  0.00    -0.000 C 
ENDBRANCH   4  10
BRANCH   4  16
ATOM     16  C   UNL     1      35.091 -16.701 -21.057  0.00  0.00    -0.010 C 
BRANCH  16  17
ATOM     17  C   UNL     1      34.027 -15.848 -20.382  0.00  0.00    -0.077 C 
BRANCH  17  18
ATOM     18  N   UNL     1      33.926 -14.557 -21.052  0.00  0.00    +0.387 N 
ATOM     19  H   UNL     1      34.339 -13.850 -20.445  0.00  0.00    -0.080 HD
BRANCH  18  20
ATOM     20  C   UNL     1      32.524 -14.206 -21.288  0.00  0.00    -0.077 C 
ATOM     21  C   UNL     1      32.112 -13.004 -20.456  0.00  0.00    -0.025 C 
ENDBRANCH  18  20
BRANCH  18  22
ATOM     22  C   UNL     1      34.664 -14.573 -22.315  0.00  0.00    -0.077 C 
ATOM     23  C   UNL     1      33.981 -13.708 -23.361  0.00  0.00    -0.025 C 
ENDBRANCH  18  22
ENDBRANCH  17  18
ENDBRANCH  16  17
ENDBRANCH   4  16
TORSDOF 6
ENDMDL
MODEL 6
REMARK VINA RESULT:      -6.7     15.751     18.365
REMARK  Name = 102669
REMARK  6 active torsions:
REMARK  status: ('A' for Active; 'I' for Inactive)
REMARK    1  A    between atoms: C_4  and  C_10
REMARK    2  A    between atoms: C_4  and  C_16
REMARK    3  A    between atoms: C_16  and  C_17
REMARK    4  A    between atoms: C_17  and  N_18
REMARK    5  A    between atoms: N_18  and  C_20
REMARK    6  A    between atoms: N_18  and  C_22
REMARK                            x       y       z     vdW  Elec       q    Type
REMARK                         _______ _______ _______ _____ _____    ______ ____
ROOT
ATOM      1  O   UNL     1      30.880  -9.558 -22.960  0.00  0.00    -0.274 OA
ATOM      2  O   UNL     1      32.349  -7.276 -19.251  0.00  0.00    -0.275 OA
ATOM      3  N   UNL     1      31.664  -8.410 -21.136  0.00  0.00    -0.255 N 
ATOM      4  C   UNL     1      32.862  -8.191 -23.305  0.00  0.00    +0.086 C 
ATOM      5  C   UNL     1      34.071  -7.987 -22.364  0.00  0.00    +0.022 C 
ATOM      6  C   UNL     1      31.724  -8.805 -22.472  0.00  0.00    +0.231 C 
ATOM      7  C   UNL     1      33.720  -7.072 -21.200  0.00  0.00    +0.086 C 
ATOM      8  C   UNL     1      32.537  -7.595 -20.425  0.00  0.00    +0.228 C 
ATOM      9  H   UNL     1      30.898  -8.757 -20.626  0.00  0.00    +0.158 HD
ENDROOT
BRANCH   4  10
ATOM     10  C   UNL     1      32.448  -6.887 -24.009  0.00  0.00    -0.015 C 
ATOM     11  C   UNL     1      31.195  -6.336 -23.760  0.00  0.00    -0.004 C 
ATOM     12  C   UNL     1      33.330  -6.268 -24.889  0.00  0.00    -0.004 C 
ATOM     13  C   UNL     1      30.820  -5.154 -24.400  0.00  0.00    -0.000 C 
ATOM     14  C   UNL     1      32.955  -5.086 -25.528  0.00  0.00    -0.000 C 
ATOM     15  C   UNL     1      31.700  -4.529 -25.283  0.00  0.00    -0.000 C 
ENDBRANCH   4  10
BRANCH   4  16
ATOM     16  C   UNL     1      33.251  -9.230 -24.382  0.00  0.00    -0.010 C 
BRANCH  16  17
ATOM     17  C   UNL     1      34.631  -9.809 -24.106  0.00  0.00    -0.077 C 
BRANCH  17  18
ATOM     18  N   UNL     1      34.665 -11.216 -24.490  0.00  0.00    +0.387 N 
ATOM     19  H   UNL     1      35.533 -11.620 -24.142  0.00  0.00    -0.080 HD
BRANCH  18  20
ATOM     20  C   UNL     1      34.640 -11.352 -25.948  0.00  0.00    -0.077 C 
ATOM     21  C   UNL     1      35.727 -10.513 -26.597  0.00  0.00    -0.025 C 
ENDBRANCH  18  20
BRANCH  18  22
ATOM     22  C   UNL     1      33.542 -11.940 -23.893  0.00  0.00    -0.077 C 
ATOM     23  C   UNL     1      33.825 -13.432 -23.828  0.00  0.00    -0.025 C 
ENDBRANCH  18  22
ENDBRANCH  17  18
ENDBRANCH  16  17
ENDBRANCH   4  16
TORSDOF 6
ENDMDL
MODEL 7
REMARK VINA RESULT:      -6.7      2.103      4.060
REMARK  Name = 102669
REMARK  6 active torsions:
REMARK  status: ('A' for Active; 'I' for Inactive)
REMARK    1  A    between atoms: C_4  and  C_10
REMARK    2  A    between atoms: C_4  and  C_16
REMARK    3  A    between atoms: C_16  and  C_17
REMARK    4  A    between atoms: C_17  and  N_18
REMARK    5  A    between atoms: N_18  and  C_20
REMARK    6  A    between atoms: N_18  and  C_22
REMARK                            x       y       z     vdW  Elec       q    Type
REMARK                         _______ _______ _______ _____ _____    ______ ____
ROOT
ATOM      1  O   UNL     1      36.400 -27.325 -14.706  0.00  0.00    -0.274 OA
ATOM      2  O   UNL     1      40.894 -26.382 -14.497  0.00  0.00    -0.275 OA
ATOM      3  N   UNL     1      38.632 -26.799 -14.618  0.00  0.00    -0.255 N 
ATOM      4  C   UNL     1      36.960 -24.958 -14.654  0.00  0.00    +0.086 C 
ATOM      5  C   UNL     1      38.114 -24.221 -15.371  0.00  0.00    +0.022 C 
ATOM      6  C   UNL     1      37.280 -26.462 -14.682  0.00  0.00    +0.231 C 
ATOM      7  C   UNL     1      39.448 -24.487 -14.690  0.00  0.00    +0.086 C 
ATOM      8  C   UNL     1      39.741 -25.963 -14.608  0.00  0.00    +0.228 C 
ATOM      9  H   UNL     1      38.825 -27.763 -14.573  0.00  0.00    +0.158 HD
ENDROOT
BRANCH   4  10
ATOM     10  C   UNL     1      36.727 -24.424 -13.229  0.00  0.00    -0.015 C 
ATOM     11  C   UNL     1      35.819 -25.066 -12.393  0.00  0.00    -0.004 C 
ATOM     12  C   UNL     1      37.426 -23.306 -12.789  0.00  0.00    -0.004 C 
ATOM     13  C   UNL     1      35.608 -24.582 -11.101  0.00  0.00    -0.000 C 
ATOM     14  C   UNL     1      37.216 -22.822 -11.497  0.00  0.00    -0.000 C 
ATOM     15  C   UNL     1      36.306 -23.461 -10.654  0.00  0.00    -0.000 C 
ENDBRANCH   4  10
BRANCH   4  16
ATOM     16  C   UNL     1      35.665 -24.751 -15.474  0.00  0.00    -0.010 C 
BRANCH  16  17
ATOM     17  C   UNL     1      35.493 -23.289 -15.860  0.00  0.00    -0.077 C 
BRANCH  17  18
ATOM     18  N   UNL     1      34.075 -22.975 -15.996  0.00  0.00    +0.387 N 
ATOM     19  H   UNL     1      33.975 -21.961 -16.030  0.00  0.00    -0.080 HD
BRANCH  18  20
ATOM     20  C   UNL     1      33.323 -23.478 -14.845  0.00  0.00    -0.077 C 
ATOM     21  C   UNL     1      31.866 -23.058 -14.914  0.00  0.00    -0.025 C 
ENDBRANCH  18  20
BRANCH  18  22
ATOM     22  C   UNL     1      33.539 -23.537 -17.236  0.00  0.00    -0.077 C 
ATOM     23  C   UNL     1      33.589 -22.521 -18.365  0.00  0.00    -0.025 C 
ENDBRANCH  18  22
ENDBRANCH  17  18
ENDBRANCH  16  17
ENDBRANCH   4  16
TORSDOF 6
ENDMDL
MODEL 8
REMARK VINA RESULT:      -6.7      2.641      4.761
REMARK  Name = 102669
REMARK  6 active torsions:
REMARK  status: ('A' for Active; 'I' for Inactive)
REMARK    1  A    between atoms: C_4  and  C_10
REMARK    2  A    between atoms: C_4  and  C_16
REMARK    3  A    between atoms: C_16  and  C_17
REMARK    4  A    between atoms: C_17  and  N_18
REMARK    5  A    between atoms: N_18  and  C_20
REMARK    6  A    between atoms: N_18  and  C_22
REMARK                            x       y       z     vdW  Elec       q    Type
REMARK                         _______ _______ _______ _____ _____    ______ ____
ROOT
ATOM      1  O   UNL     1      38.365 -22.235 -11.993  0.00  0.00    -0.274 OA
ATOM      2  O   UNL     1      35.309 -24.634  -9.537  0.00  0.00    -0.275 OA
ATOM      3  N   UNL     1      36.806 -23.437 -10.814  0.00  0.00    -0.255 N 
ATOM      4  C   UNL     1      36.727 -23.469 -13.301  0.00  0.00    +0.086 C 
ATOM      5  C   UNL     1      35.217 -23.657 -13.029  0.00  0.00    +0.022 C 
ATOM      6  C   UNL     1      37.374 -22.966 -11.999  0.00  0.00    +0.231 C 
ATOM      7  C   UNL     1      34.975 -24.653 -11.905  0.00  0.00    +0.086 C 
ATOM      8  C   UNL     1      35.686 -24.240 -10.641  0.00  0.00    +0.228 C 
ATOM      9  H   UNL     1      37.263 -23.162  -9.988  0.00  0.00    +0.158 HD
ENDROOT
BRANCH   4  10
ATOM     10  C   UNL     1      37.385 -24.753 -13.835  0.00  0.00    -0.015 C 
ATOM     11  C   UNL     1      36.607 -25.707 -14.486  0.00  0.00    -0.004 C 
ATOM     12  C   UNL     1      38.750 -24.952 -13.665  0.00  0.00    -0.004 C 
ATOM     13  C   UNL     1      37.204 -26.871 -14.971  0.00  0.00    -0.000 C 
ATOM     14  C   UNL     1      39.347 -26.116 -14.149  0.00  0.00    -0.000 C 
ATOM     15  C   UNL     1      38.573 -27.076 -14.802  0.00  0.00    -0.000 C 
ENDBRANCH   4  10
BRANCH   4  16
ATOM     16  C   UNL     1      36.899 -22.352 -14.356  0.00  0.00    -0.010 C 
BRANCH  16  17
ATOM     17  C   UNL     1      36.834 -22.921 -15.766  0.00  0.00    -0.077 C 
BRANCH  17  18
ATOM     18  N   UNL     1      36.037 -22.046 -16.618  0.00  0.00    +0.387 N 
ATOM     19  H   UNL     1      35.583 -21.352 -16.026  0.00  0.00    -0.080 HD
BRANCH  18  20
ATOM     20  C   UNL     1      35.002 -22.810 -17.317  0.00  0.00    -0.077 C 
ATOM     21  C   UNL     1      33.941 -23.308 -16.351  0.00  0.00    -0.025 C 
ENDBRANCH  18  20
BRANCH  18  22
ATOM     22  C   UNL     1      36.890 -21.349 -17.582  0.00  0.00    -0.077 C 
ATOM     23  C   UNL     1      36.374 -21.527 -19.000  0.00  0.00    -0.025 C 
ENDBRANCH  18  22
ENDBRANCH  17  18
ENDBRANCH  16  17
ENDBRANCH   4  16
TORSDOF 6
ENDMDL
MODEL 9
REMARK VINA RESULT:      -6.6     16.503     18.922
REMARK  Name = 102669
REMARK  6 active torsions:
REMARK  status: ('A' for Active; 'I' for Inactive)
REMARK    1  A    between atoms: C_4  and  C_10
REMARK    2  A    between atoms: C_4  and  C_16
REMARK    3  A    between atoms: C_16  and  C_17
REMARK    4  A    between atoms: C_17  and  N_18
REMARK    5  A    between atoms: N_18  and  C_20
REMARK    6  A    between atoms: N_18  and  C_22
REMARK                            x       y       z     vdW  Elec       q    Type
REMARK                         _______ _______ _______ _____ _____    ______ ____
ROOT
ATOM      1  O   UNL     1      30.258  -8.206 -23.904  0.00  0.00    -0.274 OA
ATOM      2  O   UNL     1      29.825  -4.152 -21.782  0.00  0.00    -0.275 OA
ATOM      3  N   UNL     1      30.095  -6.190 -22.823  0.00  0.00    -0.255 N 
ATOM      4  C   UNL     1      32.334  -7.242 -23.082  0.00  0.00    +0.086 C 
ATOM      5  C   UNL     1      32.594  -6.495 -21.753  0.00  0.00    +0.022 C 
ATOM      6  C   UNL     1      30.812  -7.287 -23.299  0.00  0.00    +0.231 C 
ATOM      7  C   UNL     1      32.027  -5.084 -21.791  0.00  0.00    +0.086 C 
ATOM      8  C   UNL     1      30.553  -5.090 -22.107  0.00  0.00    +0.228 C 
ATOM      9  H   UNL     1      29.132  -6.196 -23.021  0.00  0.00    +0.158 HD
ENDROOT
BRANCH   4  10
ATOM     10  C   UNL     1      33.087  -6.604 -24.263  0.00  0.00    -0.015 C 
ATOM     11  C   UNL     1      34.420  -6.931 -24.488  0.00  0.00    -0.004 C 
ATOM     12  C   UNL     1      32.429  -5.705 -25.095  0.00  0.00    -0.004 C 
ATOM     13  C   UNL     1      35.102  -6.352 -25.558  0.00  0.00    -0.000 C 
ATOM     14  C   UNL     1      33.111  -5.126 -26.166  0.00  0.00    -0.000 C 
ATOM     15  C   UNL     1      34.448  -5.450 -26.397  0.00  0.00    -0.000 C 
ENDBRANCH   4  10
BRANCH   4  16
ATOM     16  C   UNL     1      32.816  -8.703 -22.923  0.00  0.00    -0.010 C 
BRANCH  16  17
ATOM     17  C   UNL     1      32.354  -9.287 -21.595  0.00  0.00    -0.077 C 
BRANCH  17  18
ATOM     18  N   UNL     1      31.480 -10.430 -21.833  0.00  0.00    +0.387 N 
ATOM     19  H   UNL     1      30.649 -10.098 -22.322  0.00  0.00    -0.080 HD
BRANCH  18  20
ATOM     20  C   UNL     1      31.064 -11.032 -20.565  0.00  0.00    -0.077 C 
ATOM     21  C   UNL     1      31.422 -10.141 -19.389  0.00  0.00    -0.025 C 
ENDBRANCH  18  20
BRANCH  18  22
ATOM     22  C   UNL     1      32.148 -11.424 -22.672  0.00  0.00    -0.077 C 
ATOM     23  C   UNL     1      32.082 -12.806 -22.044  0.00  0.00    -0.025 C 
ENDBRANCH  18  22
ENDBRANCH  17  18
ENDBRANCH  16  17
ENDBRANCH   4  16
TORSDOF 6
ENDMDL
