MODEL 1
REMARK VINA RESULT:      -7.3      0.000      0.000
REMARK  Name = 49866858
REMARK  13 active torsions:
REMARK  status: ('A' for Active; 'I' for Inactive)
REMARK    1  A    between atoms: N_1  and  C_18
REMARK    2  A    between atoms: C_3  and  SG_7
REMARK    3  A    between atoms: SG_7  and  CB_8
REMARK    4  A    between atoms: CB_8  and  CA_9
REMARK    5  A    between atoms: CA_9  and  N_10
REMARK    6  A    between atoms: CA_9  and  C_15
REMARK    7  A    between atoms: C_15  and  O_16
REMARK    8  A    between atoms: C_18  and  C_19
REMARK    9  A    between atoms: C_19  and  C_20
REMARK   10  A    between atoms: C_20  and  CA_21
REMARK   11  A    between atoms: CA_21  and  N_22
REMARK   12  A    between atoms: CA_21  and  C_27
REMARK   13  A    between atoms: C_27  and  O_28
REMARK                            x       y       z     vdW  Elec       q    Type
REMARK                         _______ _______ _______ _____ _____    ______ ____
ROOT
ATOM      1  N   CYS A   1      34.108 -23.260 -14.339  0.00  0.00    -0.315 N 
ATOM      2  N   CYS A   1      34.985 -25.428 -14.604  0.00  0.00    -0.382 N 
ATOM      3  C   CYS A   1      35.100 -24.104 -14.623  0.00  0.00    +0.126 C 
ATOM      4  H   CYS A   1      34.295 -22.294 -14.376  0.00  0.00    +0.149 HD
ATOM      5  H   CYS A   1      35.761 -25.992 -14.825  0.00  0.00    +0.158 HD
ATOM      6  H   CYS A   1      34.125 -25.845 -14.368  0.00  0.00    +0.158 HD
ENDROOT
BRANCH   3   7
ATOM      7  SG  CYS A   1      36.647 -23.404 -15.027  0.00  0.00    -0.084 S 
BRANCH   7   8
ATOM      8  CB  CYS A   1      37.745 -24.429 -14.021  0.00  0.00    +0.054 C 
BRANCH   8   9
ATOM      9  CA  CYS A   1      38.396 -25.545 -14.840  0.00  0.00    +0.047 C 
BRANCH   9  10
ATOM     10  N   CYS A   1      38.116 -26.845 -14.228  0.00  0.00    +0.389 N 
ATOM     11  H1  CYS A   1      38.907 -27.471 -14.383  0.00  0.00    -0.088 HD
ATOM     12  H2  CYS A   1      37.278 -27.246 -14.650  0.00  0.00    -0.088 HD
ATOM     13  H3  CYS A   1      37.968 -26.725 -13.227  0.00  0.00    -0.088 HD
ENDBRANCH   9  10
BRANCH   9  15
ATOM     14  OXT CYS A   1      40.567 -24.793 -14.084  0.00  0.00    -0.253 OA
ATOM     15  C   CYS A   1      39.903 -25.394 -14.921  0.00  0.00    +0.294 C 
BRANCH  15  16
ATOM     16  O   CYS A   1      40.451 -25.957 -16.029  0.00  0.00    -0.482 OA
ATOM     17  H   CYS A   1      40.618 -25.433 -16.786  0.00  0.00    +0.295 HD
ENDBRANCH  15  16
ENDBRANCH   9  15
ENDBRANCH   8   9
ENDBRANCH   7   8
ENDBRANCH   3   7
BRANCH   1  18
ATOM     18  C   CYS A   1      32.756 -23.687 -13.975  0.00  0.00    +0.088 C 
BRANCH  18  19
ATOM     19  C   CYS A   1      31.735 -22.814 -14.694  0.00  0.00    +0.020 C 
BRANCH  19  20
ATOM     20  C   CYS A   1      30.915 -23.610 -15.721  0.00  0.00    -0.009 C 
BRANCH  20  21
ATOM     21  CA  CYS A   1      29.406 -23.671 -15.438  0.00  0.00    +0.036 C 
BRANCH  21  22
ATOM     22  N   CYS A   1      29.000 -24.978 -14.919  0.00  0.00    +0.389 N 
ATOM     23  H1  CYS A   1      29.574 -25.706 -15.345  0.00  0.00    -0.088 HD
ATOM     24  H2  CYS A   1      28.019 -25.142 -15.145  0.00  0.00    -0.088 HD
ATOM     25  H3  CYS A   1      29.124 -24.996 -13.907  0.00  0.00    -0.088 HD
ENDBRANCH  21  22
BRANCH  21  27
ATOM     26  OXT CYS A   1      27.929 -24.173 -17.314  0.00  0.00    -0.253 OA
ATOM     27  C   CYS A   1      28.577 -23.359 -16.671  0.00  0.00    +0.293 C 
BRANCH  27  28
ATOM     28  O   CYS A   1      28.630 -22.041 -16.999  0.00  0.00    -0.482 OA
ATOM     29  H   CYS A   1      29.208 -21.465 -16.536  0.00  0.00    +0.295 HD
ENDBRANCH  27  28
ENDBRANCH  21  27
ENDBRANCH  20  21
ENDBRANCH  19  20
ENDBRANCH  18  19
ENDBRANCH   1  18
TORSDOF 13
ENDMDL
MODEL 2
REMARK VINA RESULT:      -7.2      1.692      1.822
REMARK  Name = 49866858
REMARK  13 active torsions:
REMARK  status: ('A' for Active; 'I' for Inactive)
REMARK    1  A    between atoms: N_1  and  C_18
REMARK    2  A    between atoms: C_3  and  SG_7
REMARK    3  A    between atoms: SG_7  and  CB_8
REMARK    4  A    between atoms: CB_8  and  CA_9
REMARK    5  A    between atoms: CA_9  and  N_10
REMARK    6  A    between atoms: CA_9  and  C_15
REMARK    7  A    between atoms: C_15  and  O_16
REMARK    8  A    between atoms: C_18  and  C_19
REMARK    9  A    between atoms: C_19  and  C_20
REMARK   10  A    between atoms: C_20  and  CA_21
REMARK   11  A    between atoms: CA_21  and  N_22
REMARK   12  A    between atoms: CA_21  and  C_27
REMARK   13  A    between atoms: C_27  and  O_28
REMARK                            x       y       z     vdW  Elec       q    Type
REMARK                         _______ _______ _______ _____ _____    ______ ____
ROOT
ATOM      1  N   CYS A   1      33.877 -23.353 -14.361  0.00  0.00    -0.315 N 
ATOM      2  N   CYS A   1      34.956 -25.421 -14.678  0.00  0.00    -0.382 N 
ATOM      3  C   CYS A   1      34.970 -24.105 -14.501  0.00  0.00    +0.126 C 
ATOM      4  H   CYS A   1      33.994 -22.384 -14.229  0.00  0.00    +0.149 HD
ATOM      5  H   CYS A   1      35.804 -25.914 -14.774  0.00  0.00    +0.158 HD
ATOM      6  H   CYS A   1      34.099 -25.905 -14.714  0.00  0.00    +0.158 HD
ENDROOT
BRANCH   3   7
ATOM      7  SG  CYS A   1      36.510 -23.287 -14.424  0.00  0.00    -0.084 S 
BRANCH   7   8
ATOM      8  CB  CYS A   1      37.632 -24.664 -14.764  0.00  0.00    +0.054 C 
BRANCH   8   9
ATOM      9  CA  CYS A   1      38.509 -24.998 -13.557  0.00  0.00    +0.047 C 
BRANCH   9  10
ATOM     10  N   CYS A   1      39.382 -26.131 -13.869  0.00  0.00    +0.389 N 
ATOM     11  H1  CYS A   1      39.011 -26.976 -13.432  0.00  0.00    -0.088 HD
ATOM     12  H2  CYS A   1      40.319 -25.948 -13.512  0.00  0.00    -0.088 HD
ATOM     13  H3  CYS A   1      39.422 -26.261 -14.880  0.00  0.00    -0.088 HD
ENDBRANCH   9  10
BRANCH   9  15
ATOM     14  OXT CYS A   1      37.766 -24.787 -11.265  0.00  0.00    -0.253 OA
ATOM     15  C   CYS A   1      37.690 -25.376 -12.338  0.00  0.00    +0.294 C 
BRANCH  15  16
ATOM     16  O   CYS A   1      36.886 -26.454 -12.529  0.00  0.00    -0.482 OA
ATOM     17  H   CYS A   1      36.123 -26.569 -11.999  0.00  0.00    +0.295 HD
ENDBRANCH  15  16
ENDBRANCH   9  15
ENDBRANCH   8   9
ENDBRANCH   7   8
ENDBRANCH   3   7
BRANCH   1  18
ATOM     18  C   CYS A   1      32.515 -23.887 -14.395  0.00  0.00    +0.088 C 
BRANCH  18  19
ATOM     19  C   CYS A   1      31.546 -22.786 -14.807  0.00  0.00    +0.020 C 
BRANCH  19  20
ATOM     20  C   CYS A   1      30.633 -23.223 -15.964  0.00  0.00    -0.009 C 
BRANCH  20  21
ATOM     21  CA  CYS A   1      29.153 -23.396 -15.590  0.00  0.00    +0.036 C 
BRANCH  21  22
ATOM     22  N   CYS A   1      28.867 -24.745 -15.102  0.00  0.00    +0.389 N 
ATOM     23  H1  CYS A   1      28.772 -25.380 -15.894  0.00  0.00    -0.088 HD
ATOM     24  H2  CYS A   1      27.998 -24.735 -14.566  0.00  0.00    -0.088 HD
ATOM     25  H3  CYS A   1      29.631 -25.059 -14.503  0.00  0.00    -0.088 HD
ENDBRANCH  21  22
BRANCH  21  27
ATOM     26  OXT CYS A   1      27.813 -23.915 -17.562  0.00  0.00    -0.253 OA
ATOM     27  C   CYS A   1      28.227 -23.094 -16.755  0.00  0.00    +0.293 C 
BRANCH  27  28
ATOM     28  O   CYS A   1      27.895 -21.777 -16.813  0.00  0.00    -0.482 OA
ATOM     29  H   CYS A   1      28.544 -21.140 -17.041  0.00  0.00    +0.295 HD
ENDBRANCH  27  28
ENDBRANCH  21  27
ENDBRANCH  20  21
ENDBRANCH  19  20
ENDBRANCH  18  19
ENDBRANCH   1  18
TORSDOF 13
ENDMDL
MODEL 3
REMARK VINA RESULT:      -7.1      3.293      3.759
REMARK  Name = 49866858
REMARK  13 active torsions:
REMARK  status: ('A' for Active; 'I' for Inactive)
REMARK    1  A    between atoms: N_1  and  C_18
REMARK    2  A    between atoms: C_3  and  SG_7
REMARK    3  A    between atoms: SG_7  and  CB_8
REMARK    4  A    between atoms: CB_8  and  CA_9
REMARK    5  A    between atoms: CA_9  and  N_10
REMARK    6  A    between atoms: CA_9  and  C_15
REMARK    7  A    between atoms: C_15  and  O_16
REMARK    8  A    between atoms: C_18  and  C_19
REMARK    9  A    between atoms: C_19  and  C_20
REMARK   10  A    between atoms: C_20  and  CA_21
REMARK   11  A    between atoms: CA_21  and  N_22
REMARK   12  A    between atoms: CA_21  and  C_27
REMARK   13  A    between atoms: C_27  and  O_28
REMARK                            x       y       z     vdW  Elec       q    Type
REMARK                         _______ _______ _______ _____ _____    ______ ____
ROOT
ATOM      1  N   CYS A   1      34.247 -23.146 -16.147  0.00  0.00    -0.315 N 
ATOM      2  N   CYS A   1      34.587 -25.046 -14.798  0.00  0.00    -0.382 N 
ATOM      3  C   CYS A   1      34.976 -23.881 -15.306  0.00  0.00    +0.126 C 
ATOM      4  H   CYS A   1      34.623 -22.293 -16.463  0.00  0.00    +0.149 HD
ATOM      5  H   CYS A   1      35.178 -25.536 -14.181  0.00  0.00    +0.158 HD
ATOM      6  H   CYS A   1      33.709 -25.420 -15.040  0.00  0.00    +0.158 HD
ENDROOT
BRANCH   3   7
ATOM      7  SG  CYS A   1      36.532 -23.243 -14.839  0.00  0.00    -0.084 S 
BRANCH   7   8
ATOM      8  CB  CYS A   1      36.927 -24.324 -13.444  0.00  0.00    +0.054 C 
BRANCH   8   9
ATOM      9  CA  CYS A   1      36.819 -23.592 -12.105  0.00  0.00    +0.047 C 
BRANCH   9  10
ATOM     10  N   CYS A   1      38.132 -23.524 -11.463  0.00  0.00    +0.389 N 
ATOM     11  H1  CYS A   1      38.523 -22.590 -11.588  0.00  0.00    -0.088 HD
ATOM     12  H2  CYS A   1      38.755 -24.212 -11.888  0.00  0.00    -0.088 HD
ATOM     13  H3  CYS A   1      38.036 -23.723 -10.468  0.00  0.00    -0.088 HD
ENDBRANCH   9  10
BRANCH   9  15
ATOM     14  OXT CYS A   1      36.018 -24.269  -9.925  0.00  0.00    -0.253 OA
ATOM     15  C   CYS A   1      35.876 -24.291 -11.143  0.00  0.00    +0.294 C 
BRANCH  15  16
ATOM     16  O   CYS A   1      34.877 -24.976 -11.755  0.00  0.00    -0.482 OA
ATOM     17  H   CYS A   1      34.463 -25.692 -11.315  0.00  0.00    +0.295 HD
ENDBRANCH  15  16
ENDBRANCH   9  15
ENDBRANCH   8   9
ENDBRANCH   7   8
ENDBRANCH   3   7
BRANCH   1  18
ATOM     18  C   CYS A   1      32.921 -23.538 -16.628  0.00  0.00    +0.088 C 
BRANCH  18  19
ATOM     19  C   CYS A   1      31.863 -23.086 -15.629  0.00  0.00    +0.020 C 
BRANCH  19  20
ATOM     20  C   CYS A   1      30.581 -23.929 -15.723  0.00  0.00    -0.009 C 
BRANCH  20  21
ATOM     21  CA  CYS A   1      30.492 -25.087 -14.717  0.00  0.00    +0.036 C 
BRANCH  21  22
ATOM     22  N   CYS A   1      29.105 -25.445 -14.418  0.00  0.00    +0.389 N 
ATOM     23  H1  CYS A   1      28.963 -26.437 -14.603  0.00  0.00    -0.088 HD
ATOM     24  H2  CYS A   1      28.479 -24.895 -15.006  0.00  0.00    -0.088 HD
ATOM     25  H3  CYS A   1      28.907 -25.250 -13.436  0.00  0.00    -0.088 HD
ENDBRANCH  21  22
BRANCH  21  27
ATOM     26  OXT CYS A   1      32.318 -25.167 -13.100  0.00  0.00    -0.253 OA
ATOM     27  C   CYS A   1      31.204 -24.770 -13.414  0.00  0.00    +0.293 C 
BRANCH  27  28
ATOM     28  O   CYS A   1      30.453 -23.977 -12.604  0.00  0.00    -0.482 OA
ATOM     29  H   CYS A   1      29.871 -24.363 -11.978  0.00  0.00    +0.295 HD
ENDBRANCH  27  28
ENDBRANCH  21  27
ENDBRANCH  20  21
ENDBRANCH  19  20
ENDBRANCH  18  19
ENDBRANCH   1  18
TORSDOF 13
ENDMDL
MODEL 4
REMARK VINA RESULT:      -7.1      2.785      3.212
REMARK  Name = 49866858
REMARK  13 active torsions:
REMARK  status: ('A' for Active; 'I' for Inactive)
REMARK    1  A    between atoms: N_1  and  C_18
REMARK    2  A    between atoms: C_3  and  SG_7
REMARK    3  A    between atoms: SG_7  and  CB_8
REMARK    4  A    between atoms: CB_8  and  CA_9
REMARK    5  A    between atoms: CA_9  and  N_10
REMARK    6  A    between atoms: CA_9  and  C_15
REMARK    7  A    between atoms: C_15  and  O_16
REMARK    8  A    between atoms: C_18  and  C_19
REMARK    9  A    between atoms: C_19  and  C_20
REMARK   10  A    between atoms: C_20  and  CA_21
REMARK   11  A    between atoms: CA_21  and  N_22
REMARK   12  A    between atoms: CA_21  and  C_27
REMARK   13  A    between atoms: C_27  and  O_28
REMARK                            x       y       z     vdW  Elec       q    Type
REMARK                         _______ _______ _______ _____ _____    ______ ____
ROOT
ATOM      1  N   CYS A   1      33.730 -23.602 -14.132  0.00  0.00    -0.315 N 
ATOM      2  N   CYS A   1      34.231 -23.479 -16.429  0.00  0.00    -0.382 N 
ATOM      3  C   CYS A   1      34.556 -23.347 -15.147  0.00  0.00    +0.126 C 
ATOM      4  H   CYS A   1      34.068 -23.478 -13.216  0.00  0.00    +0.149 HD
ATOM      5  H   CYS A   1      34.893 -23.273 -17.128  0.00  0.00    +0.158 HD
ATOM      6  H   CYS A   1      33.329 -23.783 -16.679  0.00  0.00    +0.158 HD
ENDROOT
BRANCH   3   7
ATOM      7  SG  CYS A   1      36.171 -22.823 -14.744  0.00  0.00    -0.084 S 
BRANCH   7   8
ATOM      8  CB  CYS A   1      36.640 -24.094 -13.546  0.00  0.00    +0.054 C 
BRANCH   8   9
ATOM      9  CA  CYS A   1      36.744 -23.532 -12.127  0.00  0.00    +0.047 C 
BRANCH   9  10
ATOM     10  N   CYS A   1      38.113 -23.676 -11.629  0.00  0.00    +0.389 N 
ATOM     11  H1  CYS A   1      38.674 -22.884 -11.946  0.00  0.00    -0.088 HD
ATOM     12  H2  CYS A   1      38.516 -24.542 -11.987  0.00  0.00    -0.088 HD
ATOM     13  H3  CYS A   1      38.104 -23.700 -10.610  0.00  0.00    -0.088 HD
ENDBRANCH   9  10
BRANCH   9  15
ATOM     14  OXT CYS A   1      34.820 -24.859 -11.503  0.00  0.00    -0.253 OA
ATOM     15  C   CYS A   1      35.827 -24.252 -11.156  0.00  0.00    +0.294 C 
BRANCH  15  16
ATOM     16  O   CYS A   1      36.204 -24.135  -9.857  0.00  0.00    -0.482 OA
ATOM     17  H   CYS A   1      36.924 -23.582  -9.626  0.00  0.00    +0.295 HD
ENDBRANCH  15  16
ENDBRANCH   9  15
ENDBRANCH   8   9
ENDBRANCH   7   8
ENDBRANCH   3   7
BRANCH   1  18
ATOM     18  C   CYS A   1      32.349 -24.055 -14.303  0.00  0.00    +0.088 C 
BRANCH  18  19
ATOM     19  C   CYS A   1      31.450 -22.857 -14.578  0.00  0.00    +0.020 C 
BRANCH  19  20
ATOM     20  C   CYS A   1      30.583 -23.059 -15.831  0.00  0.00    -0.009 C 
BRANCH  20  21
ATOM     21  CA  CYS A   1      29.096 -23.326 -15.554  0.00  0.00    +0.036 C 
BRANCH  21  22
ATOM     22  N   CYS A   1      28.850 -24.721 -15.187  0.00  0.00    +0.389 N 
ATOM     23  H1  CYS A   1      27.849 -24.912 -15.229  0.00  0.00    -0.088 HD
ATOM     24  H2  CYS A   1      29.190 -24.887 -14.239  0.00  0.00    -0.088 HD
ATOM     25  H3  CYS A   1      29.342 -25.335 -15.836  0.00  0.00    -0.088 HD
ENDBRANCH  21  22
BRANCH  21  27
ATOM     26  OXT CYS A   1      27.914 -21.841 -17.088  0.00  0.00    -0.253 OA
ATOM     27  C   CYS A   1      28.218 -22.974 -16.742  0.00  0.00    +0.293 C 
BRANCH  27  28
ATOM     28  O   CYS A   1      27.789 -24.083 -17.403  0.00  0.00    -0.482 OA
ATOM     29  H   CYS A   1      27.890 -24.142 -18.333  0.00  0.00    +0.295 HD
ENDBRANCH  27  28
ENDBRANCH  21  27
ENDBRANCH  20  21
ENDBRANCH  19  20
ENDBRANCH  18  19
ENDBRANCH   1  18
TORSDOF 13
ENDMDL
MODEL 5
REMARK VINA RESULT:      -7.1      3.116      8.410
REMARK  Name = 49866858
REMARK  13 active torsions:
REMARK  status: ('A' for Active; 'I' for Inactive)
REMARK    1  A    between atoms: N_1  and  C_18
REMARK    2  A    between atoms: C_3  and  SG_7
REMARK    3  A    between atoms: SG_7  and  CB_8
REMARK    4  A    between atoms: CB_8  and  CA_9
REMARK    5  A    between atoms: CA_9  and  N_10
REMARK    6  A    between atoms: CA_9  and  C_15
REMARK    7  A    between atoms: C_15  and  O_16
REMARK    8  A    between atoms: C_18  and  C_19
REMARK    9  A    between atoms: C_19  and  C_20
REMARK   10  A    between atoms: C_20  and  CA_21
REMARK   11  A    between atoms: CA_21  and  N_22
REMARK   12  A    between atoms: CA_21  and  C_27
REMARK   13  A    between atoms: C_27  and  O_28
REMARK                            x       y       z     vdW  Elec       q    Type
REMARK                         _______ _______ _______ _____ _____    ______ ____
ROOT
ATOM      1  N   CYS A   1      33.612 -23.135 -14.965  0.00  0.00    -0.315 N 
ATOM      2  N   CYS A   1      32.963 -25.105 -13.851  0.00  0.00    -0.382 N 
ATOM      3  C   CYS A   1      32.747 -23.857 -14.253  0.00  0.00    +0.126 C 
ATOM      4  H   CYS A   1      33.355 -22.219 -15.218  0.00  0.00    +0.149 HD
ATOM      5  H   CYS A   1      32.278 -25.580 -13.327  0.00  0.00    +0.158 HD
ATOM      6  H   CYS A   1      33.809 -25.555 -14.078  0.00  0.00    +0.158 HD
ENDROOT
BRANCH   3   7
ATOM      7  SG  CYS A   1      31.227 -23.100 -13.846  0.00  0.00    -0.084 S 
BRANCH   7   8
ATOM      8  CB  CYS A   1      30.461 -23.000 -15.481  0.00  0.00    +0.054 C 
BRANCH   8   9
ATOM      9  CA  CYS A   1      28.979 -23.376 -15.443  0.00  0.00    +0.047 C 
BRANCH   9  10
ATOM     10  N   CYS A   1      28.833 -24.824 -15.285  0.00  0.00    +0.389 N 
ATOM     11  H1  CYS A   1      28.481 -25.030 -14.349  0.00  0.00    -0.088 HD
ATOM     12  H2  CYS A   1      29.739 -25.273 -15.414  0.00  0.00    -0.088 HD
ATOM     13  H3  CYS A   1      28.176 -25.177 -15.980  0.00  0.00    -0.088 HD
ENDBRANCH   9  10
BRANCH   9  15
ATOM     14  OXT CYS A   1      28.043 -21.815 -17.036  0.00  0.00    -0.253 OA
ATOM     15  C   CYS A   1      28.252 -22.980 -16.714  0.00  0.00    +0.294 C 
BRANCH  15  16
ATOM     16  O   CYS A   1      27.819 -24.035 -17.450  0.00  0.00    -0.482 OA
ATOM     17  H   CYS A   1      27.232 -24.659 -17.072  0.00  0.00    +0.295 HD
ENDBRANCH  15  16
ENDBRANCH   9  15
ENDBRANCH   8   9
ENDBRANCH   7   8
ENDBRANCH   3   7
BRANCH   1  18
ATOM     18  C   CYS A   1      34.923 -23.627 -15.390  0.00  0.00    +0.088 C 
BRANCH  18  19
ATOM     19  C   CYS A   1      36.004 -23.036 -14.494  0.00  0.00    +0.020 C 
BRANCH  19  20
ATOM     20  C   CYS A   1      36.514 -24.051 -13.458  0.00  0.00    -0.009 C 
BRANCH  20  21
ATOM     21  CA  CYS A   1      36.662 -23.500 -12.031  0.00  0.00    +0.036 C 
BRANCH  21  22
ATOM     22  N   CYS A   1      38.056 -23.503 -11.586  0.00  0.00    +0.389 N 
ATOM     23  H1  CYS A   1      38.308 -22.572 -11.254  0.00  0.00    -0.088 HD
ATOM     24  H2  CYS A   1      38.660 -23.762 -12.366  0.00  0.00    -0.088 HD
ATOM     25  H3  CYS A   1      38.170 -24.177 -10.829  0.00  0.00    -0.088 HD
ENDBRANCH  21  22
BRANCH  21  27
ATOM     26  OXT CYS A   1      35.993 -24.271  -9.814  0.00  0.00    -0.253 OA
ATOM     27  C   CYS A   1      35.830 -24.278 -11.027  0.00  0.00    +0.293 C 
BRANCH  27  28
ATOM     28  O   CYS A   1      34.855 -25.007 -11.631  0.00  0.00    -0.482 OA
ATOM     29  H   CYS A   1      34.891 -25.165 -12.554  0.00  0.00    +0.295 HD
ENDBRANCH  27  28
ENDBRANCH  21  27
ENDBRANCH  20  21
ENDBRANCH  19  20
ENDBRANCH  18  19
ENDBRANCH   1  18
TORSDOF 13
ENDMDL
MODEL 6
REMARK VINA RESULT:      -7.1      1.978      2.445
REMARK  Name = 49866858
REMARK  13 active torsions:
REMARK  status: ('A' for Active; 'I' for Inactive)
REMARK    1  A    between atoms: N_1  and  C_18
REMARK    2  A    between atoms: C_3  and  SG_7
REMARK    3  A    between atoms: SG_7  and  CB_8
REMARK    4  A    between atoms: CB_8  and  CA_9
REMARK    5  A    between atoms: CA_9  and  N_10
REMARK    6  A    between atoms: CA_9  and  C_15
REMARK    7  A    between atoms: C_15  and  O_16
REMARK    8  A    between atoms: C_18  and  C_19
REMARK    9  A    between atoms: C_19  and  C_20
REMARK   10  A    between atoms: C_20  and  CA_21
REMARK   11  A    between atoms: CA_21  and  N_22
REMARK   12  A    between atoms: CA_21  and  C_27
REMARK   13  A    between atoms: C_27  and  O_28
REMARK                            x       y       z     vdW  Elec       q    Type
REMARK                         _______ _______ _______ _____ _____    ______ ____
ROOT
ATOM      1  N   CYS A   1      32.531 -25.048 -14.254  0.00  0.00    -0.315 N 
ATOM      2  N   CYS A   1      32.733 -22.705 -14.151  0.00  0.00    -0.382 N 
ATOM      3  C   CYS A   1      33.187 -23.909 -14.482  0.00  0.00    +0.126 C 
ATOM      4  H   CYS A   1      32.951 -25.891 -14.543  0.00  0.00    +0.149 HD
ATOM      5  H   CYS A   1      33.272 -21.904 -14.350  0.00  0.00    +0.158 HD
ATOM      6  H   CYS A   1      31.859 -22.612 -13.707  0.00  0.00    +0.158 HD
ENDROOT
BRANCH   3   7
ATOM      7  SG  CYS A   1      34.733 -24.030 -15.284  0.00  0.00    -0.084 S 
BRANCH   7   8
ATOM      8  CB  CYS A   1      35.793 -24.481 -13.891  0.00  0.00    +0.054 C 
BRANCH   8   9
ATOM      9  CA  CYS A   1      36.779 -25.591 -14.258  0.00  0.00    +0.047 C 
BRANCH   9  10
ATOM     10  N   CYS A   1      36.063 -26.725 -14.844  0.00  0.00    +0.389 N 
ATOM     11  H1  CYS A   1      35.059 -26.599 -14.709  0.00  0.00    -0.088 HD
ATOM     12  H2  CYS A   1      36.361 -27.587 -14.388  0.00  0.00    -0.088 HD
ATOM     13  H3  CYS A   1      36.268 -26.779 -15.841  0.00  0.00    -0.088 HD
ENDBRANCH   9  10
BRANCH   9  15
ATOM     14  OXT CYS A   1      36.996 -26.464 -12.013  0.00  0.00    -0.253 OA
ATOM     15  C   CYS A   1      37.540 -26.106 -13.051  0.00  0.00    +0.294 C 
BRANCH  15  16
ATOM     16  O   CYS A   1      38.889 -26.102 -13.211  0.00  0.00    -0.482 OA
ATOM     17  H   CYS A   1      39.260 -26.252 -14.057  0.00  0.00    +0.295 HD
ENDBRANCH  15  16
ENDBRANCH   9  15
ENDBRANCH   8   9
ENDBRANCH   7   8
ENDBRANCH   3   7
BRANCH   1  18
ATOM     18  C   CYS A   1      31.224 -25.116 -13.600  0.00  0.00    +0.088 C 
BRANCH  18  19
ATOM     19  C   CYS A   1      30.138 -25.312 -14.650  0.00  0.00    +0.020 C 
BRANCH  19  20
ATOM     20  C   CYS A   1      29.463 -23.986 -15.038  0.00  0.00    -0.009 C 
BRANCH  20  21
ATOM     21  CA  CYS A   1      29.537 -23.635 -16.531  0.00  0.00    +0.036 C 
BRANCH  21  22
ATOM     22  N   CYS A   1      30.575 -22.641 -16.809  0.00  0.00    +0.389 N 
ATOM     23  H1  CYS A   1      30.199 -21.705 -16.657  0.00  0.00    -0.088 HD
ATOM     24  H2  CYS A   1      30.881 -22.732 -17.778  0.00  0.00    -0.088 HD
ATOM     25  H3  CYS A   1      31.368 -22.794 -16.186  0.00  0.00    -0.088 HD
ENDBRANCH  21  22
BRANCH  21  27
ATOM     26  OXT CYS A   1      27.397 -23.775 -17.697  0.00  0.00    -0.253 OA
ATOM     27  C   CYS A   1      28.213 -23.117 -17.065  0.00  0.00    +0.293 C 
BRANCH  27  28
ATOM     28  O   CYS A   1      28.021 -21.806 -16.762  0.00  0.00    -0.482 OA
ATOM     29  H   CYS A   1      28.134 -21.150 -17.423  0.00  0.00    +0.295 HD
ENDBRANCH  27  28
ENDBRANCH  21  27
ENDBRANCH  20  21
ENDBRANCH  19  20
ENDBRANCH  18  19
ENDBRANCH   1  18
TORSDOF 13
ENDMDL
MODEL 7
REMARK VINA RESULT:      -7.1      1.740      1.877
REMARK  Name = 49866858
REMARK  13 active torsions:
REMARK  status: ('A' for Active; 'I' for Inactive)
REMARK    1  A    between atoms: N_1  and  C_18
REMARK    2  A    between atoms: C_3  and  SG_7
REMARK    3  A    between atoms: SG_7  and  CB_8
REMARK    4  A    between atoms: CB_8  and  CA_9
REMARK    5  A    between atoms: CA_9  and  N_10
REMARK    6  A    between atoms: CA_9  and  C_15
REMARK    7  A    between atoms: C_15  and  O_16
REMARK    8  A    between atoms: C_18  and  C_19
REMARK    9  A    between atoms: C_19  and  C_20
REMARK   10  A    between atoms: C_20  and  CA_21
REMARK   11  A    between atoms: CA_21  and  N_22
REMARK   12  A    between atoms: CA_21  and  C_27
REMARK   13  A    between atoms: C_27  and  O_28
REMARK                            x       y       z     vdW  Elec       q    Type
REMARK                         _______ _______ _______ _____ _____    ______ ____
ROOT
ATOM      1  N   CYS A   1      33.526 -22.991 -14.660  0.00  0.00    -0.315 N 
ATOM      2  N   CYS A   1      34.314 -25.186 -14.338  0.00  0.00    -0.382 N 
ATOM      3  C   CYS A   1      34.490 -23.912 -14.671  0.00  0.00    +0.126 C 
ATOM      4  H   CYS A   1      33.760 -22.071 -14.920  0.00  0.00    +0.149 HD
ATOM      5  H   CYS A   1      35.073 -25.813 -14.369  0.00  0.00    +0.158 HD
ATOM      6  H   CYS A   1      33.424 -25.504 -14.060  0.00  0.00    +0.158 HD
ENDROOT
BRANCH   3   7
ATOM      7  SG  CYS A   1      36.087 -23.384 -15.140  0.00  0.00    -0.084 S 
BRANCH   7   8
ATOM      8  CB  CYS A   1      36.993 -23.667 -13.602  0.00  0.00    +0.054 C 
BRANCH   8   9
ATOM      9  CA  CYS A   1      37.879 -24.912 -13.681  0.00  0.00    +0.047 C 
BRANCH   9  10
ATOM     10  N   CYS A   1      38.143 -25.252 -15.079  0.00  0.00    +0.389 N 
ATOM     11  H1  CYS A   1      38.872 -25.964 -15.124  0.00  0.00    -0.088 HD
ATOM     12  H2  CYS A   1      38.452 -24.419 -15.580  0.00  0.00    -0.088 HD
ATOM     13  H3  CYS A   1      37.291 -25.611 -15.510  0.00  0.00    -0.088 HD
ENDBRANCH   9  10
BRANCH   9  15
ATOM     14  OXT CYS A   1      37.117 -26.255 -11.819  0.00  0.00    -0.253 OA
ATOM     15  C   CYS A   1      37.231 -26.120 -13.032  0.00  0.00    +0.294 C 
BRANCH  15  16
ATOM     16  O   CYS A   1      36.817 -27.062 -13.918  0.00  0.00    -0.482 OA
ATOM     17  H   CYS A   1      36.979 -26.948 -14.833  0.00  0.00    +0.295 HD
ENDBRANCH  15  16
ENDBRANCH   9  15
ENDBRANCH   8   9
ENDBRANCH   7   8
ENDBRANCH   3   7
BRANCH   1  18
ATOM     18  C   CYS A   1      32.139 -23.272 -14.285  0.00  0.00    +0.088 C 
BRANCH  18  19
ATOM     19  C   CYS A   1      31.228 -23.022 -15.479  0.00  0.00    +0.020 C 
BRANCH  19  20
ATOM     20  C   CYS A   1      29.827 -22.554 -15.050  0.00  0.00    -0.009 C 
BRANCH  20  21
ATOM     21  CA  CYS A   1      28.680 -23.494 -15.451  0.00  0.00    +0.036 C 
BRANCH  21  22
ATOM     22  N   CYS A   1      29.076 -24.901 -15.381  0.00  0.00    +0.389 N 
ATOM     23  H1  CYS A   1      28.617 -25.344 -14.585  0.00  0.00    -0.088 HD
ATOM     24  H2  CYS A   1      30.088 -24.963 -15.268  0.00  0.00    -0.088 HD
ATOM     25  H3  CYS A   1      28.801 -25.375 -16.241  0.00  0.00    -0.088 HD
ENDBRANCH  21  22
BRANCH  21  27
ATOM     26  OXT CYS A   1      27.736 -24.040 -17.635  0.00  0.00    -0.253 OA
ATOM     27  C   CYS A   1      28.163 -23.204 -16.849  0.00  0.00    +0.293 C 
BRANCH  27  28
ATOM     28  O   CYS A   1      28.225 -21.880 -17.150  0.00  0.00    -0.482 OA
ATOM     29  H   CYS A   1      28.675 -21.595 -17.922  0.00  0.00    +0.295 HD
ENDBRANCH  27  28
ENDBRANCH  21  27
ENDBRANCH  20  21
ENDBRANCH  19  20
ENDBRANCH  18  19
ENDBRANCH   1  18
TORSDOF 13
ENDMDL
MODEL 8
REMARK VINA RESULT:      -7.0      2.626      8.916
REMARK  Name = 49866858
REMARK  13 active torsions:
REMARK  status: ('A' for Active; 'I' for Inactive)
REMARK    1  A    between atoms: N_1  and  C_18
REMARK    2  A    between atoms: C_3  and  SG_7
REMARK    3  A    between atoms: SG_7  and  CB_8
REMARK    4  A    between atoms: CB_8  and  CA_9
REMARK    5  A    between atoms: CA_9  and  N_10
REMARK    6  A    between atoms: CA_9  and  C_15
REMARK    7  A    between atoms: C_15  and  O_16
REMARK    8  A    between atoms: C_18  and  C_19
REMARK    9  A    between atoms: C_19  and  C_20
REMARK   10  A    between atoms: C_20  and  CA_21
REMARK   11  A    between atoms: CA_21  and  N_22
REMARK   12  A    between atoms: CA_21  and  C_27
REMARK   13  A    between atoms: C_27  and  O_28
REMARK                            x       y       z     vdW  Elec       q    Type
REMARK                         _______ _______ _______ _____ _____    ______ ____
ROOT
ATOM      1  N   CYS A   1      33.232 -24.829 -13.605  0.00  0.00    -0.315 N 
ATOM      2  N   CYS A   1      32.115 -22.765 -13.783  0.00  0.00    -0.382 N 
ATOM      3  C   CYS A   1      32.155 -24.090 -13.871  0.00  0.00    +0.126 C 
ATOM      4  H   CYS A   1      33.158 -25.807 -13.695  0.00  0.00    +0.149 HD
ATOM      5  H   CYS A   1      31.283 -22.283 -13.995  0.00  0.00    +0.158 HD
ATOM      6  H   CYS A   1      32.917 -22.265 -13.507  0.00  0.00    +0.158 HD
ENDROOT
BRANCH   3   7
ATOM      7  SG  CYS A   1      30.706 -24.941 -14.346  0.00  0.00    -0.084 S 
BRANCH   7   8
ATOM      8  CB  CYS A   1      29.697 -23.566 -14.943  0.00  0.00    +0.054 C 
BRANCH   8   9
ATOM      9  CA  CYS A   1      29.640 -23.519 -16.471  0.00  0.00    +0.047 C 
BRANCH   9  10
ATOM     10  N   CYS A   1      30.654 -22.595 -16.982  0.00  0.00    +0.389 N 
ATOM     11  H1  CYS A   1      30.991 -22.927 -17.887  0.00  0.00    -0.088 HD
ATOM     12  H2  CYS A   1      31.434 -22.549 -16.326  0.00  0.00    -0.088 HD
ATOM     13  H3  CYS A   1      30.246 -21.667 -17.091  0.00  0.00    -0.088 HD
ENDBRANCH   9  10
BRANCH   9  15
ATOM     14  OXT CYS A   1      27.546 -23.743 -17.660  0.00  0.00    -0.253 OA
ATOM     15  C   CYS A   1      28.293 -23.046 -16.983  0.00  0.00    +0.294 C 
BRANCH  15  16
ATOM     16  O   CYS A   1      28.001 -21.762 -16.652  0.00  0.00    -0.482 OA
ATOM     17  H   CYS A   1      27.127 -21.439 -16.753  0.00  0.00    +0.295 HD
ENDBRANCH  15  16
ENDBRANCH   9  15
ENDBRANCH   8   9
ENDBRANCH   7   8
ENDBRANCH   3   7
BRANCH   1  18
ATOM     18  C   CYS A   1      34.519 -24.269 -13.189  0.00  0.00    +0.088 C 
BRANCH  18  19
ATOM     19  C   CYS A   1      35.596 -24.668 -14.190  0.00  0.00    +0.020 C 
BRANCH  19  20
ATOM     20  C   CYS A   1      36.745 -25.442 -13.525  0.00  0.00    -0.009 C 
BRANCH  20  21
ATOM     21  CA  CYS A   1      38.036 -24.635 -13.320  0.00  0.00    +0.036 C 
BRANCH  21  22
ATOM     22  N   CYS A   1      39.230 -25.467 -13.470  0.00  0.00    +0.389 N 
ATOM     23  H1  CYS A   1      39.441 -25.924 -12.583  0.00  0.00    -0.088 HD
ATOM     24  H2  CYS A   1      40.019 -24.881 -13.747  0.00  0.00    -0.088 HD
ATOM     25  H3  CYS A   1      39.065 -26.175 -14.186  0.00  0.00    -0.088 HD
ENDBRANCH  21  22
BRANCH  21  27
ATOM     26  OXT CYS A   1      38.722 -22.954 -11.689  0.00  0.00    -0.253 OA
ATOM     27  C   CYS A   1      38.082 -23.961 -11.960  0.00  0.00    +0.293 C 
BRANCH  27  28
ATOM     28  O   CYS A   1      37.314 -24.610 -11.045  0.00  0.00    -0.482 OA
ATOM     29  H   CYS A   1      37.588 -25.442 -10.709  0.00  0.00    +0.295 HD
ENDBRANCH  27  28
ENDBRANCH  21  27
ENDBRANCH  20  21
ENDBRANCH  19  20
ENDBRANCH  18  19
ENDBRANCH   1  18
TORSDOF 13
ENDMDL
MODEL 9
REMARK VINA RESULT:      -7.0      1.923      2.209
REMARK  Name = 49866858
REMARK  13 active torsions:
REMARK  status: ('A' for Active; 'I' for Inactive)
REMARK    1  A    between atoms: N_1  and  C_18
REMARK    2  A    between atoms: C_3  and  SG_7
REMARK    3  A    between atoms: SG_7  and  CB_8
REMARK    4  A    between atoms: CB_8  and  CA_9
REMARK    5  A    between atoms: CA_9  and  N_10
REMARK    6  A    between atoms: CA_9  and  C_15
REMARK    7  A    between atoms: C_15  and  O_16
REMARK    8  A    between atoms: C_18  and  C_19
REMARK    9  A    between atoms: C_19  and  C_20
REMARK   10  A    between atoms: C_20  and  CA_21
REMARK   11  A    between atoms: CA_21  and  N_22
REMARK   12  A    between atoms: CA_21  and  C_27
REMARK   13  A    between atoms: C_27  and  O_28
REMARK                            x       y       z     vdW  Elec       q    Type
REMARK                         _______ _______ _______ _____ _____    ______ ____
ROOT
ATOM      1  N   CYS A   1      33.302 -24.667 -13.563  0.00  0.00    -0.315 N 
ATOM      2  N   CYS A   1      34.894 -23.041 -14.165  0.00  0.00    -0.382 N 
ATOM      3  C   CYS A   1      34.472 -24.047 -13.407  0.00  0.00    +0.126 C 
ATOM      4  H   CYS A   1      33.083 -25.407 -12.951  0.00  0.00    +0.149 HD
ATOM      5  H   CYS A   1      35.772 -22.629 -13.993  0.00  0.00    +0.158 HD
ATOM      6  H   CYS A   1      34.329 -22.707 -14.900  0.00  0.00    +0.158 HD
ENDROOT
BRANCH   3   7
ATOM      7  SG  CYS A   1      35.511 -24.623 -12.127  0.00  0.00    -0.084 S 
BRANCH   7   8
ATOM      8  CB  CYS A   1      37.106 -24.632 -12.977  0.00  0.00    +0.054 C 
BRANCH   8   9
ATOM      9  CA  CYS A   1      37.393 -25.980 -13.642  0.00  0.00    +0.047 C 
BRANCH   9  10
ATOM     10  N   CYS A   1      38.824 -26.279 -13.574  0.00  0.00    +0.389 N 
ATOM     11  H1  CYS A   1      39.244 -26.138 -14.494  0.00  0.00    -0.088 HD
ATOM     12  H2  CYS A   1      38.956 -27.248 -13.285  0.00  0.00    -0.088 HD
ATOM     13  H3  CYS A   1      39.270 -25.659 -12.898  0.00  0.00    -0.088 HD
ENDBRANCH   9  10
BRANCH   9  15
ATOM     14  OXT CYS A   1      36.793 -27.027 -15.738  0.00  0.00    -0.253 OA
ATOM     15  C   CYS A   1      36.992 -25.996 -15.104  0.00  0.00    +0.294 C 
BRANCH  15  16
ATOM     16  O   CYS A   1      36.906 -24.762 -15.663  0.00  0.00    -0.482 OA
ATOM     17  H   CYS A   1      37.682 -24.253 -15.796  0.00  0.00    +0.295 HD
ENDBRANCH  15  16
ENDBRANCH   9  15
ENDBRANCH   8   9
ENDBRANCH   7   8
ENDBRANCH   3   7
BRANCH   1  18
ATOM     18  C   CYS A   1      32.324 -24.310 -14.592  0.00  0.00    +0.088 C 
BRANCH  18  19
ATOM     19  C   CYS A   1      31.084 -23.720 -13.932  0.00  0.00    +0.020 C 
BRANCH  19  20
ATOM     20  C   CYS A   1      30.241 -22.895 -14.919  0.00  0.00    -0.009 C 
BRANCH  20  21
ATOM     21  CA  CYS A   1      28.878 -23.508 -15.276  0.00  0.00    +0.036 C 
BRANCH  21  22
ATOM     22  N   CYS A   1      28.908 -24.970 -15.232  0.00  0.00    +0.389 N 
ATOM     23  H1  CYS A   1      28.777 -25.341 -16.172  0.00  0.00    -0.088 HD
ATOM     24  H2  CYS A   1      28.159 -25.306 -14.625  0.00  0.00    -0.088 HD
ATOM     25  H3  CYS A   1      29.807 -25.281 -14.864  0.00  0.00    -0.088 HD
ENDBRANCH  21  22
BRANCH  21  27
ATOM     26  OXT CYS A   1      28.485 -21.942 -17.105  0.00  0.00    -0.253 OA
ATOM     27  C   CYS A   1      28.395 -23.073 -16.648  0.00  0.00    +0.293 C 
BRANCH  27  28
ATOM     28  O   CYS A   1      27.833 -24.101 -17.338  0.00  0.00    -0.482 OA
ATOM     29  H   CYS A   1      27.555 -23.973 -18.225  0.00  0.00    +0.295 HD
ENDBRANCH  27  28
ENDBRANCH  21  27
ENDBRANCH  20  21
ENDBRANCH  19  20
ENDBRANCH  18  19
ENDBRANCH   1  18
TORSDOF 13
ENDMDL
