MODEL 1
REMARK VINA RESULT:      -9.3      0.000      0.000
REMARK  Name = 156391
REMARK  4 active torsions:
REMARK  status: ('A' for Active; 'I' for Inactive)
REMARK    1  A    between atoms: C_1  and  C_13
REMARK    2  A    between atoms: C_9  and  O_11
REMARK    3  A    between atoms: C_13  and  C_16
REMARK    4  A    between atoms: C_16  and  O_17
REMARK                            x       y       z     vdW  Elec       q    Type
REMARK                         _______ _______ _______ _____ _____    ______ ____
ROOT
ATOM      1  C   UNL     1      35.237 -18.036 -22.440  0.00  0.00    -0.012 C 
ATOM      2  C   UNL     1      34.252 -19.733 -21.001  0.00  0.00    -0.000 C 
ATOM      3  C   UNL     1      35.546 -20.101 -20.561  0.00  0.00    +0.003 C 
ATOM      4  C   UNL     1      34.115 -18.699 -21.942  0.00  0.00    -0.004 C 
ATOM      5  C   UNL     1      36.510 -18.398 -22.007  0.00  0.00    -0.004 C 
ATOM      6  C   UNL     1      36.664 -19.424 -21.073  0.00  0.00    -0.000 C 
ATOM      7  C   UNL     1      33.134 -20.410 -20.489  0.00  0.00    +0.003 C 
ATOM      8  C   UNL     1      35.682 -21.135 -19.620  0.00  0.00    +0.037 C 
ATOM      9  C   UNL     1      34.560 -21.797 -19.122  0.00  0.00    +0.139 C 
ATOM     10  C   UNL     1      33.288 -21.435 -19.555  0.00  0.00    +0.037 C 
ENDROOT
BRANCH   9  11
ATOM     11  O   UNL     1      34.709 -22.796 -18.210  0.00  0.00    -0.471 OA
ATOM     12  C   UNL     1      33.545 -23.197 -17.490  0.00  0.00    +0.252 C 
ENDBRANCH   9  11
BRANCH   1  13
ATOM     13  C   UNL     1      35.074 -16.940 -23.438  0.00  0.00    +0.121 C 
ATOM     14  C   UNL     1      34.030 -15.882 -23.032  0.00  0.00    +0.016 C 
BRANCH  13  16
ATOM     15  O   UNL     1      34.449 -18.629 -25.089  0.00  0.00    -0.250 OA
ATOM     16  C   UNL     1      34.734 -17.465 -24.837  0.00  0.00    +0.317 C 
BRANCH  16  17
ATOM     17  O   UNL     1      34.788 -16.502 -25.796  0.00  0.00    -0.480 OA
ATOM     18  H   UNL     1      35.591 -16.335 -26.247  0.00  0.00    +0.295 HD
ENDBRANCH  16  17
ENDBRANCH  13  16
ENDBRANCH   1  13
TORSDOF 4
ENDMDL
MODEL 2
REMARK VINA RESULT:      -9.3      1.466      1.825
REMARK  Name = 156391
REMARK  4 active torsions:
REMARK  status: ('A' for Active; 'I' for Inactive)
REMARK    1  A    between atoms: C_1  and  C_13
REMARK    2  A    between atoms: C_9  and  O_11
REMARK    3  A    between atoms: C_13  and  C_16
REMARK    4  A    between atoms: C_16  and  O_17
REMARK                            x       y       z     vdW  Elec       q    Type
REMARK                         _______ _______ _______ _____ _____    ______ ____
ROOT
ATOM      1  C   UNL     1      34.801 -18.935 -21.884  0.00  0.00    -0.012 C 
ATOM      2  C   UNL     1      34.082 -20.588 -20.250  0.00  0.00    -0.000 C 
ATOM      3  C   UNL     1      35.426 -20.756 -19.839  0.00  0.00    +0.003 C 
ATOM      4  C   UNL     1      33.786 -19.674 -21.275  0.00  0.00    -0.004 C 
ATOM      5  C   UNL     1      36.123 -19.100 -21.479  0.00  0.00    -0.004 C 
ATOM      6  C   UNL     1      36.434 -20.004 -20.463  0.00  0.00    -0.000 C 
ATOM      7  C   UNL     1      33.074 -21.340 -19.626  0.00  0.00    +0.003 C 
ATOM      8  C   UNL     1      35.721 -21.670 -18.815  0.00  0.00    +0.037 C 
ATOM      9  C   UNL     1      34.706 -22.409 -18.206  0.00  0.00    +0.139 C 
ATOM     10  C   UNL     1      33.385 -22.244 -18.610  0.00  0.00    +0.037 C 
ENDROOT
BRANCH   9  11
ATOM     11  O   UNL     1      35.009 -23.290 -17.213  0.00  0.00    -0.471 OA
ATOM     12  C   UNL     1      34.091 -23.383 -16.126  0.00  0.00    +0.252 C 
ENDBRANCH   9  11
BRANCH   1  13
ATOM     13  C   UNL     1      34.470 -17.968 -22.971  0.00  0.00    +0.121 C 
ATOM     14  C   UNL     1      34.964 -18.408 -24.363  0.00  0.00    +0.016 C 
BRANCH  13  16
ATOM     15  O   UNL     1      34.749 -15.928 -21.657  0.00  0.00    -0.250 OA
ATOM     16  C   UNL     1      34.990 -16.556 -22.680  0.00  0.00    +0.317 C 
BRANCH  16  17
ATOM     17  O   UNL     1      35.751 -16.050 -23.686  0.00  0.00    -0.480 OA
ATOM     18  H   UNL     1      35.465 -15.291 -24.154  0.00  0.00    +0.295 HD
ENDBRANCH  16  17
ENDBRANCH  13  16
ENDBRANCH   1  13
TORSDOF 4
ENDMDL
MODEL 3
REMARK VINA RESULT:      -8.9      1.766      2.810
REMARK  Name = 156391
REMARK  4 active torsions:
REMARK  status: ('A' for Active; 'I' for Inactive)
REMARK    1  A    between atoms: C_1  and  C_13
REMARK    2  A    between atoms: C_9  and  O_11
REMARK    3  A    between atoms: C_13  and  C_16
REMARK    4  A    between atoms: C_16  and  O_17
REMARK                            x       y       z     vdW  Elec       q    Type
REMARK                         _______ _______ _______ _____ _____    ______ ____
ROOT
ATOM      1  C   UNL     1      34.336 -19.268 -21.682  0.00  0.00    -0.012 C 
ATOM      2  C   UNL     1      35.368 -20.628 -19.949  0.00  0.00    -0.000 C 
ATOM      3  C   UNL     1      34.093 -21.129 -19.592  0.00  0.00    +0.003 C 
ATOM      4  C   UNL     1      35.472 -19.698 -20.996  0.00  0.00    -0.004 C 
ATOM      5  C   UNL     1      33.082 -19.761 -21.331  0.00  0.00    -0.004 C 
ATOM      6  C   UNL     1      32.960 -20.685 -20.293  0.00  0.00    -0.000 C 
ATOM      7  C   UNL     1      36.501 -21.072 -19.247  0.00  0.00    +0.003 C 
ATOM      8  C   UNL     1      33.989 -22.059 -18.545  0.00  0.00    +0.037 C 
ATOM      9  C   UNL     1      35.125 -22.488 -17.859  0.00  0.00    +0.139 C 
ATOM     10  C   UNL     1      36.379 -21.996 -18.209  0.00  0.00    +0.037 C 
ENDROOT
BRANCH   9  11
ATOM     11  O   UNL     1      35.008 -23.391 -16.847  0.00  0.00    -0.471 OA
ATOM     12  C   UNL     1      35.855 -23.210 -15.713  0.00  0.00    +0.252 C 
ENDBRANCH   9  11
BRANCH   1  13
ATOM     13  C   UNL     1      34.464 -18.280 -22.792  0.00  0.00    +0.121 C 
ATOM     14  C   UNL     1      35.267 -18.805 -23.999  0.00  0.00    +0.016 C 
BRANCH  13  16
ATOM     15  O   UNL     1      34.984 -16.511 -21.190  0.00  0.00    -0.250 OA
ATOM     16  C   UNL     1      35.071 -16.951 -22.329  0.00  0.00    +0.317 C 
BRANCH  16  17
ATOM     17  O   UNL     1      35.720 -16.287 -23.322  0.00  0.00    -0.480 OA
ATOM     18  H   UNL     1      35.948 -15.385 -23.211  0.00  0.00    +0.295 HD
ENDBRANCH  16  17
ENDBRANCH  13  16
ENDBRANCH   1  13
TORSDOF 4
ENDMDL
MODEL 4
REMARK VINA RESULT:      -8.9      1.695      6.928
REMARK  Name = 156391
REMARK  4 active torsions:
REMARK  status: ('A' for Active; 'I' for Inactive)
REMARK    1  A    between atoms: C_1  and  C_13
REMARK    2  A    between atoms: C_9  and  O_11
REMARK    3  A    between atoms: C_13  and  C_16
REMARK    4  A    between atoms: C_16  and  O_17
REMARK                            x       y       z     vdW  Elec       q    Type
REMARK                         _______ _______ _______ _____ _____    ______ ____
ROOT
ATOM      1  C   UNL     1      34.210 -22.490 -18.135  0.00  0.00    -0.012 C 
ATOM      2  C   UNL     1      34.017 -20.869 -19.940  0.00  0.00    -0.000 C 
ATOM      3  C   UNL     1      35.420 -20.685 -19.916  0.00  0.00    +0.003 C 
ATOM      4  C   UNL     1      33.427 -21.775 -19.042  0.00  0.00    -0.004 C 
ATOM      5  C   UNL     1      35.591 -22.309 -18.113  0.00  0.00    -0.004 C 
ATOM      6  C   UNL     1      36.192 -21.413 -18.997  0.00  0.00    -0.000 C 
ATOM      7  C   UNL     1      33.244 -20.141 -20.859  0.00  0.00    +0.003 C 
ATOM      8  C   UNL     1      36.008 -19.779 -20.814  0.00  0.00    +0.037 C 
ATOM      9  C   UNL     1      35.225 -19.065 -21.720  0.00  0.00    +0.139 C 
ATOM     10  C   UNL     1      33.846 -19.245 -21.743  0.00  0.00    +0.037 C 
ENDROOT
BRANCH   9  11
ATOM     11  O   UNL     1      35.811 -18.192 -22.584  0.00  0.00    -0.471 OA
ATOM     12  C   UNL     1      35.108 -17.902 -23.791  0.00  0.00    +0.252 C 
ENDBRANCH   9  11
BRANCH   1  13
ATOM     13  C   UNL     1      33.569 -23.448 -17.189  0.00  0.00    +0.121 C 
ATOM     14  C   UNL     1      32.138 -23.048 -16.778  0.00  0.00    +0.016 C 
BRANCH  13  16
ATOM     15  O   UNL     1      35.185 -24.608 -15.772  0.00  0.00    -0.250 OA
ATOM     16  C   UNL     1      34.406 -23.676 -15.926  0.00  0.00    +0.317 C 
BRANCH  16  17
ATOM     17  O   UNL     1      34.194 -22.735 -14.968  0.00  0.00    -0.480 OA
ATOM     18  H   UNL     1      34.307 -21.827 -15.170  0.00  0.00    +0.295 HD
ENDBRANCH  16  17
ENDBRANCH  13  16
ENDBRANCH   1  13
TORSDOF 4
ENDMDL
MODEL 5
REMARK VINA RESULT:      -8.6      2.169      6.504
REMARK  Name = 156391
REMARK  4 active torsions:
REMARK  status: ('A' for Active; 'I' for Inactive)
REMARK    1  A    between atoms: C_1  and  C_13
REMARK    2  A    between atoms: C_9  and  O_11
REMARK    3  A    between atoms: C_13  and  C_16
REMARK    4  A    between atoms: C_16  and  O_17
REMARK                            x       y       z     vdW  Elec       q    Type
REMARK                         _______ _______ _______ _____ _____    ______ ____
ROOT
ATOM      1  C   UNL     1      34.597 -19.199 -21.659  0.00  0.00    -0.012 C 
ATOM      2  C   UNL     1      34.201 -16.800 -21.760  0.00  0.00    -0.000 C 
ATOM      3  C   UNL     1      34.577 -16.802 -23.124  0.00  0.00    +0.003 C 
ATOM      4  C   UNL     1      34.217 -18.007 -21.041  0.00  0.00    -0.004 C 
ATOM      5  C   UNL     1      34.967 -19.200 -23.001  0.00  0.00    -0.004 C 
ATOM      6  C   UNL     1      34.957 -18.010 -23.730  0.00  0.00    -0.000 C 
ATOM      7  C   UNL     1      33.821 -15.592 -21.154  0.00  0.00    +0.003 C 
ATOM      8  C   UNL     1      34.561 -15.595 -23.842  0.00  0.00    +0.037 C 
ATOM      9  C   UNL     1      34.181 -14.404 -23.223  0.00  0.00    +0.139 C 
ATOM     10  C   UNL     1      33.811 -14.402 -21.882  0.00  0.00    +0.037 C 
ENDROOT
BRANCH   9  11
ATOM     11  O   UNL     1      34.169 -13.243 -23.934  0.00  0.00    -0.471 OA
ATOM     12  C   UNL     1      33.245 -12.238 -23.520  0.00  0.00    +0.252 C 
ENDBRANCH   9  11
BRANCH   1  13
ATOM     13  C   UNL     1      34.609 -20.471 -20.881  0.00  0.00    +0.121 C 
ATOM     14  C   UNL     1      33.369 -20.661 -19.985  0.00  0.00    +0.016 C 
BRANCH  13  16
ATOM     15  O   UNL     1      36.802 -19.832 -20.018  0.00  0.00    -0.250 OA
ATOM     16  C   UNL     1      35.871 -20.627 -20.026  0.00  0.00    +0.317 C 
BRANCH  16  17
ATOM     17  O   UNL     1      35.866 -21.756 -19.269  0.00  0.00    -0.480 OA
ATOM     18  H   UNL     1      35.531 -22.556 -19.623  0.00  0.00    +0.295 HD
ENDBRANCH  16  17
ENDBRANCH  13  16
ENDBRANCH   1  13
TORSDOF 4
ENDMDL
MODEL 6
REMARK VINA RESULT:      -8.4      1.890      6.661
REMARK  Name = 156391
REMARK  4 active torsions:
REMARK  status: ('A' for Active; 'I' for Inactive)
REMARK    1  A    between atoms: C_1  and  C_13
REMARK    2  A    between atoms: C_9  and  O_11
REMARK    3  A    between atoms: C_13  and  C_16
REMARK    4  A    between atoms: C_16  and  O_17
REMARK                            x       y       z     vdW  Elec       q    Type
REMARK                         _______ _______ _______ _____ _____    ______ ____
ROOT
ATOM      1  C   UNL     1      34.792 -18.974 -21.753  0.00  0.00    -0.012 C 
ATOM      2  C   UNL     1      34.270 -16.961 -23.017  0.00  0.00    -0.000 C 
ATOM      3  C   UNL     1      34.432 -17.684 -24.222  0.00  0.00    +0.003 C 
ATOM      4  C   UNL     1      34.455 -17.621 -21.790  0.00  0.00    -0.004 C 
ATOM      5  C   UNL     1      34.951 -19.685 -22.940  0.00  0.00    -0.004 C 
ATOM      6  C   UNL     1      34.772 -19.046 -24.166  0.00  0.00    -0.000 C 
ATOM      7  C   UNL     1      33.930 -15.600 -23.073  0.00  0.00    +0.003 C 
ATOM      8  C   UNL     1      34.248 -17.024 -25.448  0.00  0.00    +0.037 C 
ATOM      9  C   UNL     1      33.910 -15.671 -25.485  0.00  0.00    +0.139 C 
ATOM     10  C   UNL     1      33.752 -14.960 -24.299  0.00  0.00    +0.037 C 
ENDROOT
BRANCH   9  11
ATOM     11  O   UNL     1      33.734 -15.046 -26.681  0.00  0.00    -0.471 OA
ATOM     12  C   UNL     1      33.072 -13.783 -26.663  0.00  0.00    +0.252 C 
ENDBRANCH   9  11
BRANCH   1  13
ATOM     13  C   UNL     1      34.984 -19.659 -20.442  0.00  0.00    +0.121 C 
ATOM     14  C   UNL     1      36.345 -20.371 -20.308  0.00  0.00    +0.016 C 
BRANCH  13  16
ATOM     15  O   UNL     1      34.046 -21.773 -19.657  0.00  0.00    -0.250 OA
ATOM     16  C   UNL     1      33.865 -20.660 -20.133  0.00  0.00    +0.317 C 
BRANCH  16  17
ATOM     17  O   UNL     1      32.629 -20.192 -20.451  0.00  0.00    -0.480 OA
ATOM     18  H   UNL     1      31.868 -20.584 -20.070  0.00  0.00    +0.295 HD
ENDBRANCH  16  17
ENDBRANCH  13  16
ENDBRANCH   1  13
TORSDOF 4
ENDMDL
MODEL 7
REMARK VINA RESULT:      -8.4      3.314      6.820
REMARK  Name = 156391
REMARK  4 active torsions:
REMARK  status: ('A' for Active; 'I' for Inactive)
REMARK    1  A    between atoms: C_1  and  C_13
REMARK    2  A    between atoms: C_9  and  O_11
REMARK    3  A    between atoms: C_13  and  C_16
REMARK    4  A    between atoms: C_16  and  O_17
REMARK                            x       y       z     vdW  Elec       q    Type
REMARK                         _______ _______ _______ _____ _____    ______ ____
ROOT
ATOM      1  C   UNL     1      34.695 -17.040 -22.938  0.00  0.00    -0.012 C 
ATOM      2  C   UNL     1      33.505 -15.241 -21.813  0.00  0.00    -0.000 C 
ATOM      3  C   UNL     1      33.284 -14.615 -23.063  0.00  0.00    +0.003 C 
ATOM      4  C   UNL     1      34.213 -16.453 -21.767  0.00  0.00    -0.004 C 
ATOM      5  C   UNL     1      34.477 -16.425 -24.167  0.00  0.00    -0.004 C 
ATOM      6  C   UNL     1      33.776 -15.220 -24.231  0.00  0.00    -0.000 C 
ATOM      7  C   UNL     1      33.012 -14.636 -20.645  0.00  0.00    +0.003 C 
ATOM      8  C   UNL     1      32.575 -13.403 -23.108  0.00  0.00    +0.037 C 
ATOM      9  C   UNL     1      32.094 -12.816 -21.937  0.00  0.00    +0.139 C 
ATOM     10  C   UNL     1      32.311 -13.431 -20.709  0.00  0.00    +0.037 C 
ENDROOT
BRANCH   9  11
ATOM     11  O   UNL     1      31.408 -11.642 -21.998  0.00  0.00    -0.471 OA
ATOM     12  C   UNL     1      30.797 -11.183 -20.793  0.00  0.00    +0.252 C 
ENDBRANCH   9  11
BRANCH   1  13
ATOM     13  C   UNL     1      35.445 -18.328 -22.872  0.00  0.00    +0.121 C 
ATOM     14  C   UNL     1      35.022 -19.347 -23.949  0.00  0.00    +0.016 C 
BRANCH  13  16
ATOM     15  O   UNL     1      36.163 -18.821 -20.590  0.00  0.00    -0.250 OA
ATOM     16  C   UNL     1      35.354 -18.991 -21.494  0.00  0.00    +0.317 C 
BRANCH  16  17
ATOM     17  O   UNL     1      34.277 -19.811 -21.366  0.00  0.00    -0.480 OA
ATOM     18  H   UNL     1      34.041 -20.146 -20.524  0.00  0.00    +0.295 HD
ENDBRANCH  16  17
ENDBRANCH  13  16
ENDBRANCH   1  13
TORSDOF 4
ENDMDL
MODEL 8
REMARK VINA RESULT:      -8.4      1.556      6.377
REMARK  Name = 156391
REMARK  4 active torsions:
REMARK  status: ('A' for Active; 'I' for Inactive)
REMARK    1  A    between atoms: C_1  and  C_13
REMARK    2  A    between atoms: C_9  and  O_11
REMARK    3  A    between atoms: C_13  and  C_16
REMARK    4  A    between atoms: C_16  and  O_17
REMARK                            x       y       z     vdW  Elec       q    Type
REMARK                         _______ _______ _______ _____ _____    ______ ____
ROOT
ATOM      1  C   UNL     1      35.110 -19.356 -21.000  0.00  0.00    -0.012 C 
ATOM      2  C   UNL     1      34.672 -18.694 -23.300  0.00  0.00    -0.000 C 
ATOM      3  C   UNL     1      34.828 -17.336 -22.932  0.00  0.00    +0.003 C 
ATOM      4  C   UNL     1      34.815 -19.692 -22.322  0.00  0.00    -0.004 C 
ATOM      5  C   UNL     1      35.264 -18.020 -20.638  0.00  0.00    -0.004 C 
ATOM      6  C   UNL     1      35.124 -17.016 -21.597  0.00  0.00    -0.000 C 
ATOM      7  C   UNL     1      34.376 -19.014 -24.635  0.00  0.00    +0.003 C 
ATOM      8  C   UNL     1      34.684 -16.339 -23.910  0.00  0.00    +0.037 C 
ATOM      9  C   UNL     1      34.390 -16.676 -25.232  0.00  0.00    +0.139 C 
ATOM     10  C   UNL     1      34.236 -18.010 -25.593  0.00  0.00    +0.037 C 
ENDROOT
BRANCH   9  11
ATOM     11  O   UNL     1      34.254 -15.697 -26.168  0.00  0.00    -0.471 OA
ATOM     12  C   UNL     1      32.995 -15.031 -26.234  0.00  0.00    +0.252 C 
ENDBRANCH   9  11
BRANCH   1  13
ATOM     13  C   UNL     1      35.260 -20.428 -19.973  0.00  0.00    +0.121 C 
ATOM     14  C   UNL     1      36.387 -21.431 -20.285  0.00  0.00    +0.016 C 
BRANCH  13  16
ATOM     15  O   UNL     1      32.845 -20.688 -19.720  0.00  0.00    -0.250 OA
ATOM     16  C   UNL     1      33.957 -21.199 -19.734  0.00  0.00    +0.317 C 
BRANCH  16  17
ATOM     17  O   UNL     1      34.155 -22.527 -19.525  0.00  0.00    -0.480 OA
ATOM     18  H   UNL     1      34.972 -22.831 -19.184  0.00  0.00    +0.295 HD
ENDBRANCH  16  17
ENDBRANCH  13  16
ENDBRANCH   1  13
TORSDOF 4
ENDMDL
MODEL 9
REMARK VINA RESULT:      -8.3      5.824      8.506
REMARK  Name = 156391
REMARK  4 active torsions:
REMARK  status: ('A' for Active; 'I' for Inactive)
REMARK    1  A    between atoms: C_1  and  C_13
REMARK    2  A    between atoms: C_9  and  O_11
REMARK    3  A    between atoms: C_13  and  C_16
REMARK    4  A    between atoms: C_16  and  O_17
REMARK                            x       y       z     vdW  Elec       q    Type
REMARK                         _______ _______ _______ _____ _____    ______ ____
ROOT
ATOM      1  C   UNL     1      30.637 -23.426 -15.436  0.00  0.00    -0.012 C 
ATOM      2  C   UNL     1      32.588 -22.986 -16.821  0.00  0.00    -0.000 C 
ATOM      3  C   UNL     1      33.418 -23.117 -15.683  0.00  0.00    +0.003 C 
ATOM      4  C   UNL     1      31.200 -23.143 -16.681  0.00  0.00    -0.004 C 
ATOM      5  C   UNL     1      31.454 -23.555 -14.316  0.00  0.00    -0.004 C 
ATOM      6  C   UNL     1      32.835 -23.402 -14.437  0.00  0.00    -0.000 C 
ATOM      7  C   UNL     1      33.172 -22.701 -18.067  0.00  0.00    +0.003 C 
ATOM      8  C   UNL     1      34.807 -22.960 -15.824  0.00  0.00    +0.037 C 
ATOM      9  C   UNL     1      35.369 -22.677 -17.069  0.00  0.00    +0.139 C 
ATOM     10  C   UNL     1      34.553 -22.548 -18.188  0.00  0.00    +0.037 C 
ENDROOT
BRANCH   9  11
ATOM     11  O   UNL     1      36.716 -22.529 -17.188  0.00  0.00    -0.471 OA
ATOM     12  C   UNL     1      37.493 -22.663 -15.999  0.00  0.00    +0.252 C 
ENDBRANCH   9  11
BRANCH   1  13
ATOM     13  C   UNL     1      29.161 -23.589 -15.305  0.00  0.00    +0.121 C 
ATOM     14  C   UNL     1      28.724 -25.032 -14.980  0.00  0.00    +0.016 C 
BRANCH  13  16
ATOM     15  O   UNL     1      28.210 -21.929 -16.823  0.00  0.00    -0.250 OA
ATOM     16  C   UNL     1      28.403 -23.106 -16.545  0.00  0.00    +0.317 C 
BRANCH  16  17
ATOM     17  O   UNL     1      27.945 -24.124 -17.321  0.00  0.00    -0.480 OA
ATOM     18  H   UNL     1      28.379 -24.954 -17.309  0.00  0.00    +0.295 HD
ENDBRANCH  16  17
ENDBRANCH  13  16
ENDBRANCH   1  13
TORSDOF 4
ENDMDL
