MODEL 1
REMARK VINA RESULT:      -7.1      0.000      0.000
REMARK  Name = 9837243
REMARK  5 active torsions:
REMARK  status: ('A' for Active; 'I' for Inactive)
REMARK    1  A    between atoms: N_2  and  C_10
REMARK    2  A    between atoms: C_3  and  C_7
REMARK    3  A    between atoms: C_7  and  C_8
REMARK    4  A    between atoms: C_10  and  C_13
REMARK    5  A    between atoms: C_10  and  C_16
REMARK                            x       y       z     vdW  Elec       q    Type
REMARK                         _______ _______ _______ _____ _____    ______ ____
ROOT
ATOM      1  O   UNL     1      37.427 -19.125 -21.101  0.00  0.00    -0.275 OA
ATOM      2  N   UNL     1      35.161 -18.552 -21.370  0.00  0.00    -0.273 N 
ATOM      3  C   UNL     1      34.193 -20.537 -20.640  0.00  0.00    +0.029 C 
ATOM      4  C   UNL     1      33.884 -19.079 -20.950  0.00  0.00    +0.094 C 
ATOM      5  C   UNL     1      35.656 -20.505 -20.190  0.00  0.00    +0.087 C 
ATOM      6  C   UNL     1      36.233 -19.334 -20.949  0.00  0.00    +0.226 C 
ENDROOT
BRANCH   3   7
ATOM      7  C   UNL     1      33.261 -21.137 -19.600  0.00  0.00    +0.002 C 
BRANCH   7   8
ATOM      8  C   UNL     1      33.828 -22.435 -19.037  0.00  0.00    +0.000 C 
ATOM      9  C   UNL     1      33.094 -22.852 -17.773  0.00  0.00    +0.000 C 
ENDBRANCH   7   8
ENDBRANCH   3   7
BRANCH   2  10
ATOM     10  C   UNL     1      35.269 -17.276 -22.043  0.00  0.00    +0.151 C 
BRANCH  10  13
ATOM     11  O   UNL     1      35.015 -15.934 -20.033  0.00  0.00    -0.274 OA
ATOM     12  N   UNL     1      33.545 -15.600 -21.765  0.00  0.00    -0.327 N 
ATOM     13  C   UNL     1      34.629 -16.207 -21.166  0.00  0.00    +0.237 C 
ATOM     14  H   UNL     1      33.053 -14.892 -21.290  0.00  0.00    +0.145 HD
ATOM     15  H   UNL     1      33.264 -15.874 -22.669  0.00  0.00    +0.145 HD
ENDBRANCH  10  13
BRANCH  10  16
ATOM     16  C   UNL     1      34.680 -17.315 -23.457  0.00  0.00    +0.029 C 
ATOM     17  C   UNL     1      34.951 -18.611 -24.212  0.00  0.00    +0.002 C 
ENDBRANCH  10  16
ENDBRANCH   2  10
TORSDOF 5
ENDMDL
MODEL 2
REMARK VINA RESULT:      -6.8      1.478      2.259
REMARK  Name = 9837243
REMARK  5 active torsions:
REMARK  status: ('A' for Active; 'I' for Inactive)
REMARK    1  A    between atoms: N_2  and  C_10
REMARK    2  A    between atoms: C_3  and  C_7
REMARK    3  A    between atoms: C_7  and  C_8
REMARK    4  A    between atoms: C_10  and  C_13
REMARK    5  A    between atoms: C_10  and  C_16
REMARK                            x       y       z     vdW  Elec       q    Type
REMARK                         _______ _______ _______ _____ _____    ______ ____
ROOT
ATOM      1  O   UNL     1      36.795 -19.202 -20.934  0.00  0.00    -0.275 OA
ATOM      2  N   UNL     1      34.458 -18.979 -21.086  0.00  0.00    -0.273 N 
ATOM      3  C   UNL     1      33.836 -21.061 -20.255  0.00  0.00    +0.029 C 
ATOM      4  C   UNL     1      33.298 -19.675 -20.582  0.00  0.00    +0.094 C 
ATOM      5  C   UNL     1      35.300 -20.799 -19.890  0.00  0.00    +0.087 C 
ATOM      6  C   UNL     1      35.655 -19.580 -20.709  0.00  0.00    +0.226 C 
ENDROOT
BRANCH   3   7
ATOM      7  C   UNL     1      33.061 -21.758 -19.151  0.00  0.00    +0.002 C 
BRANCH   7   8
ATOM      8  C   UNL     1      33.946 -22.741 -18.393  0.00  0.00    +0.000 C 
ATOM      9  C   UNL     1      33.250 -23.257 -17.145  0.00  0.00    +0.000 C 
ENDBRANCH   7   8
ENDBRANCH   3   7
BRANCH   2  10
ATOM     10  C   UNL     1      34.338 -17.723 -21.794  0.00  0.00    +0.151 C 
BRANCH  10  13
ATOM     11  O   UNL     1      34.653 -18.882 -23.906  0.00  0.00    -0.274 OA
ATOM     12  N   UNL     1      35.708 -16.865 -23.596  0.00  0.00    -0.327 N 
ATOM     13  C   UNL     1      34.888 -17.902 -23.203  0.00  0.00    +0.237 C 
ATOM     14  H   UNL     1      36.120 -16.876 -24.490  0.00  0.00    +0.145 HD
ATOM     15  H   UNL     1      35.880 -16.114 -22.982  0.00  0.00    +0.145 HD
ENDBRANCH  10  13
BRANCH  10  16
ATOM     16  C   UNL     1      35.006 -16.568 -21.040  0.00  0.00    +0.029 C 
ATOM     17  C   UNL     1      34.065 -15.418 -20.697  0.00  0.00    +0.002 C 
ENDBRANCH  10  16
ENDBRANCH   2  10
TORSDOF 5
ENDMDL
MODEL 3
REMARK VINA RESULT:      -6.8      8.569     11.121
REMARK  Name = 9837243
REMARK  5 active torsions:
REMARK  status: ('A' for Active; 'I' for Inactive)
REMARK    1  A    between atoms: N_2  and  C_10
REMARK    2  A    between atoms: C_3  and  C_7
REMARK    3  A    between atoms: C_7  and  C_8
REMARK    4  A    between atoms: C_10  and  C_13
REMARK    5  A    between atoms: C_10  and  C_16
REMARK                            x       y       z     vdW  Elec       q    Type
REMARK                         _______ _______ _______ _____ _____    ______ ____
ROOT
ATOM      1  O   UNL     1      32.900  -7.034 -19.438  0.00  0.00    -0.275 OA
ATOM      2  N   UNL     1      32.382  -7.813 -21.597  0.00  0.00    -0.273 N 
ATOM      3  C   UNL     1      32.034 -10.059 -21.102  0.00  0.00    +0.029 C 
ATOM      4  C   UNL     1      31.813  -9.006 -22.179  0.00  0.00    +0.094 C 
ATOM      5  C   UNL     1      31.997  -9.254 -19.800  0.00  0.00    +0.087 C 
ATOM      6  C   UNL     1      32.505  -7.892 -20.213  0.00  0.00    +0.226 C 
ENDROOT
BRANCH   3   7
ATOM      7  C   UNL     1      31.008 -11.178 -21.141  0.00  0.00    +0.002 C 
BRANCH   7   8
ATOM      8  C   UNL     1      31.681 -12.544 -21.090  0.00  0.00    +0.000 C 
ATOM      9  C   UNL     1      32.254 -12.926 -22.445  0.00  0.00    +0.000 C 
ENDBRANCH   7   8
ENDBRANCH   3   7
BRANCH   2  10
ATOM     10  C   UNL     1      32.657  -6.638 -22.396  0.00  0.00    +0.151 C 
BRANCH  10  13
ATOM     11  O   UNL     1      30.784  -5.778 -23.683  0.00  0.00    -0.274 OA
ATOM     12  N   UNL     1      30.905  -5.264 -21.448  0.00  0.00    -0.327 N 
ATOM     13  C   UNL     1      31.357  -5.872 -22.600  0.00  0.00    +0.237 C 
ATOM     14  H   UNL     1      30.072  -4.740 -21.462  0.00  0.00    +0.145 HD
ATOM     15  H   UNL     1      31.417  -5.354 -20.611  0.00  0.00    +0.145 HD
ENDBRANCH  10  13
BRANCH  10  16
ATOM     16  C   UNL     1      33.355  -6.986 -23.715  0.00  0.00    +0.029 C 
ATOM     17  C   UNL     1      34.786  -7.486 -23.553  0.00  0.00    +0.002 C 
ENDBRANCH  10  16
ENDBRANCH   2  10
TORSDOF 5
ENDMDL
MODEL 4
REMARK VINA RESULT:      -6.7      2.136      3.045
REMARK  Name = 9837243
REMARK  5 active torsions:
REMARK  status: ('A' for Active; 'I' for Inactive)
REMARK    1  A    between atoms: N_2  and  C_10
REMARK    2  A    between atoms: C_3  and  C_7
REMARK    3  A    between atoms: C_7  and  C_8
REMARK    4  A    between atoms: C_10  and  C_13
REMARK    5  A    between atoms: C_10  and  C_16
REMARK                            x       y       z     vdW  Elec       q    Type
REMARK                         _______ _______ _______ _____ _____    ______ ____
ROOT
ATOM      1  O   UNL     1      34.903 -17.065 -24.974  0.00  0.00    -0.275 OA
ATOM      2  N   UNL     1      34.700 -16.730 -22.654  0.00  0.00    -0.273 N 
ATOM      3  C   UNL     1      34.593 -18.952 -21.973  0.00  0.00    +0.029 C 
ATOM      4  C   UNL     1      34.810 -17.535 -21.460  0.00  0.00    +0.094 C 
ATOM      5  C   UNL     1      35.127 -18.900 -23.407  0.00  0.00    +0.087 C 
ATOM      6  C   UNL     1      34.885 -17.467 -23.821  0.00  0.00    +0.226 C 
ENDROOT
BRANCH   3   7
ATOM      7  C   UNL     1      35.276 -20.007 -21.120  0.00  0.00    +0.002 C 
BRANCH   7   8
ATOM      8  C   UNL     1      34.305 -20.617 -20.116  0.00  0.00    +0.000 C 
ATOM      9  C   UNL     1      32.864 -20.314 -20.492  0.00  0.00    +0.000 C 
ENDBRANCH   7   8
ENDBRANCH   3   7
BRANCH   2  10
ATOM     10  C   UNL     1      34.544 -15.294 -22.587  0.00  0.00    +0.151 C 
BRANCH  10  13
ATOM     11  O   UNL     1      34.999 -14.679 -20.280  0.00  0.00    -0.274 OA
ATOM     12  N   UNL     1      32.811 -14.881 -20.949  0.00  0.00    -0.327 N 
ATOM     13  C   UNL     1      34.173 -14.910 -21.160  0.00  0.00    +0.237 C 
ATOM     14  H   UNL     1      32.456 -14.645 -20.062  0.00  0.00    +0.145 HD
ATOM     15  H   UNL     1      32.194 -15.097 -21.686  0.00  0.00    +0.145 HD
ENDBRANCH  10  13
BRANCH  10  16
ATOM     16  C   UNL     1      33.542 -14.772 -23.622  0.00  0.00    +0.029 C 
ATOM     17  C   UNL     1      33.746 -13.311 -24.008  0.00  0.00    +0.002 C 
ENDBRANCH  10  16
ENDBRANCH   2  10
TORSDOF 5
ENDMDL
MODEL 5
REMARK VINA RESULT:      -6.7      3.504      6.966
REMARK  Name = 9837243
REMARK  5 active torsions:
REMARK  status: ('A' for Active; 'I' for Inactive)
REMARK    1  A    between atoms: N_2  and  C_10
REMARK    2  A    between atoms: C_3  and  C_7
REMARK    3  A    between atoms: C_7  and  C_8
REMARK    4  A    between atoms: C_10  and  C_13
REMARK    5  A    between atoms: C_10  and  C_16
REMARK                            x       y       z     vdW  Elec       q    Type
REMARK                         _______ _______ _______ _____ _____    ______ ____
ROOT
ATOM      1  O   UNL     1      31.868 -15.521 -20.938  0.00  0.00    -0.275 OA
ATOM      2  N   UNL     1      33.620 -15.329 -22.497  0.00  0.00    -0.273 N 
ATOM      3  C   UNL     1      33.038 -13.289 -23.451  0.00  0.00    +0.029 C 
ATOM      4  C   UNL     1      34.177 -14.292 -23.334  0.00  0.00    +0.094 C 
ATOM      5  C   UNL     1      32.278 -13.452 -22.132  0.00  0.00    +0.087 C 
ATOM      6  C   UNL     1      32.517 -14.898 -21.764  0.00  0.00    +0.226 C 
ENDROOT
BRANCH   3   7
ATOM      7  C   UNL     1      33.517 -11.868 -23.693  0.00  0.00    +0.002 C 
BRANCH   7   8
ATOM      8  C   UNL     1      34.063 -11.704 -25.106  0.00  0.00    +0.000 C 
ATOM      9  C   UNL     1      34.928 -10.459 -25.220  0.00  0.00    +0.000 C 
ENDBRANCH   7   8
ENDBRANCH   3   7
BRANCH   2  10
ATOM     10  C   UNL     1      34.255 -16.623 -22.370  0.00  0.00    +0.151 C 
BRANCH  10  13
ATOM     11  O   UNL     1      35.072 -15.729 -20.264  0.00  0.00    -0.274 OA
ATOM     12  N   UNL     1      35.523 -17.923 -20.770  0.00  0.00    -0.327 N 
ATOM     13  C   UNL     1      34.970 -16.686 -21.027  0.00  0.00    +0.237 C 
ATOM     14  H   UNL     1      36.011 -18.079 -19.930  0.00  0.00    +0.145 HD
ATOM     15  H   UNL     1      35.431 -18.649 -21.429  0.00  0.00    +0.145 HD
ENDBRANCH  10  13
BRANCH  10  16
ATOM     16  C   UNL     1      35.182 -16.930 -23.551  0.00  0.00    +0.029 C 
ATOM     17  C   UNL     1      34.698 -18.063 -24.448  0.00  0.00    +0.002 C 
ENDBRANCH  10  16
ENDBRANCH   2  10
TORSDOF 5
ENDMDL
MODEL 6
REMARK VINA RESULT:      -6.7      2.233      5.804
REMARK  Name = 9837243
REMARK  5 active torsions:
REMARK  status: ('A' for Active; 'I' for Inactive)
REMARK    1  A    between atoms: N_2  and  C_10
REMARK    2  A    between atoms: C_3  and  C_7
REMARK    3  A    between atoms: C_7  and  C_8
REMARK    4  A    between atoms: C_10  and  C_13
REMARK    5  A    between atoms: C_10  and  C_16
REMARK                            x       y       z     vdW  Elec       q    Type
REMARK                         _______ _______ _______ _____ _____    ______ ____
ROOT
ATOM      1  O   UNL     1      35.030 -19.748 -24.067  0.00  0.00    -0.275 OA
ATOM      2  N   UNL     1      34.767 -18.006 -22.507  0.00  0.00    -0.273 N 
ATOM      3  C   UNL     1      34.676 -16.207 -23.980  0.00  0.00    +0.029 C 
ATOM      4  C   UNL     1      34.397 -16.610 -22.539  0.00  0.00    +0.094 C 
ATOM      5  C   UNL     1      34.446 -17.502 -24.765  0.00  0.00    +0.087 C 
ATOM      6  C   UNL     1      34.803 -18.584 -23.773  0.00  0.00    +0.226 C 
ENDROOT
BRANCH   3   7
ATOM      7  C   UNL     1      33.807 -15.057 -24.458  0.00  0.00    +0.002 C 
BRANCH   7   8
ATOM      8  C   UNL     1      33.317 -15.292 -25.882  0.00  0.00    +0.000 C 
ATOM      9  C   UNL     1      32.998 -13.979 -26.577  0.00  0.00    +0.000 C 
ENDBRANCH   7   8
ENDBRANCH   3   7
BRANCH   2  10
ATOM     10  C   UNL     1      34.943 -18.714 -21.258  0.00  0.00    +0.151 C 
BRANCH  10  13
ATOM     11  O   UNL     1      37.306 -18.579 -21.812  0.00  0.00    -0.274 OA
ATOM     12  N   UNL     1      36.677 -19.833 -19.994  0.00  0.00    -0.327 N 
ATOM     13  C   UNL     1      36.426 -19.007 -21.069  0.00  0.00    +0.237 C 
ATOM     14  H   UNL     1      37.602 -20.090 -19.776  0.00  0.00    +0.145 HD
ATOM     15  H   UNL     1      35.931 -20.166 -19.444  0.00  0.00    +0.145 HD
ENDBRANCH  10  13
BRANCH  10  16
ATOM     16  C   UNL     1      34.075 -19.973 -21.179  0.00  0.00    +0.029 C 
ATOM     17  C   UNL     1      32.691 -19.743 -20.583  0.00  0.00    +0.002 C 
ENDBRANCH  10  16
ENDBRANCH   2  10
TORSDOF 5
ENDMDL
MODEL 7
REMARK VINA RESULT:      -6.6      2.222      3.386
REMARK  Name = 9837243
REMARK  5 active torsions:
REMARK  status: ('A' for Active; 'I' for Inactive)
REMARK    1  A    between atoms: N_2  and  C_10
REMARK    2  A    between atoms: C_3  and  C_7
REMARK    3  A    between atoms: C_7  and  C_8
REMARK    4  A    between atoms: C_10  and  C_13
REMARK    5  A    between atoms: C_10  and  C_16
REMARK                            x       y       z     vdW  Elec       q    Type
REMARK                         _______ _______ _______ _____ _____    ______ ____
ROOT
ATOM      1  O   UNL     1      34.986 -14.930 -21.019  0.00  0.00    -0.275 OA
ATOM      2  N   UNL     1      34.637 -16.275 -22.918  0.00  0.00    -0.273 N 
ATOM      3  C   UNL     1      35.223 -18.338 -22.017  0.00  0.00    +0.029 C 
ATOM      4  C   UNL     1      34.527 -17.686 -23.203  0.00  0.00    +0.094 C 
ATOM      5  C   UNL     1      34.983 -17.349 -20.873  0.00  0.00    +0.087 C 
ATOM      6  C   UNL     1      34.892 -16.014 -21.574  0.00  0.00    +0.226 C 
ENDROOT
BRANCH   3   7
ATOM      7  C   UNL     1      34.708 -19.735 -21.716  0.00  0.00    +0.002 C 
BRANCH   7   8
ATOM      8  C   UNL     1      33.420 -19.683 -20.903  0.00  0.00    +0.000 C 
ATOM      9  C   UNL     1      33.346 -20.837 -19.917  0.00  0.00    +0.000 C 
ENDBRANCH   7   8
ENDBRANCH   3   7
BRANCH   2  10
ATOM     10  C   UNL     1      34.372 -15.275 -23.929  0.00  0.00    +0.151 C 
BRANCH  10  13
ATOM     11  O   UNL     1      32.302 -14.469 -22.945  0.00  0.00    -0.274 OA
ATOM     12  N   UNL     1      33.988 -12.959 -23.339  0.00  0.00    -0.327 N 
ATOM     13  C   UNL     1      33.438 -14.224 -23.343  0.00  0.00    +0.237 C 
ATOM     14  H   UNL     1      33.472 -12.200 -22.983  0.00  0.00    +0.145 HD
ATOM     15  H   UNL     1      34.896 -12.816 -23.692  0.00  0.00    +0.145 HD
ENDBRANCH  10  13
BRANCH  10  16
ATOM     16  C   UNL     1      33.835 -15.890 -25.225  0.00  0.00    +0.029 C 
ATOM     17  C   UNL     1      33.192 -14.887 -26.175  0.00  0.00    +0.002 C 
ENDBRANCH  10  16
ENDBRANCH   2  10
TORSDOF 5
ENDMDL
MODEL 8
REMARK VINA RESULT:      -6.6      7.149      9.481
REMARK  Name = 9837243
REMARK  5 active torsions:
REMARK  status: ('A' for Active; 'I' for Inactive)
REMARK    1  A    between atoms: N_2  and  C_10
REMARK    2  A    between atoms: C_3  and  C_7
REMARK    3  A    between atoms: C_7  and  C_8
REMARK    4  A    between atoms: C_10  and  C_13
REMARK    5  A    between atoms: C_10  and  C_16
REMARK                            x       y       z     vdW  Elec       q    Type
REMARK                         _______ _______ _______ _____ _____    ______ ____
ROOT
ATOM      1  O   UNL     1      38.208 -22.791 -15.923  0.00  0.00    -0.275 OA
ATOM      2  N   UNL     1      36.705 -23.999 -14.574  0.00  0.00    -0.273 N 
ATOM      3  C   UNL     1      34.708 -23.095 -15.354  0.00  0.00    +0.029 C 
ATOM      4  C   UNL     1      35.283 -24.250 -14.546  0.00  0.00    +0.094 C 
ATOM      5  C   UNL     1      35.823 -22.764 -16.350  0.00  0.00    +0.087 C 
ATOM      6  C   UNL     1      37.082 -23.148 -15.609  0.00  0.00    +0.226 C 
ENDROOT
BRANCH   3   7
ATOM      7  C   UNL     1      33.388 -23.435 -16.025  0.00  0.00    +0.002 C 
BRANCH   7   8
ATOM      8  C   UNL     1      32.210 -23.141 -15.104  0.00  0.00    +0.000 C 
ATOM      9  C   UNL     1      30.911 -23.044 -15.887  0.00  0.00    +0.000 C 
ENDBRANCH   7   8
ENDBRANCH   3   7
BRANCH   2  10
ATOM     10  C   UNL     1      37.613 -24.685 -13.681  0.00  0.00    +0.151 C 
BRANCH  10  13
ATOM     11  O   UNL     1      38.440 -26.467 -15.112  0.00  0.00    -0.274 OA
ATOM     12  N   UNL     1      37.015 -27.013 -13.395  0.00  0.00    -0.327 N 
ATOM     13  C   UNL     1      37.759 -26.127 -14.148  0.00  0.00    +0.237 C 
ATOM     14  H   UNL     1      37.033 -27.974 -13.607  0.00  0.00    +0.145 HD
ATOM     15  H   UNL     1      36.468 -26.683 -12.646  0.00  0.00    +0.145 HD
ENDBRANCH  10  13
BRANCH  10  16
ATOM     16  C   UNL     1      37.177 -24.576 -12.217  0.00  0.00    +0.029 C 
ATOM     17  C   UNL     1      37.246 -23.164 -11.647  0.00  0.00    +0.002 C 
ENDBRANCH  10  16
ENDBRANCH   2  10
TORSDOF 5
ENDMDL
MODEL 9
REMARK VINA RESULT:      -6.5      6.775      8.499
REMARK  Name = 9837243
REMARK  5 active torsions:
REMARK  status: ('A' for Active; 'I' for Inactive)
REMARK    1  A    between atoms: N_2  and  C_10
REMARK    2  A    between atoms: C_3  and  C_7
REMARK    3  A    between atoms: C_7  and  C_8
REMARK    4  A    between atoms: C_10  and  C_13
REMARK    5  A    between atoms: C_10  and  C_16
REMARK                            x       y       z     vdW  Elec       q    Type
REMARK                         _______ _______ _______ _____ _____    ______ ____
ROOT
ATOM      1  O   UNL     1      34.118 -23.319 -17.852  0.00  0.00    -0.275 OA
ATOM      2  N   UNL     1      34.425 -23.719 -15.553  0.00  0.00    -0.273 N 
ATOM      3  C   UNL     1      32.325 -23.075 -14.787  0.00  0.00    +0.029 C 
ATOM      4  C   UNL     1      33.588 -23.821 -14.381  0.00  0.00    +0.094 C 
ATOM      5  C   UNL     1      32.255 -23.286 -16.302  0.00  0.00    +0.087 C 
ATOM      6  C   UNL     1      33.705 -23.419 -16.706  0.00  0.00    +0.226 C 
ENDROOT
BRANCH   3   7
ATOM      7  C   UNL     1      31.084 -23.561 -14.058  0.00  0.00    +0.002 C 
BRANCH   7   8
ATOM      8  C   UNL     1      29.873 -23.576 -14.984  0.00  0.00    +0.000 C 
ATOM      9  C   UNL     1      29.153 -24.913 -14.924  0.00  0.00    +0.000 C 
ENDBRANCH   7   8
ENDBRANCH   3   7
BRANCH   2  10
ATOM     10  C   UNL     1      35.836 -24.032 -15.506  0.00  0.00    +0.151 C 
BRANCH  10  13
ATOM     11  O   UNL     1      36.400 -25.091 -13.393  0.00  0.00    -0.274 OA
ATOM     12  N   UNL     1      35.822 -26.428 -15.169  0.00  0.00    -0.327 N 
ATOM     13  C   UNL     1      36.043 -25.210 -14.562  0.00  0.00    +0.237 C 
ATOM     14  H   UNL     1      35.926 -27.260 -14.653  0.00  0.00    +0.145 HD
ATOM     15  H   UNL     1      35.559 -26.466 -16.117  0.00  0.00    +0.145 HD
ENDBRANCH  10  13
BRANCH  10  16
ATOM     16  C   UNL     1      36.687 -22.814 -15.131  0.00  0.00    +0.029 C 
ATOM     17  C   UNL     1      37.361 -22.132 -16.316  0.00  0.00    +0.002 C 
ENDBRANCH  10  16
ENDBRANCH   2  10
TORSDOF 5
ENDMDL
