MODEL 1
REMARK VINA RESULT:     -10.7      0.000      0.000
REMARK  Name = 42615254
REMARK  7 active torsions:
REMARK  status: ('A' for Active; 'I' for Inactive)
REMARK    1  A    between atoms: C_3  and  C_10
REMARK    2  A    between atoms: C_7  and  C_20
REMARK    3  A    between atoms: N_9  and  C_12
REMARK    4  A    between atoms: C_12  and  C_14
REMARK    5  A    between atoms: C_20  and  N_21
REMARK    6  A    between atoms: C_20  and  C_25
REMARK    7  A    between atoms: C_25  and  C_26
REMARK                            x       y       z     vdW  Elec       q    Type
REMARK                         _______ _______ _______ _____ _____    ______ ____
ROOT
ATOM      1  O   UNL     1      34.212 -17.259 -24.040  0.00  0.00    -0.277 OA
ATOM      2  N   UNL     1      33.964 -15.902 -22.181  0.00  0.00    -0.275 N 
ATOM      3  C   UNL     1      33.075 -14.930 -22.803  0.00  0.00    +0.152 C 
ATOM      4  C   UNL     1      32.490 -14.140 -21.638  0.00  0.00    +0.031 C 
ATOM      5  C   UNL     1      34.170 -15.600 -20.767  0.00  0.00    +0.094 C 
ATOM      6  C   UNL     1      33.586 -14.209 -20.577  0.00  0.00    +0.024 C 
ATOM      7  C   UNL     1      34.405 -17.038 -22.843  0.00  0.00    +0.205 C 
ENDROOT
BRANCH   3  10
ATOM      8  O   UNL     1      35.032 -14.418 -24.071  0.00  0.00    -0.273 OA
ATOM      9  N   UNL     1      33.302 -12.863 -23.992  0.00  0.00    -0.299 N 
ATOM     10  C   UNL     1      33.919 -14.066 -23.693  0.00  0.00    +0.241 C 
ATOM     11  H   UNL     1      32.403 -12.694 -23.629  0.00  0.00    +0.150 HD
BRANCH   9  12
ATOM     12  C   UNL     1      33.914 -11.844 -24.814  0.00  0.00    +0.116 C 
BRANCH  12  14
ATOM     13 CL   UNL     1      31.702  -8.605 -21.388  0.00  0.00    -0.082 Cl
ATOM     14  C   UNL     1      33.892 -10.498 -24.148  0.00  0.00    -0.002 C 
ATOM     15  C   UNL     1      32.921 -10.210 -23.189  0.00  0.00    +0.009 C 
ATOM     16  C   UNL     1      34.844  -9.538 -24.488  0.00  0.00    -0.003 C 
ATOM     17  C   UNL     1      32.902  -8.961 -22.570  0.00  0.00    +0.057 C 
ATOM     18  C   UNL     1      34.824  -8.288 -23.869  0.00  0.00    +0.001 C 
ATOM     19  C   UNL     1      33.854  -7.999 -22.909  0.00  0.00    +0.011 C 
ENDBRANCH  12  14
ENDBRANCH   9  12
ENDBRANCH   3  10
BRANCH   7  20
ATOM     20  C   UNL     1      35.172 -18.025 -22.001  0.00  0.00    +0.013 C 
BRANCH  20  21
ATOM     21  N   UNL     1      36.506 -18.071 -22.583  0.00  0.00    +0.387 N 
ATOM     22  H   UNL     1      36.538 -18.793 -23.303  0.00  0.00    -0.089 HD
ATOM     23  H   UNL     1      37.188 -18.285 -21.856  0.00  0.00    -0.089 HD
ATOM     24  H   UNL     1      36.727 -17.166 -23.000  0.00  0.00    -0.089 HD
ENDBRANCH  20  21
BRANCH  20  25
ATOM     25  C   UNL     1      34.508 -19.398 -22.018  0.00  0.00    -0.013 C 
BRANCH  25  26
ATOM     26  C   UNL     1      34.469 -20.045 -20.634  0.00  0.00    -0.002 C 
ATOM     27  C   UNL     1      33.160 -20.821 -20.436  0.00  0.00    -0.000 C 
ATOM     28  C   UNL     1      35.682 -20.961 -20.429  0.00  0.00    -0.000 C 
ATOM     29  C   UNL     1      33.119 -21.520 -19.080  0.00  0.00    -0.000 C 
ATOM     30  C   UNL     1      35.638 -21.661 -19.073  0.00  0.00    -0.000 C 
ATOM     31  C   UNL     1      34.331 -22.423 -18.876  0.00  0.00    -0.000 C 
ENDBRANCH  25  26
ENDBRANCH  20  25
ENDBRANCH   7  20
TORSDOF 7
ENDMDL
MODEL 2
REMARK VINA RESULT:     -10.3      1.943      2.935
REMARK  Name = 42615254
REMARK  7 active torsions:
REMARK  status: ('A' for Active; 'I' for Inactive)
REMARK    1  A    between atoms: C_3  and  C_10
REMARK    2  A    between atoms: C_7  and  C_20
REMARK    3  A    between atoms: N_9  and  C_12
REMARK    4  A    between atoms: C_12  and  C_14
REMARK    5  A    between atoms: C_20  and  N_21
REMARK    6  A    between atoms: C_20  and  C_25
REMARK    7  A    between atoms: C_25  and  C_26
REMARK                            x       y       z     vdW  Elec       q    Type
REMARK                         _______ _______ _______ _____ _____    ______ ____
ROOT
ATOM      1  O   UNL     1      35.055 -15.714 -20.439  0.00  0.00    -0.277 OA
ATOM      2  N   UNL     1      34.497 -15.895 -22.678  0.00  0.00    -0.275 N 
ATOM      3  C   UNL     1      34.253 -14.476 -22.904  0.00  0.00    +0.152 C 
ATOM      4  C   UNL     1      34.227 -14.324 -24.420  0.00  0.00    +0.031 C 
ATOM      5  C   UNL     1      34.360 -16.657 -23.917  0.00  0.00    +0.094 C 
ATOM      6  C   UNL     1      33.733 -15.685 -24.905  0.00  0.00    +0.024 C 
ATOM      7  C   UNL     1      34.953 -16.388 -21.466  0.00  0.00    +0.205 C 
ENDROOT
BRANCH   3  10
ATOM      8  O   UNL     1      32.216 -15.021 -21.782  0.00  0.00    -0.273 OA
ATOM      9  N   UNL     1      32.610 -12.810 -22.393  0.00  0.00    -0.299 N 
ATOM     10  C   UNL     1      32.923 -14.154 -22.290  0.00  0.00    +0.241 C 
ATOM     11  H   UNL     1      33.261 -12.209 -22.823  0.00  0.00    +0.150 HD
BRANCH   9  12
ATOM     12  C   UNL     1      31.375 -12.245 -21.900  0.00  0.00    +0.116 C 
BRANCH  12  14
ATOM     13 CL   UNL     1      32.692  -7.212 -22.128  0.00  0.00    -0.082 Cl
ATOM     14  C   UNL     1      31.598 -10.942 -21.187  0.00  0.00    -0.002 C 
ATOM     15  C   UNL     1      31.994  -9.813 -21.905  0.00  0.00    +0.009 C 
ATOM     16  C   UNL     1      31.407 -10.861 -19.808  0.00  0.00    -0.003 C 
ATOM     17  C   UNL     1      32.200  -8.604 -21.243  0.00  0.00    +0.057 C 
ATOM     18  C   UNL     1      31.613  -9.650 -19.146  0.00  0.00    +0.001 C 
ATOM     19  C   UNL     1      32.010  -8.521 -19.863  0.00  0.00    +0.011 C 
ENDBRANCH  12  14
ENDBRANCH   9  12
ENDBRANCH   3  10
BRANCH   7  20
ATOM     20  C   UNL     1      35.322 -17.850 -21.455  0.00  0.00    +0.013 C 
BRANCH  20  21
ATOM     21  N   UNL     1      36.139 -18.049 -22.645  0.00  0.00    +0.387 N 
ATOM     22  H   UNL     1      36.090 -17.217 -23.234  0.00  0.00    -0.089 HD
ATOM     23  H   UNL     1      35.793 -18.855 -23.165  0.00  0.00    -0.089 HD
ATOM     24  H   UNL     1      37.107 -18.213 -22.368  0.00  0.00    -0.089 HD
ENDBRANCH  20  21
BRANCH  20  25
ATOM     25  C   UNL     1      34.078 -18.733 -21.479  0.00  0.00    -0.013 C 
BRANCH  25  26
ATOM     26  C   UNL     1      34.353 -20.143 -20.957  0.00  0.00    -0.002 C 
ATOM     27  C   UNL     1      35.731 -20.212 -20.285  0.00  0.00    -0.000 C 
ATOM     28  C   UNL     1      33.250 -20.585 -19.987  0.00  0.00    -0.000 C 
ATOM     29  C   UNL     1      36.007 -21.598 -19.708  0.00  0.00    -0.000 C 
ATOM     30  C   UNL     1      33.530 -21.971 -19.410  0.00  0.00    -0.000 C 
ATOM     31  C   UNL     1      34.904 -22.039 -18.751  0.00  0.00    -0.000 C 
ENDBRANCH  25  26
ENDBRANCH  20  25
ENDBRANCH   7  20
TORSDOF 7
ENDMDL
MODEL 3
REMARK VINA RESULT:     -10.0      3.242      9.763
REMARK  Name = 42615254
REMARK  7 active torsions:
REMARK  status: ('A' for Active; 'I' for Inactive)
REMARK    1  A    between atoms: C_3  and  C_10
REMARK    2  A    between atoms: C_7  and  C_20
REMARK    3  A    between atoms: N_9  and  C_12
REMARK    4  A    between atoms: C_12  and  C_14
REMARK    5  A    between atoms: C_20  and  N_21
REMARK    6  A    between atoms: C_20  and  C_25
REMARK    7  A    between atoms: C_25  and  C_26
REMARK                            x       y       z     vdW  Elec       q    Type
REMARK                         _______ _______ _______ _____ _____    ______ ____
ROOT
ATOM      1  O   UNL     1      31.002 -11.724 -21.293  0.00  0.00    -0.277 OA
ATOM      2  N   UNL     1      32.545 -11.980 -22.999  0.00  0.00    -0.275 N 
ATOM      3  C   UNL     1      32.157 -13.333 -23.373  0.00  0.00    +0.152 C 
ATOM      4  C   UNL     1      32.808 -13.561 -24.732  0.00  0.00    +0.031 C 
ATOM      5  C   UNL     1      33.585 -11.466 -23.886  0.00  0.00    +0.094 C 
ATOM      6  C   UNL     1      34.049 -12.675 -24.684  0.00  0.00    +0.024 C 
ATOM      7  C   UNL     1      31.877 -11.256 -22.024  0.00  0.00    +0.205 C 
ENDROOT
BRANCH   3  10
ATOM      8  O   UNL     1      32.001 -14.752 -21.458  0.00  0.00    -0.273 OA
ATOM      9  N   UNL     1      34.076 -14.441 -22.465  0.00  0.00    -0.299 N 
ATOM     10  C   UNL     1      32.711 -14.256 -22.329  0.00  0.00    +0.241 C 
ATOM     11  H   UNL     1      34.538 -13.989 -23.207  0.00  0.00    +0.150 HD
BRANCH   9  12
ATOM     12  C   UNL     1      34.856 -15.267 -21.572  0.00  0.00    +0.116 C 
BRANCH  12  14
ATOM     13 CL   UNL     1      34.004 -20.271 -20.405  0.00  0.00    -0.082 Cl
ATOM     14  C   UNL     1      34.865 -16.706 -22.002  0.00  0.00    -0.002 C 
ATOM     15  C   UNL     1      34.475 -17.704 -21.108  0.00  0.00    +0.009 C 
ATOM     16  C   UNL     1      35.262 -17.043 -23.296  0.00  0.00    -0.003 C 
ATOM     17  C   UNL     1      34.483 -19.039 -21.509  0.00  0.00    +0.057 C 
ATOM     18  C   UNL     1      35.269 -18.380 -23.696  0.00  0.00    +0.001 C 
ATOM     19  C   UNL     1      34.880 -19.378 -22.803  0.00  0.00    +0.011 C 
ENDBRANCH  12  14
ENDBRANCH   9  12
ENDBRANCH   3  10
BRANCH   7  20
ATOM     20  C   UNL     1      32.292  -9.814 -21.885  0.00  0.00    +0.013 C 
BRANCH  20  21
ATOM     21  N   UNL     1      32.021  -9.468 -20.496  0.00  0.00    +0.387 N 
ATOM     22  H   UNL     1      32.792  -9.787 -19.909  0.00  0.00    -0.089 HD
ATOM     23  H   UNL     1      31.156  -9.917 -20.196  0.00  0.00    -0.089 HD
ATOM     24  H   UNL     1      31.926  -8.456 -20.411  0.00  0.00    -0.089 HD
ENDBRANCH  20  21
BRANCH  20  25
ATOM     25  C   UNL     1      31.513  -8.919 -22.844  0.00  0.00    -0.013 C 
BRANCH  25  26
ATOM     26  C   UNL     1      32.309  -7.685 -23.267  0.00  0.00    -0.002 C 
ATOM     27  C   UNL     1      33.702  -8.085 -23.771  0.00  0.00    -0.000 C 
ATOM     28  C   UNL     1      31.548  -6.892 -24.338  0.00  0.00    -0.000 C 
ATOM     29  C   UNL     1      34.497  -6.873 -24.250  0.00  0.00    -0.000 C 
ATOM     30  C   UNL     1      32.346  -5.682 -24.817  0.00  0.00    -0.000 C 
ATOM     31  C   UNL     1      33.734  -6.082 -25.308  0.00  0.00    -0.000 C 
ENDBRANCH  25  26
ENDBRANCH  20  25
ENDBRANCH   7  20
TORSDOF 7
ENDMDL
MODEL 4
REMARK VINA RESULT:      -9.9      7.401     12.280
REMARK  Name = 42615254
REMARK  7 active torsions:
REMARK  status: ('A' for Active; 'I' for Inactive)
REMARK    1  A    between atoms: C_3  and  C_10
REMARK    2  A    between atoms: C_7  and  C_20
REMARK    3  A    between atoms: N_9  and  C_12
REMARK    4  A    between atoms: C_12  and  C_14
REMARK    5  A    between atoms: C_20  and  N_21
REMARK    6  A    between atoms: C_20  and  C_25
REMARK    7  A    between atoms: C_25  and  C_26
REMARK                            x       y       z     vdW  Elec       q    Type
REMARK                         _______ _______ _______ _____ _____    ______ ____
ROOT
ATOM      1  O   UNL     1      34.890 -22.954 -17.126  0.00  0.00    -0.277 OA
ATOM      2  N   UNL     1      36.588 -23.645 -15.713  0.00  0.00    -0.275 N 
ATOM      3  C   UNL     1      35.829 -24.693 -15.043  0.00  0.00    +0.152 C 
ATOM      4  C   UNL     1      36.879 -25.528 -14.319  0.00  0.00    +0.031 C 
ATOM      5  C   UNL     1      37.972 -23.617 -15.248  0.00  0.00    +0.094 C 
ATOM      6  C   UNL     1      37.992 -24.525 -14.028  0.00  0.00    +0.024 C 
ATOM      7  C   UNL     1      36.066 -22.904 -16.762  0.00  0.00    +0.205 C 
ENDROOT
BRANCH   3  10
ATOM      8  O   UNL     1      35.275 -23.621 -12.982  0.00  0.00    -0.273 OA
ATOM      9  N   UNL     1      33.608 -23.928 -14.577  0.00  0.00    -0.299 N 
ATOM     10  C   UNL     1      34.897 -24.017 -14.081  0.00  0.00    +0.241 C 
ATOM     11  H   UNL     1      33.427 -24.283 -15.477  0.00  0.00    +0.150 HD
BRANCH   9  12
ATOM     12  C   UNL     1      32.515 -23.340 -13.837  0.00  0.00    +0.116 C 
BRANCH  12  14
ATOM     13 CL   UNL     1      28.066 -22.128 -16.258  0.00  0.00    -0.082 Cl
ATOM     14  C   UNL     1      31.179 -23.778 -14.364  0.00  0.00    -0.002 C 
ATOM     15  C   UNL     1      30.341 -22.858 -14.994  0.00  0.00    +0.009 C 
ATOM     16  C   UNL     1      30.779 -25.107 -14.228  0.00  0.00    -0.003 C 
ATOM     17  C   UNL     1      29.102 -23.266 -15.484  0.00  0.00    +0.057 C 
ATOM     18  C   UNL     1      29.538 -25.515 -14.719  0.00  0.00    +0.001 C 
ATOM     19  C   UNL     1      28.699 -24.595 -15.347  0.00  0.00    +0.011 C 
ENDBRANCH  12  14
ENDBRANCH   9  12
ENDBRANCH   3  10
BRANCH   7  20
ATOM     20  C   UNL     1      37.040 -21.986 -17.457  0.00  0.00    +0.013 C 
BRANCH  20  21
ATOM     21  N   UNL     1      36.814 -20.672 -16.871  0.00  0.00    +0.387 N 
ATOM     22  H   UNL     1      36.377 -20.062 -17.563  0.00  0.00    -0.089 HD
ATOM     23  H   UNL     1      37.704 -20.272 -16.579  0.00  0.00    -0.089 HD
ATOM     24  H   UNL     1      36.199 -20.761 -16.062  0.00  0.00    -0.089 HD
ENDBRANCH  20  21
BRANCH  20  25
ATOM     25  C   UNL     1      36.806 -21.973 -18.964  0.00  0.00    -0.013 C 
BRANCH  25  26
ATOM     26  C   UNL     1      35.942 -20.794 -19.410  0.00  0.00    -0.002 C 
ATOM     27  C   UNL     1      36.663 -19.969 -20.484  0.00  0.00    -0.000 C 
ATOM     28  C   UNL     1      34.581 -21.284 -19.922  0.00  0.00    -0.000 C 
ATOM     29  C   UNL     1      35.798 -18.816 -20.985  0.00  0.00    -0.000 C 
ATOM     30  C   UNL     1      33.718 -20.128 -20.424  0.00  0.00    -0.000 C 
ATOM     31  C   UNL     1      34.443 -19.305 -21.484  0.00  0.00    -0.000 C 
ENDBRANCH  25  26
ENDBRANCH  20  25
ENDBRANCH   7  20
TORSDOF 7
ENDMDL
MODEL 5
REMARK VINA RESULT:      -9.8      2.122      2.918
REMARK  Name = 42615254
REMARK  7 active torsions:
REMARK  status: ('A' for Active; 'I' for Inactive)
REMARK    1  A    between atoms: C_3  and  C_10
REMARK    2  A    between atoms: C_7  and  C_20
REMARK    3  A    between atoms: N_9  and  C_12
REMARK    4  A    between atoms: C_12  and  C_14
REMARK    5  A    between atoms: C_20  and  N_21
REMARK    6  A    between atoms: C_20  and  C_25
REMARK    7  A    between atoms: C_25  and  C_26
REMARK                            x       y       z     vdW  Elec       q    Type
REMARK                         _______ _______ _______ _____ _____    ______ ____
ROOT
ATOM      1  O   UNL     1      35.195 -14.664 -21.653  0.00  0.00    -0.277 OA
ATOM      2  N   UNL     1      34.124 -14.829 -23.698  0.00  0.00    -0.275 N 
ATOM      3  C   UNL     1      33.838 -13.408 -23.851  0.00  0.00    +0.152 C 
ATOM      4  C   UNL     1      33.456 -13.246 -25.318  0.00  0.00    +0.031 C 
ATOM      5  C   UNL     1      33.696 -15.582 -24.874  0.00  0.00    +0.094 C 
ATOM      6  C   UNL     1      32.857 -14.603 -25.680  0.00  0.00    +0.024 C 
ATOM      7  C   UNL     1      34.851 -15.331 -22.631  0.00  0.00    +0.205 C 
ENDROOT
BRANCH   3  10
ATOM      8  O   UNL     1      32.033 -13.968 -22.392  0.00  0.00    -0.273 OA
ATOM      9  N   UNL     1      32.479 -11.724 -22.825  0.00  0.00    -0.299 N 
ATOM     10  C   UNL     1      32.692 -13.088 -22.939  0.00  0.00    +0.241 C 
ATOM     11  H   UNL     1      33.077 -11.114 -23.314  0.00  0.00    +0.150 HD
BRANCH   9  12
ATOM     12  C   UNL     1      31.421 -11.154 -22.023  0.00  0.00    +0.116 C 
BRANCH  12  14
ATOM     13 CL   UNL     1      31.605  -6.226 -23.697  0.00  0.00    -0.082 Cl
ATOM     14  C   UNL     1      31.665  -9.703 -21.721  0.00  0.00    -0.002 C 
ATOM     15  C   UNL     1      31.536  -8.749 -22.731  0.00  0.00    +0.009 C 
ATOM     16  C   UNL     1      32.019  -9.310 -20.431  0.00  0.00    -0.003 C 
ATOM     17  C   UNL     1      31.762  -7.402 -22.450  0.00  0.00    +0.057 C 
ATOM     18  C   UNL     1      32.244  -7.962 -20.150  0.00  0.00    +0.001 C 
ATOM     19  C   UNL     1      32.116  -7.008 -21.159  0.00  0.00    +0.011 C 
ENDBRANCH  12  14
ENDBRANCH   9  12
ENDBRANCH   3  10
BRANCH   7  20
ATOM     20  C   UNL     1      35.207 -16.793 -22.716  0.00  0.00    +0.013 C 
BRANCH  20  21
ATOM     21  N   UNL     1      35.412 -17.057 -24.134  0.00  0.00    +0.387 N 
ATOM     22  H   UNL     1      34.678 -16.599 -24.675  0.00  0.00    -0.089 HD
ATOM     23  H   UNL     1      35.381 -18.062 -24.301  0.00  0.00    -0.089 HD
ATOM     24  H   UNL     1      36.321 -16.692 -24.419  0.00  0.00    -0.089 HD
ENDBRANCH  20  21
BRANCH  20  25
ATOM     25  C   UNL     1      34.095 -17.666 -22.142  0.00  0.00    -0.013 C 
BRANCH  25  26
ATOM     26  C   UNL     1      34.597 -18.605 -21.046  0.00  0.00    -0.002 C 
ATOM     27  C   UNL     1      33.744 -19.879 -20.991  0.00  0.00    -0.000 C 
ATOM     28  C   UNL     1      36.076 -18.948 -21.262  0.00  0.00    -0.000 C 
ATOM     29  C   UNL     1      34.258 -20.857 -19.938  0.00  0.00    -0.000 C 
ATOM     30  C   UNL     1      36.588 -19.928 -20.209  0.00  0.00    -0.000 C 
ATOM     31  C   UNL     1      35.731 -21.189 -20.151  0.00  0.00    -0.000 C 
ENDBRANCH  25  26
ENDBRANCH  20  25
ENDBRANCH   7  20
TORSDOF 7
ENDMDL
MODEL 6
REMARK VINA RESULT:      -9.8      3.823     10.571
REMARK  Name = 42615254
REMARK  7 active torsions:
REMARK  status: ('A' for Active; 'I' for Inactive)
REMARK    1  A    between atoms: C_3  and  C_10
REMARK    2  A    between atoms: C_7  and  C_20
REMARK    3  A    between atoms: N_9  and  C_12
REMARK    4  A    between atoms: C_12  and  C_14
REMARK    5  A    between atoms: C_20  and  N_21
REMARK    6  A    between atoms: C_20  and  C_25
REMARK    7  A    between atoms: C_25  and  C_26
REMARK                            x       y       z     vdW  Elec       q    Type
REMARK                         _______ _______ _______ _____ _____    ______ ____
ROOT
ATOM      1  O   UNL     1      31.121  -9.768 -22.656  0.00  0.00    -0.277 OA
ATOM      2  N   UNL     1      33.172  -9.963 -23.710  0.00  0.00    -0.275 N 
ATOM      3  C   UNL     1      32.925 -11.266 -24.315  0.00  0.00    +0.152 C 
ATOM      4  C   UNL     1      34.020 -11.419 -25.364  0.00  0.00    +0.031 C 
ATOM      5  C   UNL     1      34.470  -9.431 -24.117  0.00  0.00    +0.094 C 
ATOM      6  C   UNL     1      35.173 -10.596 -24.797  0.00  0.00    +0.024 C 
ATOM      7  C   UNL     1      32.207  -9.285 -22.982  0.00  0.00    +0.205 C 
ENDROOT
BRANCH   3  10
ATOM      8  O   UNL     1      32.311 -12.287 -22.245  0.00  0.00    -0.273 OA
ATOM      9  N   UNL     1      34.086 -13.177 -23.459  0.00  0.00    -0.299 N 
ATOM     10  C   UNL     1      33.051 -12.289 -23.225  0.00  0.00    +0.241 C 
ATOM     11  H   UNL     1      34.612 -13.077 -24.284  0.00  0.00    +0.150 HD
BRANCH   9  12
ATOM     12  C   UNL     1      34.432 -14.246 -22.548  0.00  0.00    +0.116 C 
BRANCH  12  14
ATOM     13 CL   UNL     1      35.124 -19.399 -22.247  0.00  0.00    -0.082 Cl
ATOM     14  C   UNL     1      34.495 -15.576 -23.242  0.00  0.00    -0.002 C 
ATOM     15  C   UNL     1      34.750 -16.735 -22.508  0.00  0.00    +0.009 C 
ATOM     16  C   UNL     1      34.297 -15.652 -24.621  0.00  0.00    -0.003 C 
ATOM     17  C   UNL     1      34.807 -17.969 -23.153  0.00  0.00    +0.057 C 
ATOM     18  C   UNL     1      34.355 -16.888 -25.265  0.00  0.00    +0.001 C 
ATOM     19  C   UNL     1      34.610 -18.047 -24.532  0.00  0.00    +0.011 C 
ENDBRANCH  12  14
ENDBRANCH   9  12
ENDBRANCH   3  10
BRANCH   7  20
ATOM     20  C   UNL     1      32.566  -7.878 -22.578  0.00  0.00    +0.013 C 
BRANCH  20  21
ATOM     21  N   UNL     1      32.868  -7.951 -21.155  0.00  0.00    +0.387 N 
ATOM     22  H   UNL     1      32.376  -7.204 -20.664  0.00  0.00    -0.089 HD
ATOM     23  H   UNL     1      33.872  -7.848 -21.014  0.00  0.00    -0.089 HD
ATOM     24  H   UNL     1      32.564  -8.854 -20.789  0.00  0.00    -0.089 HD
ENDBRANCH  20  21
BRANCH  20  25
ATOM     25  C   UNL     1      31.416  -6.914 -22.855  0.00  0.00    -0.013 C 
BRANCH  25  26
ATOM     26  C   UNL     1      31.568  -6.192 -24.192  0.00  0.00    -0.002 C 
ATOM     27  C   UNL     1      30.968  -4.782 -24.118  0.00  0.00    -0.000 C 
ATOM     28  C   UNL     1      33.043  -6.135 -24.611  0.00  0.00    -0.000 C 
ATOM     29  C   UNL     1      31.156  -4.019 -25.427  0.00  0.00    -0.000 C 
ATOM     30  C   UNL     1      33.229  -5.370 -25.920  0.00  0.00    -0.000 C 
ATOM     31  C   UNL     1      32.622  -3.973 -25.845  0.00  0.00    -0.000 C 
ENDBRANCH  25  26
ENDBRANCH  20  25
ENDBRANCH   7  20
TORSDOF 7
ENDMDL
MODEL 7
REMARK VINA RESULT:      -9.7      3.598      9.573
REMARK  Name = 42615254
REMARK  7 active torsions:
REMARK  status: ('A' for Active; 'I' for Inactive)
REMARK    1  A    between atoms: C_3  and  C_10
REMARK    2  A    between atoms: C_7  and  C_20
REMARK    3  A    between atoms: N_9  and  C_12
REMARK    4  A    between atoms: C_12  and  C_14
REMARK    5  A    between atoms: C_20  and  N_21
REMARK    6  A    between atoms: C_20  and  C_25
REMARK    7  A    between atoms: C_25  and  C_26
REMARK                            x       y       z     vdW  Elec       q    Type
REMARK                         _______ _______ _______ _____ _____    ______ ____
ROOT
ATOM      1  O   UNL     1      33.723 -16.841 -20.671  0.00  0.00    -0.277 OA
ATOM      2  N   UNL     1      34.327 -16.916 -22.904  0.00  0.00    -0.275 N 
ATOM      3  C   UNL     1      34.288 -18.367 -23.038  0.00  0.00    +0.152 C 
ATOM      4  C   UNL     1      34.297 -18.617 -24.541  0.00  0.00    +0.031 C 
ATOM      5  C   UNL     1      34.623 -16.277 -24.183  0.00  0.00    +0.094 C 
ATOM      6  C   UNL     1      35.054 -17.414 -25.097  0.00  0.00    +0.024 C 
ATOM      7  C   UNL     1      33.966 -16.267 -21.734  0.00  0.00    +0.205 C 
ENDROOT
BRANCH   3  10
ATOM      8  O   UNL     1      36.648 -18.613 -22.771  0.00  0.00    -0.273 OA
ATOM      9  N   UNL     1      35.224 -19.752 -21.324  0.00  0.00    -0.299 N 
ATOM     10  C   UNL     1      35.522 -18.904 -22.377  0.00  0.00    +0.241 C 
ATOM     11  H   UNL     1      34.279 -19.908 -21.101  0.00  0.00    +0.150 HD
BRANCH   9  12
ATOM     12  C   UNL     1      36.236 -20.420 -20.536  0.00  0.00    +0.116 C 
BRANCH  12  14
ATOM     13 CL   UNL     1      36.781 -22.778 -15.925  0.00  0.00    -0.082 Cl
ATOM     14  C   UNL     1      35.635 -21.253 -19.441  0.00  0.00    -0.002 C 
ATOM     15  C   UNL     1      36.398 -21.589 -18.322  0.00  0.00    +0.009 C 
ATOM     16  C   UNL     1      34.314 -21.688 -19.542  0.00  0.00    -0.003 C 
ATOM     17  C   UNL     1      35.839 -22.362 -17.305  0.00  0.00    +0.057 C 
ATOM     18  C   UNL     1      33.756 -22.461 -18.524  0.00  0.00    +0.001 C 
ATOM     19  C   UNL     1      34.517 -22.798 -17.405  0.00  0.00    +0.011 C 
ENDBRANCH  12  14
ENDBRANCH   9  12
ENDBRANCH   3  10
BRANCH   7  20
ATOM     20  C   UNL     1      33.894 -14.763 -21.820  0.00  0.00    +0.013 C 
BRANCH  20  21
ATOM     21  N   UNL     1      34.534 -14.277 -20.605  0.00  0.00    +0.387 N 
ATOM     22  H   UNL     1      35.194 -14.977 -20.266  0.00  0.00    -0.089 HD
ATOM     23  H   UNL     1      33.825 -14.104 -19.893  0.00  0.00    -0.089 HD
ATOM     24  H   UNL     1      35.032 -13.410 -20.808  0.00  0.00    -0.089 HD
ENDBRANCH  20  21
BRANCH  20  25
ATOM     25  C   UNL     1      32.448 -14.285 -21.918  0.00  0.00    -0.013 C 
BRANCH  25  26
ATOM     26  C   UNL     1      32.311 -13.010 -22.749  0.00  0.00    -0.002 C 
ATOM     27  C   UNL     1      31.926 -11.821 -21.858  0.00  0.00    -0.000 C 
ATOM     28  C   UNL     1      33.608 -12.720 -23.514  0.00  0.00    -0.000 C 
ATOM     29  C   UNL     1      31.834 -10.524 -22.657  0.00  0.00    -0.000 C 
ATOM     30  C   UNL     1      33.515 -11.421 -24.311  0.00  0.00    -0.000 C 
ATOM     31  C   UNL     1      33.123 -10.244 -23.423  0.00  0.00    -0.000 C 
ENDBRANCH  25  26
ENDBRANCH  20  25
ENDBRANCH   7  20
TORSDOF 7
ENDMDL
MODEL 8
REMARK VINA RESULT:      -9.7      1.772      2.531
REMARK  Name = 42615254
REMARK  7 active torsions:
REMARK  status: ('A' for Active; 'I' for Inactive)
REMARK    1  A    between atoms: C_3  and  C_10
REMARK    2  A    between atoms: C_7  and  C_20
REMARK    3  A    between atoms: N_9  and  C_12
REMARK    4  A    between atoms: C_12  and  C_14
REMARK    5  A    between atoms: C_20  and  N_21
REMARK    6  A    between atoms: C_20  and  C_25
REMARK    7  A    between atoms: C_25  and  C_26
REMARK                            x       y       z     vdW  Elec       q    Type
REMARK                         _______ _______ _______ _____ _____    ______ ____
ROOT
ATOM      1  O   UNL     1      33.297 -15.259 -25.073  0.00  0.00    -0.277 OA
ATOM      2  N   UNL     1      33.572 -14.807 -22.820  0.00  0.00    -0.275 N 
ATOM      3  C   UNL     1      32.550 -13.772 -22.732  0.00  0.00    +0.152 C 
ATOM      4  C   UNL     1      32.309 -13.591 -21.238  0.00  0.00    +0.031 C 
ATOM      5  C   UNL     1      34.157 -15.082 -21.510  0.00  0.00    +0.094 C 
ATOM      6  C   UNL     1      33.652 -13.961 -20.614  0.00  0.00    +0.024 C 
ATOM      7  C   UNL     1      33.810 -15.521 -23.983  0.00  0.00    +0.205 C 
ENDROOT
BRANCH   3  10
ATOM      8  O   UNL     1      34.140 -12.565 -24.044  0.00  0.00    -0.273 OA
ATOM      9  N   UNL     1      32.388 -11.403 -23.044  0.00  0.00    -0.299 N 
ATOM     10  C   UNL     1      33.122 -12.534 -23.357  0.00  0.00    +0.241 C 
ATOM     11  H   UNL     1      31.587 -11.505 -22.482  0.00  0.00    +0.150 HD
BRANCH   9  12
ATOM     12  C   UNL     1      32.742 -10.078 -23.503  0.00  0.00    +0.116 C 
BRANCH  12  14
ATOM     13 CL   UNL     1      31.778  -5.090 -22.359  0.00  0.00    -0.082 Cl
ATOM     14  C   UNL     1      32.458  -9.031 -22.466  0.00  0.00    -0.002 C 
ATOM     15  C   UNL     1      32.271  -7.702 -22.849  0.00  0.00    +0.009 C 
ATOM     16  C   UNL     1      32.378  -9.386 -21.120  0.00  0.00    -0.003 C 
ATOM     17  C   UNL     1      32.006  -6.730 -21.886  0.00  0.00    +0.057 C 
ATOM     18  C   UNL     1      32.113  -8.413 -20.156  0.00  0.00    +0.001 C 
ATOM     19  C   UNL     1      31.927  -7.084 -20.539  0.00  0.00    +0.011 C 
ENDBRANCH  12  14
ENDBRANCH   9  12
ENDBRANCH   3  10
BRANCH   7  20
ATOM     20  C   UNL     1      34.775 -16.673 -23.854  0.00  0.00    +0.013 C 
BRANCH  20  21
ATOM     21  N   UNL     1      35.340 -16.851 -25.184  0.00  0.00    +0.387 N 
ATOM     22  H   UNL     1      34.598 -16.785 -25.881  0.00  0.00    -0.089 HD
ATOM     23  H   UNL     1      35.784 -17.767 -25.245  0.00  0.00    -0.089 HD
ATOM     24  H   UNL     1      36.035 -16.124 -25.359  0.00  0.00    -0.089 HD
ENDBRANCH  20  21
BRANCH  20  25
ATOM     25  C   UNL     1      34.065 -17.936 -23.376  0.00  0.00    -0.013 C 
BRANCH  25  26
ATOM     26  C   UNL     1      34.603 -18.435 -22.035  0.00  0.00    -0.002 C 
ATOM     27  C   UNL     1      33.887 -19.725 -21.611  0.00  0.00    -0.000 C 
ATOM     28  C   UNL     1      36.120 -18.651 -22.107  0.00  0.00    -0.000 C 
ATOM     29  C   UNL     1      34.444 -20.273 -20.300  0.00  0.00    -0.000 C 
ATOM     30  C   UNL     1      36.674 -19.202 -20.795  0.00  0.00    -0.000 C 
ATOM     31  C   UNL     1      35.954 -20.478 -20.372  0.00  0.00    -0.000 C 
ENDBRANCH  25  26
ENDBRANCH  20  25
ENDBRANCH   7  20
TORSDOF 7
ENDMDL
MODEL 9
REMARK VINA RESULT:      -9.5      6.385      9.415
REMARK  Name = 42615254
REMARK  7 active torsions:
REMARK  status: ('A' for Active; 'I' for Inactive)
REMARK    1  A    between atoms: C_3  and  C_10
REMARK    2  A    between atoms: C_7  and  C_20
REMARK    3  A    between atoms: N_9  and  C_12
REMARK    4  A    between atoms: C_12  and  C_14
REMARK    5  A    between atoms: C_20  and  N_21
REMARK    6  A    between atoms: C_20  and  C_25
REMARK    7  A    between atoms: C_25  and  C_26
REMARK                            x       y       z     vdW  Elec       q    Type
REMARK                         _______ _______ _______ _____ _____    ______ ____
ROOT
ATOM      1  O   UNL     1      35.896 -22.624 -18.189  0.00  0.00    -0.277 OA
ATOM      2  N   UNL     1      34.437 -22.922 -16.418  0.00  0.00    -0.275 N 
ATOM      3  C   UNL     1      33.381 -23.575 -17.180  0.00  0.00    +0.152 C 
ATOM      4  C   UNL     1      32.468 -24.192 -16.127  0.00  0.00    +0.031 C 
ATOM      5  C   UNL     1      34.104 -22.866 -14.997  0.00  0.00    +0.094 C 
ATOM      6  C   UNL     1      32.639 -23.268 -14.924  0.00  0.00    +0.024 C 
ATOM      7  C   UNL     1      35.650 -22.563 -16.983  0.00  0.00    +0.205 C 
ENDROOT
BRANCH   3  10
ATOM      8  O   UNL     1      31.597 -22.049 -17.615  0.00  0.00    -0.273 OA
ATOM      9  N   UNL     1      33.385 -22.148 -19.103  0.00  0.00    -0.299 N 
ATOM     10  C   UNL     1      32.680 -22.508 -17.967  0.00  0.00    +0.241 C 
ATOM     11  H   UNL     1      34.247 -22.588 -19.278  0.00  0.00    +0.150 HD
BRANCH   9  12
ATOM     12  C   UNL     1      32.915 -21.156 -20.043  0.00  0.00    +0.116 C 
BRANCH  12  14
ATOM     13 CL   UNL     1      34.325 -16.620 -22.178  0.00  0.00    -0.082 Cl
ATOM     14  C   UNL     1      34.011 -20.224 -20.471  0.00  0.00    -0.002 C 
ATOM     15  C   UNL     1      33.696 -18.997 -21.057  0.00  0.00    +0.009 C 
ATOM     16  C   UNL     1      35.345 -20.584 -20.280  0.00  0.00    -0.003 C 
ATOM     17  C   UNL     1      34.715 -18.132 -21.452  0.00  0.00    +0.057 C 
ATOM     18  C   UNL     1      36.364 -19.717 -20.676  0.00  0.00    +0.001 C 
ATOM     19  C   UNL     1      36.050 -18.491 -21.263  0.00  0.00    +0.011 C 
ENDBRANCH  12  14
ENDBRANCH   9  12
ENDBRANCH   3  10
BRANCH   7  20
ATOM     20  C   UNL     1      36.695 -22.061 -16.019  0.00  0.00    +0.013 C 
BRANCH  20  21
ATOM     21  N   UNL     1      37.328 -20.934 -16.691  0.00  0.00    +0.387 N 
ATOM     22  H   UNL     1      38.150 -20.642 -16.163  0.00  0.00    -0.089 HD
ATOM     23  H   UNL     1      36.669 -20.159 -16.751  0.00  0.00    -0.089 HD
ATOM     24  H   UNL     1      37.610 -21.215 -17.631  0.00  0.00    -0.089 HD
ENDBRANCH  20  21
BRANCH  20  25
ATOM     25  C   UNL     1      37.707 -23.152 -15.685  0.00  0.00    -0.013 C 
BRANCH  25  26
ATOM     26  C   UNL     1      37.144 -24.196 -14.722  0.00  0.00    -0.002 C 
ATOM     27  C   UNL     1      37.886 -25.531 -14.876  0.00  0.00    -0.000 C 
ATOM     28  C   UNL     1      37.221 -23.694 -13.274  0.00  0.00    -0.000 C 
ATOM     29  C   UNL     1      37.377 -26.576 -13.887  0.00  0.00    -0.000 C 
ATOM     30  C   UNL     1      36.713 -24.741 -12.286  0.00  0.00    -0.000 C 
ATOM     31  C   UNL     1      37.446 -26.070 -12.449  0.00  0.00    -0.000 C 
ENDBRANCH  25  26
ENDBRANCH  20  25
ENDBRANCH   7  20
TORSDOF 7
ENDMDL
