MODEL 1
REMARK VINA RESULT:      -8.7      0.000      0.000
REMARK  Name = 447957
REMARK  3 active torsions:
REMARK  status: ('A' for Active; 'I' for Inactive)
REMARK    1  A    between atoms: C_3  and  C_9
REMARK    2  A    between atoms: C_6  and  N_14
REMARK    3  A    between atoms: N_15  and  O_18
REMARK                            x       y       z     vdW  Elec       q    Type
REMARK                         _______ _______ _______ _____ _____    ______ ____
ROOT
ATOM      1  N   UNL     1      34.781 -16.723 -22.477  0.00  0.00    -0.337 NA
ATOM      2  N   UNL     1      34.918 -16.080 -20.159  0.00  0.00    -0.166 NA
ATOM      3  C   UNL     1      34.247 -15.513 -22.743  0.00  0.00    +0.140 C 
ATOM      4  C   UNL     1      34.021 -14.548 -21.783  0.00  0.00    +0.051 C 
ATOM      5  C   UNL     1      34.379 -14.890 -20.495  0.00  0.00    +0.114 C 
ATOM      6  C   UNL     1      35.089 -16.937 -21.184  0.00  0.00    +0.182 C 
ENDROOT
BRANCH   3   9
ATOM      7  S   UNL     1      33.364 -13.744 -24.629  0.00  0.00    -0.074 S 
ATOM      8  N   UNL     1      33.577 -15.592 -26.423  0.00  0.00    -0.407 NA
ATOM      9  C   UNL     1      33.919 -15.288 -24.126  0.00  0.00    +0.155 C 
ATOM     10  C   UNL     1      33.967 -16.136 -25.215  0.00  0.00    +0.104 C 
ATOM     11  C   UNL     1      33.238 -14.337 -26.234  0.00  0.00    +0.135 C 
ATOM     12  C   UNL     1      34.393 -17.551 -25.200  0.00  0.00    +0.063 C 
ATOM     13  C   UNL     1      32.765 -13.428 -27.301  0.00  0.00    +0.074 C 
ENDBRANCH   3   9
BRANCH   6  14
ATOM     14  N   UNL     1      35.645 -18.180 -20.873  0.00  0.00    -0.145 NA
ATOM     15  N   UNL     1      35.105 -20.511 -20.646  0.00  0.00    -0.247 N 
ATOM     16  C   UNL     1      34.837 -19.197 -20.902  0.00  0.00    +0.208 C 
ATOM     17  H   UNL     1      34.438 -21.218 -20.804  0.00  0.00    +0.196 HD
BRANCH  15  18
ATOM     18  O   UNL     1      36.360 -20.794 -20.154  0.00  0.00    -0.288 OA
ATOM     19  H   UNL     1      37.009 -20.745 -20.874  0.00  0.00    +0.244 HD
ENDBRANCH  15  18
ENDBRANCH   6  14
TORSDOF 3
ENDMDL
MODEL 2
REMARK VINA RESULT:      -8.6      8.611     10.893
REMARK  Name = 447957
REMARK  3 active torsions:
REMARK  status: ('A' for Active; 'I' for Inactive)
REMARK    1  A    between atoms: C_3  and  C_9
REMARK    2  A    between atoms: C_6  and  N_14
REMARK    3  A    between atoms: N_15  and  O_18
REMARK                            x       y       z     vdW  Elec       q    Type
REMARK                         _______ _______ _______ _____ _____    ______ ____
ROOT
ATOM      1  N   UNL     1      30.559 -22.544 -16.887  0.00  0.00    -0.337 NA
ATOM      2  N   UNL     1      28.866 -23.795 -15.716  0.00  0.00    -0.166 NA
ATOM      3  C   UNL     1      31.481 -23.391 -16.384  0.00  0.00    +0.140 C 
ATOM      4  C   UNL     1      31.176 -24.449 -15.552  0.00  0.00    +0.051 C 
ATOM      5  C   UNL     1      29.839 -24.605 -15.248  0.00  0.00    +0.114 C 
ATOM      6  C   UNL     1      29.290 -22.800 -16.517  0.00  0.00    +0.182 C 
ENDROOT
BRANCH   3   9
ATOM      7  S   UNL     1      33.147 -22.413 -18.316  0.00  0.00    -0.074 S 
ATOM      8  N   UNL     1      35.171 -22.930 -16.794  0.00  0.00    -0.407 NA
ATOM      9  C   UNL     1      32.836 -23.114 -16.781  0.00  0.00    +0.155 C 
ATOM     10  C   UNL     1      34.030 -23.315 -16.117  0.00  0.00    +0.104 C 
ATOM     11  C   UNL     1      34.826 -22.441 -17.964  0.00  0.00    +0.135 C 
ATOM     12  C   UNL     1      34.190 -23.897 -14.768  0.00  0.00    +0.063 C 
ATOM     13  C   UNL     1      35.781 -21.925 -18.969  0.00  0.00    +0.074 C 
ENDBRANCH   3   9
BRANCH   6  14
ATOM     14  N   UNL     1      28.309 -21.943 -17.020  0.00  0.00    -0.145 NA
ATOM     15  N   UNL     1      25.958 -21.456 -16.908  0.00  0.00    -0.247 N 
ATOM     16  C   UNL     1      27.099 -22.136 -16.591  0.00  0.00    +0.208 C 
ATOM     17  H   UNL     1      25.108 -21.619 -16.439  0.00  0.00    +0.196 HD
BRANCH  15  18
ATOM     18  O   UNL     1      26.061 -20.530 -17.922  0.00  0.00    -0.288 OA
ATOM     19  H   UNL     1      25.830 -20.947 -18.766  0.00  0.00    +0.244 HD
ENDBRANCH  15  18
ENDBRANCH   6  14
TORSDOF 3
ENDMDL
MODEL 3
REMARK VINA RESULT:      -8.5      9.882     11.961
REMARK  Name = 447957
REMARK  3 active torsions:
REMARK  status: ('A' for Active; 'I' for Inactive)
REMARK    1  A    between atoms: C_3  and  C_9
REMARK    2  A    between atoms: C_6  and  N_14
REMARK    3  A    between atoms: N_15  and  O_18
REMARK                            x       y       z     vdW  Elec       q    Type
REMARK                         _______ _______ _______ _____ _____    ______ ____
ROOT
ATOM      1  N   UNL     1      30.316 -22.872 -16.023  0.00  0.00    -0.337 NA
ATOM      2  N   UNL     1      28.300 -24.100 -15.538  0.00  0.00    -0.166 NA
ATOM      3  C   UNL     1      31.013 -23.838 -15.392  0.00  0.00    +0.140 C 
ATOM      4  C   UNL     1      30.433 -24.951 -14.817  0.00  0.00    +0.051 C 
ATOM      5  C   UNL     1      29.059 -25.030 -14.921  0.00  0.00    +0.114 C 
ATOM      6  C   UNL     1      28.983 -23.062 -16.058  0.00  0.00    +0.182 C 
ENDROOT
BRANCH   3   9
ATOM      7  S   UNL     1      33.293 -23.862 -13.886  0.00  0.00    -0.074 S 
ATOM      8  N   UNL     1      34.644 -23.143 -15.969  0.00  0.00    -0.407 NA
ATOM      9  C   UNL     1      32.436 -23.631 -15.355  0.00  0.00    +0.155 C 
ATOM     10  C   UNL     1      33.320 -23.252 -16.347  0.00  0.00    +0.104 C 
ATOM     11  C   UNL     1      34.747 -23.441 -14.693  0.00  0.00    +0.135 C 
ATOM     12  C   UNL     1      32.977 -22.959 -17.754  0.00  0.00    +0.063 C 
ATOM     13  C   UNL     1      36.016 -23.435 -13.933  0.00  0.00    +0.074 C 
ENDBRANCH   3   9
BRANCH   6  14
ATOM     14  N   UNL     1      28.230 -22.080 -16.705  0.00  0.00    -0.145 NA
ATOM     15  N   UNL     1      25.973 -21.342 -17.079  0.00  0.00    -0.247 N 
ATOM     16  C   UNL     1      26.940 -22.158 -16.566  0.00  0.00    +0.208 C 
ATOM     17  H   UNL     1      25.027 -21.431 -16.819  0.00  0.00    +0.196 HD
BRANCH  15  18
ATOM     18  O   UNL     1      26.392 -20.389 -17.979  0.00  0.00    -0.288 OA
ATOM     19  H   UNL     1      25.691 -20.227 -18.629  0.00  0.00    +0.244 HD
ENDBRANCH  15  18
ENDBRANCH   6  14
TORSDOF 3
ENDMDL
MODEL 4
REMARK VINA RESULT:      -8.5      9.794     12.099
REMARK  Name = 447957
REMARK  3 active torsions:
REMARK  status: ('A' for Active; 'I' for Inactive)
REMARK    1  A    between atoms: C_3  and  C_9
REMARK    2  A    between atoms: C_6  and  N_14
REMARK    3  A    between atoms: N_15  and  O_18
REMARK                            x       y       z     vdW  Elec       q    Type
REMARK                         _______ _______ _______ _____ _____    ______ ____
ROOT
ATOM      1  N   UNL     1      37.500 -24.545 -13.910  0.00  0.00    -0.337 NA
ATOM      2  N   UNL     1      37.814 -24.570 -11.522  0.00  0.00    -0.166 NA
ATOM      3  C   UNL     1      36.371 -23.832 -13.718  0.00  0.00    +0.140 C 
ATOM      4  C   UNL     1      35.906 -23.456 -12.474  0.00  0.00    +0.051 C 
ATOM      5  C   UNL     1      36.675 -23.856 -11.401  0.00  0.00    +0.114 C 
ATOM      6  C   UNL     1      38.163 -24.876 -12.786  0.00  0.00    +0.182 C 
ENDROOT
BRANCH   3   9
ATOM      7  S   UNL     1      34.004 -23.880 -15.081  0.00  0.00    -0.074 S 
ATOM      8  N   UNL     1      35.144 -22.654 -17.050  0.00  0.00    -0.407 NA
ATOM      9  C   UNL     1      35.666 -23.481 -14.921  0.00  0.00    +0.155 C 
ATOM     10  C   UNL     1      36.094 -22.835 -16.064  0.00  0.00    +0.104 C 
ATOM     11  C   UNL     1      34.004 -23.166 -16.640  0.00  0.00    +0.135 C 
ATOM     12  C   UNL     1      37.460 -22.330 -16.320  0.00  0.00    +0.063 C 
ATOM     13  C   UNL     1      32.753 -23.159 -17.429  0.00  0.00    +0.074 C 
ENDBRANCH   3   9
BRANCH   6  14
ATOM     14  N   UNL     1      39.337 -25.614 -12.949  0.00  0.00    -0.145 NA
ATOM     15  N   UNL     1      40.827 -26.489 -14.619  0.00  0.00    -0.247 N 
ATOM     16  C   UNL     1      39.729 -25.813 -14.171  0.00  0.00    +0.208 C 
ATOM     17  H   UNL     1      41.089 -26.486 -15.568  0.00  0.00    +0.196 HD
BRANCH  15  18
ATOM     18  O   UNL     1      41.550 -27.178 -13.670  0.00  0.00    -0.288 OA
ATOM     19  H   UNL     1      42.286 -26.627 -13.361  0.00  0.00    +0.244 HD
ENDBRANCH  15  18
ENDBRANCH   6  14
TORSDOF 3
ENDMDL
MODEL 5
REMARK VINA RESULT:      -8.3      3.631      6.600
REMARK  Name = 447957
REMARK  3 active torsions:
REMARK  status: ('A' for Active; 'I' for Inactive)
REMARK    1  A    between atoms: C_3  and  C_9
REMARK    2  A    between atoms: C_6  and  N_14
REMARK    3  A    between atoms: N_15  and  O_18
REMARK                            x       y       z     vdW  Elec       q    Type
REMARK                         _______ _______ _______ _____ _____    ______ ____
ROOT
ATOM      1  N   UNL     1      33.877 -17.044 -21.399  0.00  0.00    -0.337 NA
ATOM      2  N   UNL     1      34.221 -15.874 -23.477  0.00  0.00    -0.166 NA
ATOM      3  C   UNL     1      34.489 -18.115 -21.943  0.00  0.00    +0.140 C 
ATOM      4  C   UNL     1      34.987 -18.142 -23.230  0.00  0.00    +0.051 C 
ATOM      5  C   UNL     1      34.823 -16.981 -23.958  0.00  0.00    +0.114 C 
ATOM      6  C   UNL     1      33.777 -15.973 -22.209  0.00  0.00    +0.182 C 
ENDROOT
BRANCH   3   9
ATOM      7  S   UNL     1      33.173 -20.099 -20.603  0.00  0.00    -0.074 S 
ATOM      8  N   UNL     1      35.439 -20.958 -19.704  0.00  0.00    -0.407 NA
ATOM      9  C   UNL     1      34.593 -19.257 -21.074  0.00  0.00    +0.155 C 
ATOM     10  C   UNL     1      35.695 -19.859 -20.500  0.00  0.00    +0.104 C 
ATOM     11  C   UNL     1      34.143 -21.177 -19.686  0.00  0.00    +0.135 C 
ATOM     12  C   UNL     1      37.102 -19.435 -20.661  0.00  0.00    +0.063 C 
ATOM     13  C   UNL     1      33.490 -22.273 -18.937  0.00  0.00    +0.074 C 
ENDBRANCH   3   9
BRANCH   6  14
ATOM     14  N   UNL     1      33.149 -14.845 -21.678  0.00  0.00    -0.145 NA
ATOM     15  N   UNL     1      31.873 -12.902 -22.291  0.00  0.00    -0.247 N 
ATOM     16  C   UNL     1      32.559 -14.059 -22.527  0.00  0.00    +0.208 C 
ATOM     17  H   UNL     1      31.371 -12.441 -23.002  0.00  0.00    +0.196 HD
BRANCH  15  18
ATOM     18  O   UNL     1      31.925 -12.414 -21.005  0.00  0.00    -0.288 OA
ATOM     19  H   UNL     1      32.058 -11.453 -21.028  0.00  0.00    +0.244 HD
ENDBRANCH  15  18
ENDBRANCH   6  14
TORSDOF 3
ENDMDL
MODEL 6
REMARK VINA RESULT:      -8.3      3.201      4.555
REMARK  Name = 447957
REMARK  3 active torsions:
REMARK  status: ('A' for Active; 'I' for Inactive)
REMARK    1  A    between atoms: C_3  and  C_9
REMARK    2  A    between atoms: C_6  and  N_14
REMARK    3  A    between atoms: N_15  and  O_18
REMARK                            x       y       z     vdW  Elec       q    Type
REMARK                         _______ _______ _______ _____ _____    ______ ____
ROOT
ATOM      1  N   UNL     1      34.003 -14.296 -23.445  0.00  0.00    -0.337 NA
ATOM      2  N   UNL     1      33.879 -16.053 -25.089  0.00  0.00    -0.166 NA
ATOM      3  C   UNL     1      33.484 -13.453 -24.360  0.00  0.00    +0.140 C 
ATOM      4  C   UNL     1      33.142 -13.830 -25.643  0.00  0.00    +0.051 C 
ATOM      5  C   UNL     1      33.364 -15.156 -25.955  0.00  0.00    +0.114 C 
ATOM      6  C   UNL     1      34.173 -15.563 -23.869  0.00  0.00    +0.182 C 
ENDROOT
BRANCH   3   9
ATOM      7  S   UNL     1      32.199 -11.770 -22.633  0.00  0.00    -0.074 S 
ATOM      8  N   UNL     1      33.492  -9.779 -23.654  0.00  0.00    -0.407 NA
ATOM      9  C   UNL     1      33.305 -12.101 -23.903  0.00  0.00    +0.155 C 
ATOM     10  C   UNL     1      33.895 -10.922 -24.316  0.00  0.00    +0.104 C 
ATOM     11  C   UNL     1      32.599 -10.106 -22.746  0.00  0.00    +0.135 C 
ATOM     12  C   UNL     1      34.903 -10.781 -25.387  0.00  0.00    +0.063 C 
ATOM     13  C   UNL     1      31.938  -9.143 -21.838  0.00  0.00    +0.074 C 
ENDBRANCH   3   9
BRANCH   6  14
ATOM     14  N   UNL     1      34.708 -16.464 -22.946  0.00  0.00    -0.145 NA
ATOM     15  N   UNL     1      35.031 -16.820 -20.591  0.00  0.00    -0.247 N 
ATOM     16  C   UNL     1      34.604 -16.137 -21.693  0.00  0.00    +0.208 C 
ATOM     17  H   UNL     1      34.802 -16.530 -19.678  0.00  0.00    +0.196 HD
BRANCH  15  18
ATOM     18  O   UNL     1      35.800 -17.938 -20.826  0.00  0.00    -0.288 OA
ATOM     19  H   UNL     1      36.216 -17.867 -21.699  0.00  0.00    +0.244 HD
ENDBRANCH  15  18
ENDBRANCH   6  14
TORSDOF 3
ENDMDL
MODEL 7
REMARK VINA RESULT:      -8.2      7.826     11.190
REMARK  Name = 447957
REMARK  3 active torsions:
REMARK  status: ('A' for Active; 'I' for Inactive)
REMARK    1  A    between atoms: C_3  and  C_9
REMARK    2  A    between atoms: C_6  and  N_14
REMARK    3  A    between atoms: N_15  and  O_18
REMARK                            x       y       z     vdW  Elec       q    Type
REMARK                         _______ _______ _______ _____ _____    ______ ____
ROOT
ATOM      1  N   UNL     1      34.398 -23.152 -16.895  0.00  0.00    -0.337 NA
ATOM      2  N   UNL     1      32.056 -23.284 -16.347  0.00  0.00    -0.166 NA
ATOM      3  C   UNL     1      34.671 -23.726 -15.706  0.00  0.00    +0.140 C 
ATOM      4  C   UNL     1      33.704 -24.102 -14.796  0.00  0.00    +0.051 C 
ATOM      5  C   UNL     1      32.400 -23.855 -15.173  0.00  0.00    +0.114 C 
ATOM      6  C   UNL     1      33.089 -22.962 -17.148  0.00  0.00    +0.182 C 
ENDROOT
BRANCH   3   9
ATOM      7  S   UNL     1      36.595 -25.373 -14.679  0.00  0.00    -0.074 S 
ATOM      8  N   UNL     1      38.390 -23.621 -15.304  0.00  0.00    -0.407 NA
ATOM      9  C   UNL     1      36.071 -23.926 -15.440  0.00  0.00    +0.155 C 
ATOM     10  C   UNL     1      37.163 -23.120 -15.695  0.00  0.00    +0.104 C 
ATOM     11  C   UNL     1      38.211 -24.803 -14.757  0.00  0.00    +0.135 C 
ATOM     12  C   UNL     1      37.133 -21.790 -16.339  0.00  0.00    +0.063 C 
ATOM     13  C   UNL     1      39.299 -25.648 -14.218  0.00  0.00    +0.074 C 
ENDBRANCH   3   9
BRANCH   6  14
ATOM     14  N   UNL     1      32.769 -22.370 -18.371  0.00  0.00    -0.145 NA
ATOM     15  N   UNL     1      33.697 -21.061 -20.161  0.00  0.00    -0.247 N 
ATOM     16  C   UNL     1      33.726 -21.726 -18.969  0.00  0.00    +0.208 C 
ATOM     17  H   UNL     1      34.514 -20.697 -20.573  0.00  0.00    +0.196 HD
BRANCH  15  18
ATOM     18  O   UNL     1      32.462 -20.925 -20.754  0.00  0.00    -0.288 OA
ATOM     19  H   UNL     1      32.394 -20.048 -21.162  0.00  0.00    +0.244 HD
ENDBRANCH  15  18
ENDBRANCH   6  14
TORSDOF 3
ENDMDL
MODEL 8
REMARK VINA RESULT:      -8.2     10.429     12.380
REMARK  Name = 447957
REMARK  3 active torsions:
REMARK  status: ('A' for Active; 'I' for Inactive)
REMARK    1  A    between atoms: C_3  and  C_9
REMARK    2  A    between atoms: C_6  and  N_14
REMARK    3  A    between atoms: N_15  and  O_18
REMARK                            x       y       z     vdW  Elec       q    Type
REMARK                         _______ _______ _______ _____ _____    ______ ____
ROOT
ATOM      1  N   UNL     1      36.659 -24.663 -13.761  0.00  0.00    -0.337 NA
ATOM      2  N   UNL     1      37.591 -24.611 -11.540  0.00  0.00    -0.166 NA
ATOM      3  C   UNL     1      35.546 -24.084 -13.268  0.00  0.00    +0.140 C 
ATOM      4  C   UNL     1      35.382 -23.743 -11.940  0.00  0.00    +0.051 C 
ATOM      5  C   UNL     1      36.448 -24.033 -11.114  0.00  0.00    +0.114 C 
ATOM      6  C   UNL     1      37.628 -24.895 -12.856  0.00  0.00    +0.182 C 
ENDROOT
BRANCH   3   9
ATOM      7  S   UNL     1      32.892 -24.279 -13.886  0.00  0.00    -0.074 S 
ATOM      8  N   UNL     1      33.373 -23.183 -16.178  0.00  0.00    -0.407 NA
ATOM      9  C   UNL     1      34.513 -23.838 -14.239  0.00  0.00    +0.155 C 
ATOM     10  C   UNL     1      34.571 -23.272 -15.497  0.00  0.00    +0.104 C 
ATOM     11  C   UNL     1      32.419 -23.684 -15.424  0.00  0.00    +0.135 C 
ATOM     12  C   UNL     1      35.786 -22.762 -16.167  0.00  0.00    +0.063 C 
ATOM     13  C   UNL     1      30.995 -23.761 -15.819  0.00  0.00    +0.074 C 
ENDBRANCH   3   9
BRANCH   6  14
ATOM     14  N   UNL     1      38.797 -25.494 -13.332  0.00  0.00    -0.145 NA
ATOM     15  N   UNL     1      40.200 -25.665 -15.276  0.00  0.00    -0.247 N 
ATOM     16  C   UNL     1      39.123 -25.226 -14.560  0.00  0.00    +0.208 C 
ATOM     17  H   UNL     1      40.409 -25.310 -16.171  0.00  0.00    +0.196 HD
BRANCH  15  18
ATOM     18  O   UNL     1      40.977 -26.631 -14.678  0.00  0.00    -0.288 OA
ATOM     19  H   UNL     1      41.361 -26.278 -13.861  0.00  0.00    +0.244 HD
ENDBRANCH  15  18
ENDBRANCH   6  14
TORSDOF 3
ENDMDL
MODEL 9
REMARK VINA RESULT:      -8.2      2.431      3.701
REMARK  Name = 447957
REMARK  3 active torsions:
REMARK  status: ('A' for Active; 'I' for Inactive)
REMARK    1  A    between atoms: C_3  and  C_9
REMARK    2  A    between atoms: C_6  and  N_14
REMARK    3  A    between atoms: N_15  and  O_18
REMARK                            x       y       z     vdW  Elec       q    Type
REMARK                         _______ _______ _______ _____ _____    ______ ____
ROOT
ATOM      1  N   UNL     1      34.462 -15.810 -22.718  0.00  0.00    -0.337 NA
ATOM      2  N   UNL     1      34.975 -17.391 -24.462  0.00  0.00    -0.166 NA
ATOM      3  C   UNL     1      33.806 -15.068 -23.633  0.00  0.00    +0.140 C 
ATOM      4  C   UNL     1      33.693 -15.417 -24.964  0.00  0.00    +0.051 C 
ATOM      5  C   UNL     1      34.304 -16.601 -25.326  0.00  0.00    +0.114 C 
ATOM      6  C   UNL     1      35.015 -16.942 -23.193  0.00  0.00    +0.182 C 
ENDROOT
BRANCH   3   9
ATOM      7  S   UNL     1      32.324 -13.901 -21.657  0.00  0.00    -0.074 S 
ATOM      8  N   UNL     1      32.555 -11.627 -22.865  0.00  0.00    -0.407 NA
ATOM      9  C   UNL     1      33.218 -13.859 -23.122  0.00  0.00    +0.155 C 
ATOM     10  C   UNL     1      33.231 -12.569 -23.615  0.00  0.00    +0.104 C 
ATOM     11  C   UNL     1      32.038 -12.216 -21.810  0.00  0.00    +0.135 C 
ATOM     12  C   UNL     1      33.894 -12.118 -24.857  0.00  0.00    +0.063 C 
ATOM     13  C   UNL     1      31.242 -11.524 -20.772  0.00  0.00    +0.074 C 
ENDBRANCH   3   9
BRANCH   6  14
ATOM     14  N   UNL     1      35.701 -17.735 -22.272  0.00  0.00    -0.145 NA
ATOM     15  N   UNL     1      35.381 -19.431 -20.598  0.00  0.00    -0.247 N 
ATOM     16  C   UNL     1      34.980 -18.549 -21.560  0.00  0.00    +0.208 C 
ATOM     17  H   UNL     1      34.759 -20.080 -20.196  0.00  0.00    +0.196 HD
BRANCH  15  18
ATOM     18  O   UNL     1      36.703 -19.362 -20.219  0.00  0.00    -0.288 OA
ATOM     19  H   UNL     1      37.018 -18.449 -20.307  0.00  0.00    +0.244 HD
ENDBRANCH  15  18
ENDBRANCH   6  14
TORSDOF 3
ENDMDL
