MODEL 1
REMARK VINA RESULT:     -11.2      0.000      0.000
REMARK  Name = 11710963
REMARK  3 active torsions:
REMARK  status: ('A' for Active; 'I' for Inactive)
REMARK    1  A    between atoms: C_3  and  C_17
REMARK    2  A    between atoms: C_4  and  N_27
REMARK    3  A    between atoms: C_12  and  S_23
REMARK                            x       y       z     vdW  Elec       q    Type
REMARK                         _______ _______ _______ _____ _____    ______ ____
ROOT
ATOM      1  N   UNL     1      34.997 -21.244 -19.015  0.00  0.00    -0.266 N 
ATOM      2  N   UNL     1      37.156 -20.838 -18.710  0.00  0.00    -0.394 NA
ATOM      3  C   UNL     1      34.811 -19.877 -21.510  0.00  0.00    +0.015 C 
ATOM      4  C   UNL     1      33.543 -20.017 -20.621  0.00  0.00    -0.041 C 
ATOM      5  C   UNL     1      36.055 -19.643 -20.625  0.00  0.00    +0.077 C 
ATOM      6  C   UNL     1      33.698 -21.207 -19.660  0.00  0.00    +0.076 C 
ATOM      7  C   UNL     1      36.108 -20.574 -19.462  0.00  0.00    +0.164 C 
ATOM      8  C   UNL     1      35.352 -21.993 -17.923  0.00  0.00    +0.079 C 
ATOM      9  C   UNL     1      36.707 -21.718 -17.751  0.00  0.00    +0.129 C 
ATOM     10  C   UNL     1      34.645 -22.866 -17.091  0.00  0.00    +0.018 C 
ATOM     11  C   UNL     1      37.406 -22.330 -16.698  0.00  0.00    +0.105 C 
ATOM     12  C   UNL     1      36.713 -23.205 -15.852  0.00  0.00    +0.091 C 
ATOM     13  C   UNL     1      35.356 -23.467 -16.047  0.00  0.00    +0.016 C 
ENDROOT
BRANCH   3  17
ATOM     14  F   UNL     1      34.948 -20.395 -24.297  0.00  0.00    -0.204 F 
ATOM     15  F   UNL     1      34.317 -15.182 -22.770  0.00  0.00    -0.202 F 
ATOM     16  F   UNL     1      34.463 -15.825 -25.423  0.00  0.00    -0.202 F 
ATOM     17  C   UNL     1      34.717 -18.788 -22.566  0.00  0.00    +0.006 C 
ATOM     18  C   UNL     1      34.791 -19.119 -23.916  0.00  0.00    +0.138 C 
ATOM     19  C   UNL     1      34.557 -17.461 -22.175  0.00  0.00    +0.030 C 
ATOM     20  C   UNL     1      34.469 -16.459 -23.142  0.00  0.00    +0.167 C 
ATOM     21  C   UNL     1      34.705 -18.118 -24.882  0.00  0.00    +0.061 C 
ATOM     22  C   UNL     1      34.544 -16.788 -24.495  0.00  0.00    +0.170 C 
ENDBRANCH   3  17
BRANCH  12  23
ATOM     23  S   UNL     1      37.562 -23.979 -14.535  0.00  0.00    +0.007 S 
ATOM     24  O   UNL     1      38.885 -24.351 -15.014  0.00  0.00    -0.169 OA
ATOM     25  O   UNL     1      37.429 -23.156 -13.342  0.00  0.00    -0.169 OA
ATOM     26  C   UNL     1      36.645 -25.474 -14.239  0.00  0.00    +0.181 C 
ENDBRANCH  12  23
BRANCH   4  27
ATOM     27  N   UNL     1      32.323 -20.225 -21.404  0.00  0.00    +0.383 N 
ATOM     28  H   UNL     1      32.490 -20.940 -22.113  0.00  0.00    -0.089 HD
ATOM     29  H   UNL     1      32.059 -19.352 -21.860  0.00  0.00    -0.089 HD
ATOM     30  H   UNL     1      31.570 -20.528 -20.787  0.00  0.00    -0.089 HD
ENDBRANCH   4  27
TORSDOF 3
ENDMDL
MODEL 2
REMARK VINA RESULT:     -11.1      1.164      1.847
REMARK  Name = 11710963
REMARK  3 active torsions:
REMARK  status: ('A' for Active; 'I' for Inactive)
REMARK    1  A    between atoms: C_3  and  C_17
REMARK    2  A    between atoms: C_4  and  N_27
REMARK    3  A    between atoms: C_12  and  S_23
REMARK                            x       y       z     vdW  Elec       q    Type
REMARK                         _______ _______ _______ _____ _____    ______ ____
ROOT
ATOM      1  N   UNL     1      34.917 -21.544 -18.662  0.00  0.00    -0.266 N 
ATOM      2  N   UNL     1      37.084 -21.248 -18.298  0.00  0.00    -0.394 NA
ATOM      3  C   UNL     1      34.868 -20.175 -21.162  0.00  0.00    +0.015 C 
ATOM      4  C   UNL     1      33.571 -20.249 -20.308  0.00  0.00    -0.041 C 
ATOM      5  C   UNL     1      36.098 -20.003 -20.243  0.00  0.00    +0.077 C 
ATOM      6  C   UNL     1      33.639 -21.443 -19.342  0.00  0.00    +0.076 C 
ATOM      7  C   UNL     1      36.072 -20.933 -19.079  0.00  0.00    +0.164 C 
ATOM      8  C   UNL     1      35.203 -22.308 -17.559  0.00  0.00    +0.079 C 
ATOM      9  C   UNL     1      36.565 -22.101 -17.351  0.00  0.00    +0.129 C 
ATOM     10  C   UNL     1      34.430 -23.142 -16.747  0.00  0.00    +0.018 C 
ATOM     11  C   UNL     1      37.203 -22.746 -16.278  0.00  0.00    +0.105 C 
ATOM     12  C   UNL     1      36.444 -23.583 -15.451  0.00  0.00    +0.091 C 
ATOM     13  C   UNL     1      35.081 -23.776 -15.684  0.00  0.00    +0.016 C 
ENDROOT
BRANCH   3  17
ATOM     14  F   UNL     1      35.073 -17.411 -20.552  0.00  0.00    -0.204 F 
ATOM     15  F   UNL     1      34.627 -18.762 -25.833  0.00  0.00    -0.202 F 
ATOM     16  F   UNL     1      34.834 -16.135 -25.103  0.00  0.00    -0.202 F 
ATOM     17  C   UNL     1      34.859 -19.085 -22.221  0.00  0.00    +0.006 C 
ATOM     18  C   UNL     1      34.965 -17.749 -21.845  0.00  0.00    +0.138 C 
ATOM     19  C   UNL     1      34.746 -19.432 -23.565  0.00  0.00    +0.030 C 
ATOM     20  C   UNL     1      34.738 -18.433 -24.540  0.00  0.00    +0.167 C 
ATOM     21  C   UNL     1      34.957 -16.751 -22.820  0.00  0.00    +0.061 C 
ATOM     22  C   UNL     1      34.843 -17.093 -24.167  0.00  0.00    +0.170 C 
ENDBRANCH   3  17
BRANCH  12  23
ATOM     23  S   UNL     1      37.216 -24.396 -14.111  0.00  0.00    +0.007 S 
ATOM     24  O   UNL     1      36.649 -25.733 -14.014  0.00  0.00    -0.169 OA
ATOM     25  O   UNL     1      38.657 -24.228 -14.226  0.00  0.00    -0.169 OA
ATOM     26  C   UNL     1      36.698 -23.475 -12.680  0.00  0.00    +0.181 C 
ENDBRANCH  12  23
BRANCH   4  27
ATOM     27  N   UNL     1      32.364 -20.397 -21.125  0.00  0.00    +0.383 N 
ATOM     28  H   UNL     1      32.441 -19.810 -21.956  0.00  0.00    -0.089 HD
ATOM     29  H   UNL     1      31.550 -20.112 -20.582  0.00  0.00    -0.089 HD
ATOM     30  H   UNL     1      32.261 -21.372 -21.405  0.00  0.00    -0.089 HD
ENDBRANCH   4  27
TORSDOF 3
ENDMDL
MODEL 3
REMARK VINA RESULT:     -10.9      7.037     10.185
REMARK  Name = 11710963
REMARK  3 active torsions:
REMARK  status: ('A' for Active; 'I' for Inactive)
REMARK    1  A    between atoms: C_3  and  C_17
REMARK    2  A    between atoms: C_4  and  N_27
REMARK    3  A    between atoms: C_12  and  S_23
REMARK                            x       y       z     vdW  Elec       q    Type
REMARK                         _______ _______ _______ _____ _____    ______ ____
ROOT
ATOM      1  N   UNL     1      33.929 -15.009 -22.568  0.00  0.00    -0.266 N 
ATOM      2  N   UNL     1      32.586 -14.374 -20.922  0.00  0.00    -0.394 NA
ATOM      3  C   UNL     1      34.019 -17.754 -21.804  0.00  0.00    +0.015 C 
ATOM      4  C   UNL     1      35.206 -17.146 -22.603  0.00  0.00    -0.041 C 
ATOM      5  C   UNL     1      33.473 -16.719 -20.796  0.00  0.00    +0.077 C 
ATOM      6  C   UNL     1      34.743 -15.899 -23.374  0.00  0.00    +0.076 C 
ATOM      7  C   UNL     1      33.296 -15.371 -21.406  0.00  0.00    +0.164 C 
ATOM      8  C   UNL     1      33.597 -13.711 -22.858  0.00  0.00    +0.079 C 
ATOM      9  C   UNL     1      32.758 -13.336 -21.810  0.00  0.00    +0.129 C 
ATOM     10  C   UNL     1      33.931 -12.849 -23.906  0.00  0.00    +0.018 C 
ATOM     11  C   UNL     1      32.222 -12.037 -21.788  0.00  0.00    +0.105 C 
ATOM     12  C   UNL     1      32.549 -11.159 -22.828  0.00  0.00    +0.091 C 
ATOM     13  C   UNL     1      33.389 -11.560 -23.868  0.00  0.00    +0.016 C 
ENDROOT
BRANCH   3  17
ATOM     14  F   UNL     1      32.040 -19.510 -20.776  0.00  0.00    -0.204 F 
ATOM     15  F   UNL     1      37.262 -20.971 -20.070  0.00  0.00    -0.202 F 
ATOM     16  F   UNL     1      35.253 -22.569 -19.131  0.00  0.00    -0.202 F 
ATOM     17  C   UNL     1      34.348 -19.052 -21.084  0.00  0.00    +0.006 C 
ATOM     18  C   UNL     1      33.322 -19.863 -20.608  0.00  0.00    +0.138 C 
ATOM     19  C   UNL     1      35.678 -19.421 -20.906  0.00  0.00    +0.030 C 
ATOM     20  C   UNL     1      35.984 -20.612 -20.246  0.00  0.00    +0.167 C 
ATOM     21  C   UNL     1      33.628 -21.053 -19.948  0.00  0.00    +0.061 C 
ATOM     22  C   UNL     1      34.959 -21.427 -19.767  0.00  0.00    +0.170 C 
ENDBRANCH   3  17
BRANCH  12  23
ATOM     23  S   UNL     1      31.895  -9.539 -22.822  0.00  0.00    +0.007 S 
ATOM     24  O   UNL     1      32.610  -8.765 -23.825  0.00  0.00    -0.169 OA
ATOM     25  O   UNL     1      30.442  -9.619 -22.869  0.00  0.00    -0.169 OA
ATOM     26  C   UNL     1      32.327  -8.895 -21.221  0.00  0.00    +0.181 C 
ENDBRANCH  12  23
BRANCH   4  27
ATOM     27  N   UNL     1      35.779 -18.087 -23.568  0.00  0.00    +0.383 N 
ATOM     28  H   UNL     1      35.212 -18.095 -24.415  0.00  0.00    -0.089 HD
ATOM     29  H   UNL     1      35.796 -19.022 -23.161  0.00  0.00    -0.089 HD
ATOM     30  H   UNL     1      36.730 -17.800 -23.798  0.00  0.00    -0.089 HD
ENDBRANCH   4  27
TORSDOF 3
ENDMDL
MODEL 4
REMARK VINA RESULT:     -10.7      8.558     11.779
REMARK  Name = 11710963
REMARK  3 active torsions:
REMARK  status: ('A' for Active; 'I' for Inactive)
REMARK    1  A    between atoms: C_3  and  C_17
REMARK    2  A    between atoms: C_4  and  N_27
REMARK    3  A    between atoms: C_12  and  S_23
REMARK                            x       y       z     vdW  Elec       q    Type
REMARK                         _______ _______ _______ _____ _____    ______ ____
ROOT
ATOM      1  N   UNL     1      32.733 -12.279 -22.581  0.00  0.00    -0.266 N 
ATOM      2  N   UNL     1      33.921 -11.477 -24.272  0.00  0.00    -0.394 NA
ATOM      3  C   UNL     1      34.000 -14.833 -22.542  0.00  0.00    +0.015 C 
ATOM      4  C   UNL     1      32.547 -14.694 -22.006  0.00  0.00    -0.041 C 
ATOM      5  C   UNL     1      34.198 -13.922 -23.774  0.00  0.00    +0.077 C 
ATOM      6  C   UNL     1      32.269 -13.239 -21.596  0.00  0.00    +0.076 C 
ATOM      7  C   UNL     1      33.652 -12.552 -23.561  0.00  0.00    +0.164 C 
ATOM      8  C   UNL     1      32.401 -10.951 -22.653  0.00  0.00    +0.079 C 
ATOM      9  C   UNL     1      33.156 -10.473 -23.722  0.00  0.00    +0.129 C 
ATOM     10  C   UNL     1      31.543 -10.136 -21.908  0.00  0.00    +0.018 C 
ATOM     11  C   UNL     1      33.058  -9.119 -24.084  0.00  0.00    +0.105 C 
ATOM     12  C   UNL     1      32.200  -8.289 -23.351  0.00  0.00    +0.091 C 
ATOM     13  C   UNL     1      31.458  -8.792 -22.281  0.00  0.00    +0.016 C 
ENDROOT
BRANCH   3  17
ATOM     14  F   UNL     1      35.144 -16.616 -20.654  0.00  0.00    -0.204 F 
ATOM     15  F   UNL     1      34.424 -18.506 -25.735  0.00  0.00    -0.202 F 
ATOM     16  F   UNL     1      35.515 -20.118 -23.815  0.00  0.00    -0.202 F 
ATOM     17  C   UNL     1      34.409 -16.257 -22.882  0.00  0.00    +0.006 C 
ATOM     18  C   UNL     1      34.963 -17.074 -21.901  0.00  0.00    +0.138 C 
ATOM     19  C   UNL     1      34.224 -16.735 -24.176  0.00  0.00    +0.030 C 
ATOM     20  C   UNL     1      34.597 -18.043 -24.491  0.00  0.00    +0.167 C 
ATOM     21  C   UNL     1      35.337 -18.380 -22.216  0.00  0.00    +0.061 C 
ATOM     22  C   UNL     1      35.155 -18.864 -23.511  0.00  0.00    +0.170 C 
ENDBRANCH   3  17
BRANCH  12  23
ATOM     23  S   UNL     1      32.062  -6.602 -23.783  0.00  0.00    +0.007 S 
ATOM     24  O   UNL     1      33.317  -6.193 -24.396  0.00  0.00    -0.169 OA
ATOM     25  O   UNL     1      30.808  -6.400 -24.495  0.00  0.00    -0.169 OA
ATOM     26  C   UNL     1      31.914  -5.760 -22.223  0.00  0.00    +0.181 C 
ENDBRANCH  12  23
BRANCH   4  27
ATOM     27  N   UNL     1      32.290 -15.548 -20.843  0.00  0.00    +0.383 N 
ATOM     28  H   UNL     1      31.981 -14.972 -20.059  0.00  0.00    -0.089 HD
ATOM     29  H   UNL     1      33.146 -16.040 -20.587  0.00  0.00    -0.089 HD
ATOM     30  H   UNL     1      31.564 -16.226 -21.074  0.00  0.00    -0.089 HD
ENDBRANCH   4  27
TORSDOF 3
ENDMDL
MODEL 5
REMARK VINA RESULT:     -10.6      2.806      3.945
REMARK  Name = 11710963
REMARK  3 active torsions:
REMARK  status: ('A' for Active; 'I' for Inactive)
REMARK    1  A    between atoms: C_3  and  C_17
REMARK    2  A    between atoms: C_4  and  N_27
REMARK    3  A    between atoms: C_12  and  S_23
REMARK                            x       y       z     vdW  Elec       q    Type
REMARK                         _______ _______ _______ _____ _____    ______ ____
ROOT
ATOM      1  N   UNL     1      34.340 -21.835 -18.483  0.00  0.00    -0.266 N 
ATOM      2  N   UNL     1      32.125 -21.756 -18.547  0.00  0.00    -0.394 NA
ATOM      3  C   UNL     1      34.744 -19.856 -20.496  0.00  0.00    +0.015 C 
ATOM      4  C   UNL     1      35.837 -20.936 -20.258  0.00  0.00    -0.041 C 
ATOM      5  C   UNL     1      33.340 -20.481 -20.337  0.00  0.00    +0.077 C 
ATOM      6  C   UNL     1      35.710 -21.516 -18.840  0.00  0.00    +0.076 C 
ATOM      7  C   UNL     1      33.233 -21.338 -19.122  0.00  0.00    +0.164 C 
ATOM      8  C   UNL     1      33.924 -22.606 -17.428  0.00  0.00    +0.079 C 
ATOM      9  C   UNL     1      32.533 -22.542 -17.493  0.00  0.00    +0.129 C 
ATOM     10  C   UNL     1      34.604 -23.329 -16.444  0.00  0.00    +0.018 C 
ATOM     11  C   UNL     1      31.767 -23.234 -16.540  0.00  0.00    +0.105 C 
ATOM     12  C   UNL     1      32.432 -23.968 -15.550  0.00  0.00    +0.091 C 
ATOM     13  C   UNL     1      33.826 -24.012 -15.504  0.00  0.00    +0.016 C 
ENDROOT
BRANCH   3  17
ATOM     14  F   UNL     1      35.239 -17.074 -20.753  0.00  0.00    -0.204 F 
ATOM     15  F   UNL     1      34.632 -19.924 -25.380  0.00  0.00    -0.202 F 
ATOM     16  F   UNL     1      35.115 -17.235 -25.480  0.00  0.00    -0.202 F 
ATOM     17  C   UNL     1      34.844 -19.148 -21.837  0.00  0.00    +0.006 C 
ATOM     18  C   UNL     1      35.091 -17.779 -21.883  0.00  0.00    +0.138 C 
ATOM     19  C   UNL     1      34.689 -19.876 -23.013  0.00  0.00    +0.030 C 
ATOM     20  C   UNL     1      34.782 -19.229 -24.246  0.00  0.00    +0.167 C 
ATOM     21  C   UNL     1      35.183 -17.132 -23.115  0.00  0.00    +0.061 C 
ATOM     22  C   UNL     1      35.028 -17.856 -24.296  0.00  0.00    +0.170 C 
ENDBRANCH   3  17
BRANCH  12  23
ATOM     23  S   UNL     1      31.500 -24.837 -14.354  0.00  0.00    +0.007 S 
ATOM     24  O   UNL     1      30.668 -25.805 -15.053  0.00  0.00    -0.169 OA
ATOM     25  O   UNL     1      32.394 -25.282 -13.295  0.00  0.00    -0.169 OA
ATOM     26  C   UNL     1      30.431 -23.603 -13.648  0.00  0.00    +0.181 C 
ENDBRANCH  12  23
BRANCH   4  27
ATOM     27  N   UNL     1      37.195 -20.408 -20.411  0.00  0.00    +0.383 N 
ATOM     28  H   UNL     1      37.781 -21.103 -20.873  0.00  0.00    -0.089 HD
ATOM     29  H   UNL     1      37.582 -20.196 -19.491  0.00  0.00    -0.089 HD
ATOM     30  H   UNL     1      37.168 -19.558 -20.972  0.00  0.00    -0.089 HD
ENDBRANCH   4  27
TORSDOF 3
ENDMDL
MODEL 6
REMARK VINA RESULT:     -10.3      8.449     11.643
REMARK  Name = 11710963
REMARK  3 active torsions:
REMARK  status: ('A' for Active; 'I' for Inactive)
REMARK    1  A    between atoms: C_3  and  C_17
REMARK    2  A    between atoms: C_4  and  N_27
REMARK    3  A    between atoms: C_12  and  S_23
REMARK                            x       y       z     vdW  Elec       q    Type
REMARK                         _______ _______ _______ _____ _____    ______ ____
ROOT
ATOM      1  N   UNL     1      32.781 -12.393 -22.614  0.00  0.00    -0.266 N 
ATOM      2  N   UNL     1      33.809 -11.535 -24.382  0.00  0.00    -0.394 NA
ATOM      3  C   UNL     1      33.983 -14.970 -22.824  0.00  0.00    +0.015 C 
ATOM      4  C   UNL     1      32.597 -14.829 -22.133  0.00  0.00    -0.041 C 
ATOM      5  C   UNL     1      34.075 -14.006 -24.027  0.00  0.00    +0.077 C 
ATOM      6  C   UNL     1      32.399 -13.390 -21.631  0.00  0.00    +0.076 C 
ATOM      7  C   UNL     1      33.588 -12.637 -23.697  0.00  0.00    +0.164 C 
ATOM      8  C   UNL     1      32.477 -11.057 -22.592  0.00  0.00    +0.079 C 
ATOM      9  C   UNL     1      33.129 -10.544 -23.711  0.00  0.00    +0.129 C 
ATOM     10  C   UNL     1      31.721 -10.262 -21.725  0.00  0.00    +0.018 C 
ATOM     11  C   UNL     1      33.027  -9.172 -23.999  0.00  0.00    +0.105 C 
ATOM     12  C   UNL     1      32.271  -8.362 -23.144  0.00  0.00    +0.091 C 
ATOM     13  C   UNL     1      31.630  -8.900 -22.026  0.00  0.00    +0.016 C 
ENDROOT
BRANCH   3  17
ATOM     14  F   UNL     1      33.597 -15.901 -25.477  0.00  0.00    -0.204 F 
ATOM     15  F   UNL     1      35.658 -19.461 -21.873  0.00  0.00    -0.202 F 
ATOM     16  F   UNL     1      35.236 -20.223 -24.465  0.00  0.00    -0.202 F 
ATOM     17  C   UNL     1      34.319 -16.385 -23.268  0.00  0.00    +0.006 C 
ATOM     18  C   UNL     1      34.103 -16.768 -24.589  0.00  0.00    +0.138 C 
ATOM     19  C   UNL     1      34.844 -17.289 -22.349  0.00  0.00    +0.030 C 
ATOM     20  C   UNL     1      35.155 -18.587 -22.755  0.00  0.00    +0.167 C 
ATOM     21  C   UNL     1      34.413 -18.066 -24.994  0.00  0.00    +0.061 C 
ATOM     22  C   UNL     1      34.939 -18.976 -24.077  0.00  0.00    +0.170 C 
ENDBRANCH   3  17
BRANCH  12  23
ATOM     23  S   UNL     1      32.130  -6.653 -23.481  0.00  0.00    +0.007 S 
ATOM     24  O   UNL     1      33.365  -6.221 -24.118  0.00  0.00    -0.169 OA
ATOM     25  O   UNL     1      30.853  -6.407 -24.136  0.00  0.00    -0.169 OA
ATOM     26  C   UNL     1      32.045  -5.893 -21.876  0.00  0.00    +0.181 C 
ENDBRANCH  12  23
BRANCH   4  27
ATOM     27  N   UNL     1      32.440 -15.732 -20.990  0.00  0.00    +0.383 N 
ATOM     28  H   UNL     1      31.589 -16.283 -21.105  0.00  0.00    -0.089 HD
ATOM     29  H   UNL     1      32.376 -15.185 -20.132  0.00  0.00    -0.089 HD
ATOM     30  H   UNL     1      33.245 -16.355 -20.937  0.00  0.00    -0.089 HD
ENDBRANCH   4  27
TORSDOF 3
ENDMDL
MODEL 7
REMARK VINA RESULT:     -10.0      7.196      9.741
REMARK  Name = 11710963
REMARK  3 active torsions:
REMARK  status: ('A' for Active; 'I' for Inactive)
REMARK    1  A    between atoms: C_3  and  C_17
REMARK    2  A    between atoms: C_4  and  N_27
REMARK    3  A    between atoms: C_12  and  S_23
REMARK                            x       y       z     vdW  Elec       q    Type
REMARK                         _______ _______ _______ _____ _____    ______ ____
ROOT
ATOM      1  N   UNL     1      32.914 -13.213 -22.051  0.00  0.00    -0.266 N 
ATOM      2  N   UNL     1      34.194 -13.811 -23.760  0.00  0.00    -0.394 NA
ATOM      3  C   UNL     1      32.311 -10.614 -23.057  0.00  0.00    +0.015 C 
ATOM      4  C   UNL     1      32.269 -10.867 -21.523  0.00  0.00    -0.041 C 
ATOM      5  C   UNL     1      33.475 -11.407 -23.692  0.00  0.00    +0.077 C 
ATOM      6  C   UNL     1      32.064 -12.363 -21.238  0.00  0.00    +0.076 C 
ATOM      7  C   UNL     1      33.535 -12.815 -23.208  0.00  0.00    +0.164 C 
ATOM      8  C   UNL     1      33.174 -14.545 -21.855  0.00  0.00    +0.079 C 
ATOM      9  C   UNL     1      33.980 -14.894 -22.937  0.00  0.00    +0.129 C 
ATOM     10  C   UNL     1      32.791 -15.460 -20.869  0.00  0.00    +0.018 C 
ATOM     11  C   UNL     1      34.442 -16.215 -23.053  0.00  0.00    +0.105 C 
ATOM     12  C   UNL     1      34.072 -17.144 -22.073  0.00  0.00    +0.091 C 
ATOM     13  C   UNL     1      33.260 -16.770 -21.000  0.00  0.00    +0.016 C 
ENDROOT
BRANCH   3  17
ATOM     14  F   UNL     1      30.046  -8.951 -23.455  0.00  0.00    -0.204 F 
ATOM     15  F   UNL     1      34.962  -6.660 -24.157  0.00  0.00    -0.202 F 
ATOM     16  F   UNL     1      32.694  -5.174 -24.507  0.00  0.00    -0.202 F 
ATOM     17  C   UNL     1      32.411  -9.148 -23.447  0.00  0.00    +0.006 C 
ATOM     18  C   UNL     1      31.255  -8.395 -23.624  0.00  0.00    +0.138 C 
ATOM     19  C   UNL     1      33.664  -8.568 -23.626  0.00  0.00    +0.030 C 
ATOM     20  C   UNL     1      33.760  -7.222 -23.983  0.00  0.00    +0.167 C 
ATOM     21  C   UNL     1      31.350  -7.051 -23.982  0.00  0.00    +0.061 C 
ATOM     22  C   UNL     1      32.602  -6.464 -24.162  0.00  0.00    +0.170 C 
ENDBRANCH   3  17
BRANCH  12  23
ATOM     23  S   UNL     1      34.635 -18.794 -22.196  0.00  0.00    +0.007 S 
ATOM     24  O   UNL     1      33.732 -19.632 -21.422  0.00  0.00    -0.169 OA
ATOM     25  O   UNL     1      34.886 -19.101 -23.597  0.00  0.00    -0.169 OA
ATOM     26  C   UNL     1      36.212 -18.783 -21.376  0.00  0.00    +0.181 C 
ENDBRANCH  12  23
BRANCH   4  27
ATOM     27  N   UNL     1      31.194 -10.128 -20.858  0.00  0.00    +0.383 N 
ATOM     28  H   UNL     1      31.351  -9.126 -20.965  0.00  0.00    -0.089 HD
ATOM     29  H   UNL     1      31.182 -10.366 -19.866  0.00  0.00    -0.089 HD
ATOM     30  H   UNL     1      30.299 -10.380 -21.277  0.00  0.00    -0.089 HD
ENDBRANCH   4  27
TORSDOF 3
ENDMDL
MODEL 8
REMARK VINA RESULT:      -9.9      1.677      2.468
REMARK  Name = 11710963
REMARK  3 active torsions:
REMARK  status: ('A' for Active; 'I' for Inactive)
REMARK    1  A    between atoms: C_3  and  C_17
REMARK    2  A    between atoms: C_4  and  N_27
REMARK    3  A    between atoms: C_12  and  S_23
REMARK                            x       y       z     vdW  Elec       q    Type
REMARK                         _______ _______ _______ _____ _____    ______ ____
ROOT
ATOM      1  N   UNL     1      35.873 -20.690 -19.554  0.00  0.00    -0.266 N 
ATOM      2  N   UNL     1      33.787 -21.367 -19.228  0.00  0.00    -0.394 NA
ATOM      3  C   UNL     1      35.219 -18.717 -21.506  0.00  0.00    +0.015 C 
ATOM      4  C   UNL     1      36.635 -19.359 -21.516  0.00  0.00    -0.041 C 
ATOM      5  C   UNL     1      34.159 -19.779 -21.137  0.00  0.00    +0.077 C 
ATOM      6  C   UNL     1      36.968 -19.930 -20.128  0.00  0.00    +0.076 C 
ATOM      7  C   UNL     1      34.567 -20.605 -19.966  0.00  0.00    +0.164 C 
ATOM      8  C   UNL     1      35.937 -21.542 -18.482  0.00  0.00    +0.079 C 
ATOM      9  C   UNL     1      34.618 -21.954 -18.301  0.00  0.00    +0.129 C 
ATOM     10  C   UNL     1      36.986 -21.979 -17.668  0.00  0.00    +0.018 C 
ATOM     11  C   UNL     1      34.314 -22.853 -17.265  0.00  0.00    +0.105 C 
ATOM     12  C   UNL     1      35.353 -23.305 -16.442  0.00  0.00    +0.091 C 
ATOM     13  C   UNL     1      36.666 -22.873 -16.642  0.00  0.00    +0.016 C 
ENDROOT
BRANCH   3  17
ATOM     14  F   UNL     1      35.037 -20.083 -23.987  0.00  0.00    -0.204 F 
ATOM     15  F   UNL     1      33.922 -14.729 -24.013  0.00  0.00    -0.202 F 
ATOM     16  F   UNL     1      33.784 -16.170 -26.333  0.00  0.00    -0.202 F 
ATOM     17  C   UNL     1      34.833 -18.034 -22.808  0.00  0.00    +0.006 C 
ATOM     18  C   UNL     1      34.763 -18.771 -23.986  0.00  0.00    +0.138 C 
ATOM     19  C   UNL     1      34.550 -16.671 -22.812  0.00  0.00    +0.030 C 
ATOM     20  C   UNL     1      34.193 -16.040 -24.005  0.00  0.00    +0.167 C 
ATOM     21  C   UNL     1      34.408 -18.141 -25.179  0.00  0.00    +0.061 C 
ATOM     22  C   UNL     1      34.123 -16.776 -25.188  0.00  0.00    +0.170 C 
ENDBRANCH   3  17
BRANCH  12  23
ATOM     23  S   UNL     1      34.999 -24.423 -15.147  0.00  0.00    +0.007 S 
ATOM     24  O   UNL     1      33.575 -24.335 -14.859  0.00  0.00    -0.169 OA
ATOM     25  O   UNL     1      35.595 -25.713 -15.463  0.00  0.00    -0.169 OA
ATOM     26  C   UNL     1      35.883 -23.771 -13.749  0.00  0.00    +0.181 C 
ENDBRANCH  12  23
BRANCH   4  27
ATOM     27  N   UNL     1      37.686 -18.405 -21.876  0.00  0.00    +0.383 N 
ATOM     28  H   UNL     1      37.310 -17.457 -21.851  0.00  0.00    -0.089 HD
ATOM     29  H   UNL     1      38.024 -18.610 -22.816  0.00  0.00    -0.089 HD
ATOM     30  H   UNL     1      38.457 -18.482 -21.213  0.00  0.00    -0.089 HD
ENDBRANCH   4  27
TORSDOF 3
ENDMDL
MODEL 9
REMARK VINA RESULT:      -9.8      5.738      9.478
REMARK  Name = 11710963
REMARK  3 active torsions:
REMARK  status: ('A' for Active; 'I' for Inactive)
REMARK    1  A    between atoms: C_3  and  C_17
REMARK    2  A    between atoms: C_4  and  N_27
REMARK    3  A    between atoms: C_12  and  S_23
REMARK                            x       y       z     vdW  Elec       q    Type
REMARK                         _______ _______ _______ _____ _____    ______ ____
ROOT
ATOM      1  N   UNL     1      34.837 -22.019 -18.149  0.00  0.00    -0.266 N 
ATOM      2  N   UNL     1      36.812 -21.134 -18.630  0.00  0.00    -0.394 NA
ATOM      3  C   UNL     1      35.641 -23.141 -15.654  0.00  0.00    +0.015 C 
ATOM      4  C   UNL     1      34.462 -23.786 -16.436  0.00  0.00    -0.041 C 
ATOM      5  C   UNL     1      36.729 -22.661 -16.639  0.00  0.00    +0.077 C 
ATOM      6  C   UNL     1      33.841 -22.762 -17.400  0.00  0.00    +0.076 C 
ATOM      7  C   UNL     1      36.159 -21.916 -17.797  0.00  0.00    +0.164 C 
ATOM      8  C   UNL     1      34.622 -21.249 -19.262  0.00  0.00    +0.079 C 
ATOM      9  C   UNL     1      35.876 -20.709 -19.545  0.00  0.00    +0.129 C 
ATOM     10  C   UNL     1      33.487 -20.970 -20.029  0.00  0.00    +0.018 C 
ATOM     11  C   UNL     1      36.023 -19.852 -20.649  0.00  0.00    +0.105 C 
ATOM     12  C   UNL     1      34.898 -19.566 -21.431  0.00  0.00    +0.091 C 
ATOM     13  C   UNL     1      33.652 -20.116 -21.124  0.00  0.00    +0.016 C 
ENDROOT
BRANCH   3  17
ATOM     14  F   UNL     1      34.727 -23.254 -12.969  0.00  0.00    -0.204 F 
ATOM     15  F   UNL     1      38.934 -26.486 -14.298  0.00  0.00    -0.202 F 
ATOM     16  F   UNL     1      37.951 -26.495 -11.746  0.00  0.00    -0.202 F 
ATOM     17  C   UNL     1      36.261 -24.044 -14.600  0.00  0.00    +0.006 C 
ATOM     18  C   UNL     1      35.757 -24.045 -13.302  0.00  0.00    +0.138 C 
ATOM     19  C   UNL     1      37.332 -24.865 -14.940  0.00  0.00    +0.030 C 
ATOM     20  C   UNL     1      37.903 -25.696 -13.975  0.00  0.00    +0.167 C 
ATOM     21  C   UNL     1      36.328 -24.874 -12.337  0.00  0.00    +0.061 C 
ATOM     22  C   UNL     1      37.401 -25.699 -12.673  0.00  0.00    +0.170 C 
ENDBRANCH   3  17
BRANCH  12  23
ATOM     23  S   UNL     1      35.056 -18.502 -22.808  0.00  0.00    +0.007 S 
ATOM     24  O   UNL     1      36.475 -18.252 -23.017  0.00  0.00    -0.169 OA
ATOM     25  O   UNL     1      34.245 -19.022 -23.899  0.00  0.00    -0.169 OA
ATOM     26  C   UNL     1      34.302 -16.981 -22.279  0.00  0.00    +0.181 C 
ENDBRANCH  12  23
BRANCH   4  27
ATOM     27  N   UNL     1      33.401 -24.278 -15.554  0.00  0.00    +0.383 N 
ATOM     28  H   UNL     1      32.559 -23.717 -15.687  0.00  0.00    -0.089 HD
ATOM     29  H   UNL     1      33.705 -24.207 -14.583  0.00  0.00    -0.089 HD
ATOM     30  H   UNL     1      33.199 -25.253 -15.776  0.00  0.00    -0.089 HD
ENDBRANCH   4  27
TORSDOF 3
ENDMDL
