MODEL 1
REMARK VINA RESULT:      -7.1      0.000      0.000
REMARK  Name = 10394
REMARK  5 active torsions:
REMARK  status: ('A' for Active; 'I' for Inactive)
REMARK    1  A    between atoms: C_1  and  C_9
REMARK    2  A    between atoms: C_6  and  O_7
REMARK    3  A    between atoms: C_9  and  C_10
REMARK    4  A    between atoms: C_10  and  C_12
REMARK    5  A    between atoms: C_12  and  O_13
REMARK                            x       y       z     vdW  Elec       q    Type
REMARK                         _______ _______ _______ _____ _____    ______ ____
ROOT
ATOM      1  C   UNL     1      35.157 -19.759 -20.831  0.00  0.00    -0.021 C 
ATOM      2  C   UNL     1      33.768 -19.627 -20.851  0.00  0.00    -0.001 C 
ATOM      3  C   UNL     1      35.748 -20.785 -20.094  0.00  0.00    -0.001 C 
ATOM      4  C   UNL     1      32.972 -20.521 -20.135  0.00  0.00    +0.036 C 
ATOM      5  C   UNL     1      34.953 -21.679 -19.379  0.00  0.00    +0.036 C 
ATOM      6  C   UNL     1      33.564 -21.547 -19.399  0.00  0.00    +0.134 C 
ENDROOT
BRANCH   6   7
ATOM      7  O   UNL     1      32.786 -22.420 -18.702  0.00  0.00    -0.506 OA
ATOM      8  H   UNL     1      31.923 -22.170 -18.438  0.00  0.00    +0.292 HD
ENDBRANCH   6   7
BRANCH   1   9
ATOM      9  C   UNL     1      36.008 -18.803 -21.595  0.00  0.00    +0.038 C 
BRANCH   9  10
ATOM     10  C   UNL     1      35.283 -18.131 -22.767  0.00  0.00    +0.114 C 
BRANCH  10  12
ATOM     11  O   UNL     1      34.742 -16.110 -21.559  0.00  0.00    -0.250 OA
ATOM     12  C   UNL     1      35.177 -16.637 -22.574  0.00  0.00    +0.314 C 
BRANCH  12  13
ATOM     13  O   UNL     1      35.588 -15.935 -23.660  0.00  0.00    -0.480 OA
ATOM     14  H   UNL     1      36.501 -15.783 -23.801  0.00  0.00    +0.295 HD
ENDBRANCH  12  13
ENDBRANCH  10  12
ENDBRANCH   9  10
ENDBRANCH   1   9
TORSDOF 5
ENDMDL
MODEL 2
REMARK VINA RESULT:      -7.1      1.312      2.145
REMARK  Name = 10394
REMARK  5 active torsions:
REMARK  status: ('A' for Active; 'I' for Inactive)
REMARK    1  A    between atoms: C_1  and  C_9
REMARK    2  A    between atoms: C_6  and  O_7
REMARK    3  A    between atoms: C_9  and  C_10
REMARK    4  A    between atoms: C_10  and  C_12
REMARK    5  A    between atoms: C_12  and  O_13
REMARK                            x       y       z     vdW  Elec       q    Type
REMARK                         _______ _______ _______ _____ _____    ______ ____
ROOT
ATOM      1  C   UNL     1      34.566 -19.657 -21.074  0.00  0.00    -0.021 C 
ATOM      2  C   UNL     1      35.787 -20.189 -20.657  0.00  0.00    -0.001 C 
ATOM      3  C   UNL     1      33.373 -20.186 -20.582  0.00  0.00    -0.001 C 
ATOM      4  C   UNL     1      35.814 -21.246 -19.749  0.00  0.00    +0.036 C 
ATOM      5  C   UNL     1      33.399 -21.244 -19.674  0.00  0.00    +0.036 C 
ATOM      6  C   UNL     1      34.620 -21.775 -19.257  0.00  0.00    +0.134 C 
ENDROOT
BRANCH   6   7
ATOM      7  O   UNL     1      34.647 -22.807 -18.370  0.00  0.00    -0.506 OA
ATOM      8  H   UNL     1      34.445 -23.676 -18.657  0.00  0.00    +0.292 HD
ENDBRANCH   6   7
BRANCH   1   9
ATOM      9  C   UNL     1      34.537 -18.527 -22.045  0.00  0.00    +0.038 C 
BRANCH   9  10
ATOM     10  C   UNL     1      34.842 -18.945 -23.488  0.00  0.00    +0.114 C 
BRANCH  10  12
ATOM     11  O   UNL     1      34.464 -17.742 -25.549  0.00  0.00    -0.250 OA
ATOM     12  C   UNL     1      34.914 -17.751 -24.410  0.00  0.00    +0.314 C 
BRANCH  12  13
ATOM     13  O   UNL     1      35.558 -16.695 -23.856  0.00  0.00    -0.480 OA
ATOM     14  H   UNL     1      36.275 -16.838 -23.270  0.00  0.00    +0.295 HD
ENDBRANCH  12  13
ENDBRANCH  10  12
ENDBRANCH   9  10
ENDBRANCH   1   9
TORSDOF 5
ENDMDL
MODEL 3
REMARK VINA RESULT:      -6.8      1.714      5.545
REMARK  Name = 10394
REMARK  5 active torsions:
REMARK  status: ('A' for Active; 'I' for Inactive)
REMARK    1  A    between atoms: C_1  and  C_9
REMARK    2  A    between atoms: C_6  and  O_7
REMARK    3  A    between atoms: C_9  and  C_10
REMARK    4  A    between atoms: C_10  and  C_12
REMARK    5  A    between atoms: C_12  and  O_13
REMARK                            x       y       z     vdW  Elec       q    Type
REMARK                         _______ _______ _______ _____ _____    ______ ____
ROOT
ATOM      1  C   UNL     1      34.787 -18.643 -22.233  0.00  0.00    -0.021 C 
ATOM      2  C   UNL     1      34.922 -17.254 -22.244  0.00  0.00    -0.001 C 
ATOM      3  C   UNL     1      34.650 -19.338 -23.434  0.00  0.00    -0.001 C 
ATOM      4  C   UNL     1      34.921 -16.563 -23.455  0.00  0.00    +0.036 C 
ATOM      5  C   UNL     1      34.649 -18.647 -24.645  0.00  0.00    +0.036 C 
ATOM      6  C   UNL     1      34.784 -17.258 -24.656  0.00  0.00    +0.134 C 
ENDROOT
BRANCH   6   7
ATOM      7  O   UNL     1      34.784 -16.583 -25.837  0.00  0.00    -0.506 OA
ATOM      8  H   UNL     1      35.595 -16.392 -26.267  0.00  0.00    +0.292 HD
ENDBRANCH   6   7
BRANCH   1   9
ATOM      9  C   UNL     1      34.787 -19.382 -20.938  0.00  0.00    +0.038 C 
BRANCH   9  10
ATOM     10  C   UNL     1      33.457 -20.077 -20.624  0.00  0.00    +0.114 C 
BRANCH  10  12
ATOM     11  O   UNL     1      32.725 -21.906 -19.225  0.00  0.00    -0.250 OA
ATOM     12  C   UNL     1      33.646 -21.240 -19.679  0.00  0.00    +0.314 C 
BRANCH  12  13
ATOM     13  O   UNL     1      34.947 -21.453 -19.359  0.00  0.00    -0.480 OA
ATOM     14  H   UNL     1      35.623 -20.983 -19.807  0.00  0.00    +0.295 HD
ENDBRANCH  12  13
ENDBRANCH  10  12
ENDBRANCH   9  10
ENDBRANCH   1   9
TORSDOF 5
ENDMDL
MODEL 4
REMARK VINA RESULT:      -6.7      1.504      2.086
REMARK  Name = 10394
REMARK  5 active torsions:
REMARK  status: ('A' for Active; 'I' for Inactive)
REMARK    1  A    between atoms: C_1  and  C_9
REMARK    2  A    between atoms: C_6  and  O_7
REMARK    3  A    between atoms: C_9  and  C_10
REMARK    4  A    between atoms: C_10  and  C_12
REMARK    5  A    between atoms: C_12  and  O_13
REMARK                            x       y       z     vdW  Elec       q    Type
REMARK                         _______ _______ _______ _____ _____    ______ ____
ROOT
ATOM      1  C   UNL     1      34.484 -19.708 -20.925  0.00  0.00    -0.021 C 
ATOM      2  C   UNL     1      35.709 -20.262 -20.549  0.00  0.00    -0.001 C 
ATOM      3  C   UNL     1      33.297 -20.232 -20.415  0.00  0.00    -0.001 C 
ATOM      4  C   UNL     1      35.744 -21.339 -19.665  0.00  0.00    +0.036 C 
ATOM      5  C   UNL     1      33.332 -21.309 -19.530  0.00  0.00    +0.036 C 
ATOM      6  C   UNL     1      34.556 -21.864 -19.155  0.00  0.00    +0.134 C 
ENDROOT
BRANCH   6   7
ATOM      7  O   UNL     1      34.591 -22.914 -18.290  0.00  0.00    -0.506 OA
ATOM      8  H   UNL     1      35.235 -22.939 -17.610  0.00  0.00    +0.292 HD
ENDBRANCH   6   7
BRANCH   1   9
ATOM      9  C   UNL     1      34.446 -18.557 -21.871  0.00  0.00    +0.038 C 
BRANCH   9  10
ATOM     10  C   UNL     1      35.207 -17.322 -21.373  0.00  0.00    +0.114 C 
BRANCH  10  12
ATOM     11  O   UNL     1      33.054 -16.277 -21.041  0.00  0.00    -0.250 OA
ATOM     12  C   UNL     1      34.266 -16.253 -20.871  0.00  0.00    +0.314 C 
BRANCH  12  13
ATOM     13  O   UNL     1      34.909 -15.242 -20.234  0.00  0.00    -0.480 OA
ATOM     14  H   UNL     1      35.630 -14.811 -20.648  0.00  0.00    +0.295 HD
ENDBRANCH  12  13
ENDBRANCH  10  12
ENDBRANCH   9  10
ENDBRANCH   1   9
TORSDOF 5
ENDMDL
MODEL 5
REMARK VINA RESULT:      -6.6      7.970      9.247
REMARK  Name = 10394
REMARK  5 active torsions:
REMARK  status: ('A' for Active; 'I' for Inactive)
REMARK    1  A    between atoms: C_1  and  C_9
REMARK    2  A    between atoms: C_6  and  O_7
REMARK    3  A    between atoms: C_9  and  C_10
REMARK    4  A    between atoms: C_10  and  C_12
REMARK    5  A    between atoms: C_12  and  O_13
REMARK                            x       y       z     vdW  Elec       q    Type
REMARK                         _______ _______ _______ _____ _____    ______ ____
ROOT
ATOM      1  C   UNL     1      30.232 -23.327 -15.475  0.00  0.00    -0.021 C 
ATOM      2  C   UNL     1      31.544 -22.860 -15.564  0.00  0.00    -0.001 C 
ATOM      3  C   UNL     1      29.914 -24.345 -14.576  0.00  0.00    -0.001 C 
ATOM      4  C   UNL     1      32.537 -23.413 -14.754  0.00  0.00    +0.036 C 
ATOM      5  C   UNL     1      30.906 -24.898 -13.767  0.00  0.00    +0.036 C 
ATOM      6  C   UNL     1      32.219 -24.432 -13.856  0.00  0.00    +0.134 C 
ENDROOT
BRANCH   6   7
ATOM      7  O   UNL     1      33.188 -24.970 -13.066  0.00  0.00    -0.506 OA
ATOM      8  H   UNL     1      33.997 -24.514 -12.943  0.00  0.00    +0.292 HD
ENDBRANCH   6   7
BRANCH   1   9
ATOM      9  C   UNL     1      29.171 -22.737 -16.340  0.00  0.00    +0.038 C 
BRANCH   9  10
ATOM     10  C   UNL     1      27.746 -23.090 -15.897  0.00  0.00    +0.114 C 
BRANCH  10  12
ATOM     11  O   UNL     1      26.934 -21.305 -17.309  0.00  0.00    -0.250 OA
ATOM     12  C   UNL     1      26.747 -22.058 -16.362  0.00  0.00    +0.314 C 
BRANCH  12  13
ATOM     13  O   UNL     1      25.625 -22.030 -15.600  0.00  0.00    -0.480 OA
ATOM     14  H   UNL     1      25.063 -21.280 -15.620  0.00  0.00    +0.295 HD
ENDBRANCH  12  13
ENDBRANCH  10  12
ENDBRANCH   9  10
ENDBRANCH   1   9
TORSDOF 5
ENDMDL
MODEL 6
REMARK VINA RESULT:      -6.6      1.983      5.532
REMARK  Name = 10394
REMARK  5 active torsions:
REMARK  status: ('A' for Active; 'I' for Inactive)
REMARK    1  A    between atoms: C_1  and  C_9
REMARK    2  A    between atoms: C_6  and  O_7
REMARK    3  A    between atoms: C_9  and  C_10
REMARK    4  A    between atoms: C_10  and  C_12
REMARK    5  A    between atoms: C_12  and  O_13
REMARK                            x       y       z     vdW  Elec       q    Type
REMARK                         _______ _______ _______ _____ _____    ______ ____
ROOT
ATOM      1  C   UNL     1      35.343 -18.478 -22.328  0.00  0.00    -0.021 C 
ATOM      2  C   UNL     1      34.954 -19.294 -23.391  0.00  0.00    -0.001 C 
ATOM      3  C   UNL     1      35.362 -17.092 -22.484  0.00  0.00    -0.001 C 
ATOM      4  C   UNL     1      34.584 -18.723 -24.608  0.00  0.00    +0.036 C 
ATOM      5  C   UNL     1      34.992 -16.521 -23.701  0.00  0.00    +0.036 C 
ATOM      6  C   UNL     1      34.603 -17.337 -24.765  0.00  0.00    +0.134 C 
ENDROOT
BRANCH   6   7
ATOM      7  O   UNL     1      34.241 -16.781 -25.953  0.00  0.00    -0.506 OA
ATOM      8  H   UNL     1      33.569 -16.128 -25.978  0.00  0.00    +0.292 HD
ENDBRANCH   6   7
BRANCH   1   9
ATOM      9  C   UNL     1      35.740 -19.087 -21.026  0.00  0.00    +0.038 C 
BRANCH   9  10
ATOM     10  C   UNL     1      34.922 -20.328 -20.651  0.00  0.00    +0.114 C 
BRANCH  10  12
ATOM     11  O   UNL     1      36.549 -20.761 -18.918  0.00  0.00    -0.250 OA
ATOM     12  C   UNL     1      35.628 -21.169 -19.614  0.00  0.00    +0.314 C 
BRANCH  12  13
ATOM     13  O   UNL     1      35.155 -22.438 -19.553  0.00  0.00    -0.480 OA
ATOM     14  H   UNL     1      35.318 -22.963 -18.794  0.00  0.00    +0.295 HD
ENDBRANCH  12  13
ENDBRANCH  10  12
ENDBRANCH   9  10
ENDBRANCH   1   9
TORSDOF 5
ENDMDL
MODEL 7
REMARK VINA RESULT:      -6.6      6.536      8.190
REMARK  Name = 10394
REMARK  5 active torsions:
REMARK  status: ('A' for Active; 'I' for Inactive)
REMARK    1  A    between atoms: C_1  and  C_9
REMARK    2  A    between atoms: C_6  and  O_7
REMARK    3  A    between atoms: C_9  and  C_10
REMARK    4  A    between atoms: C_10  and  C_12
REMARK    5  A    between atoms: C_12  and  O_13
REMARK                            x       y       z     vdW  Elec       q    Type
REMARK                         _______ _______ _______ _____ _____    ______ ____
ROOT
ATOM      1  C   UNL     1      31.445 -23.088 -15.495  0.00  0.00    -0.021 C 
ATOM      2  C   UNL     1      31.888 -23.050 -16.818  0.00  0.00    -0.001 C 
ATOM      3  C   UNL     1      32.355 -23.318 -14.463  0.00  0.00    -0.001 C 
ATOM      4  C   UNL     1      33.238 -23.241 -17.107  0.00  0.00    +0.036 C 
ATOM      5  C   UNL     1      33.705 -23.510 -14.752  0.00  0.00    +0.036 C 
ATOM      6  C   UNL     1      34.148 -23.472 -16.075  0.00  0.00    +0.134 C 
ENDROOT
BRANCH   6   7
ATOM      7  O   UNL     1      35.466 -23.658 -16.358  0.00  0.00    -0.506 OA
ATOM      8  H   UNL     1      36.020 -22.918 -16.511  0.00  0.00    +0.292 HD
ENDBRANCH   6   7
BRANCH   1   9
ATOM      9  C   UNL     1      30.002 -22.883 -15.185  0.00  0.00    +0.038 C 
BRANCH   9  10
ATOM     10  C   UNL     1      29.078 -23.920 -15.835  0.00  0.00    +0.114 C 
BRANCH  10  12
ATOM     11  O   UNL     1      27.532 -23.964 -17.691  0.00  0.00    -0.250 OA
ATOM     12  C   UNL     1      28.254 -23.314 -16.946  0.00  0.00    +0.314 C 
BRANCH  12  13
ATOM     13  O   UNL     1      28.420 -21.972 -17.054  0.00  0.00    -0.480 OA
ATOM     14  H   UNL     1      27.747 -21.392 -16.756  0.00  0.00    +0.295 HD
ENDBRANCH  12  13
ENDBRANCH  10  12
ENDBRANCH   9  10
ENDBRANCH   1   9
TORSDOF 5
ENDMDL
MODEL 8
REMARK VINA RESULT:      -6.3      1.541      5.668
REMARK  Name = 10394
REMARK  5 active torsions:
REMARK  status: ('A' for Active; 'I' for Inactive)
REMARK    1  A    between atoms: C_1  and  C_9
REMARK    2  A    between atoms: C_6  and  O_7
REMARK    3  A    between atoms: C_9  and  C_10
REMARK    4  A    between atoms: C_10  and  C_12
REMARK    5  A    between atoms: C_12  and  O_13
REMARK                            x       y       z     vdW  Elec       q    Type
REMARK                         _______ _______ _______ _____ _____    ______ ____
ROOT
ATOM      1  C   UNL     1      34.761 -17.842 -21.969  0.00  0.00    -0.021 C 
ATOM      2  C   UNL     1      34.544 -16.877 -20.984  0.00  0.00    -0.001 C 
ATOM      3  C   UNL     1      34.900 -17.458 -23.302  0.00  0.00    -0.001 C 
ATOM      4  C   UNL     1      34.467 -15.530 -21.334  0.00  0.00    +0.036 C 
ATOM      5  C   UNL     1      34.824 -16.110 -23.652  0.00  0.00    +0.036 C 
ATOM      6  C   UNL     1      34.607 -15.145 -22.668  0.00  0.00    +0.134 C 
ENDROOT
BRANCH   6   7
ATOM      7  O   UNL     1      34.533 -13.830 -23.008  0.00  0.00    -0.506 OA
ATOM      8  H   UNL     1      33.709 -13.383 -22.975  0.00  0.00    +0.292 HD
ENDBRANCH   6   7
BRANCH   1   9
ATOM      9  C   UNL     1      34.843 -19.283 -21.595  0.00  0.00    +0.038 C 
BRANCH   9  10
ATOM     10  C   UNL     1      33.554 -19.834 -20.972  0.00  0.00    +0.114 C 
BRANCH  10  12
ATOM     11  O   UNL     1      34.939 -21.127 -19.475  0.00  0.00    -0.250 OA
ATOM     12  C   UNL     1      33.841 -20.934 -19.979  0.00  0.00    +0.314 C 
BRANCH  12  13
ATOM     13  O   UNL     1      32.758 -21.710 -19.724  0.00  0.00    -0.480 OA
ATOM     14  H   UNL     1      32.467 -22.333 -20.361  0.00  0.00    +0.295 HD
ENDBRANCH  12  13
ENDBRANCH  10  12
ENDBRANCH   9  10
ENDBRANCH   1   9
TORSDOF 5
ENDMDL
MODEL 9
REMARK VINA RESULT:      -6.2      3.597      5.336
REMARK  Name = 10394
REMARK  5 active torsions:
REMARK  status: ('A' for Active; 'I' for Inactive)
REMARK    1  A    between atoms: C_1  and  C_9
REMARK    2  A    between atoms: C_6  and  O_7
REMARK    3  A    between atoms: C_9  and  C_10
REMARK    4  A    between atoms: C_10  and  C_12
REMARK    5  A    between atoms: C_12  and  O_13
REMARK                            x       y       z     vdW  Elec       q    Type
REMARK                         _______ _______ _______ _____ _____    ______ ____
ROOT
ATOM      1  C   UNL     1      34.422 -14.967 -23.022  0.00  0.00    -0.021 C 
ATOM      2  C   UNL     1      34.959 -16.124 -23.590  0.00  0.00    -0.001 C 
ATOM      3  C   UNL     1      34.268 -14.878 -21.639  0.00  0.00    -0.001 C 
ATOM      4  C   UNL     1      35.340 -17.188 -22.775  0.00  0.00    +0.036 C 
ATOM      5  C   UNL     1      34.649 -15.943 -20.824  0.00  0.00    +0.036 C 
ATOM      6  C   UNL     1      35.186 -17.100 -21.392  0.00  0.00    +0.134 C 
ENDROOT
BRANCH   6   7
ATOM      7  O   UNL     1      35.559 -18.139 -20.597  0.00  0.00    -0.506 OA
ATOM      8  H   UNL     1      36.344 -18.615 -20.786  0.00  0.00    +0.292 HD
ENDBRANCH   6   7
BRANCH   1   9
ATOM      9  C   UNL     1      34.014 -13.829 -23.894  0.00  0.00    +0.038 C 
BRANCH   9  10
ATOM     10  C   UNL     1      32.787 -14.126 -24.763  0.00  0.00    +0.114 C 
BRANCH  10  12
ATOM     11  O   UNL     1      33.121 -13.196 -26.968  0.00  0.00    -0.250 OA
ATOM     12  C   UNL     1      33.142 -14.173 -26.230  0.00  0.00    +0.314 C 
BRANCH  12  13
ATOM     13  O   UNL     1      33.458 -15.421 -26.657  0.00  0.00    -0.480 OA
ATOM     14  H   UNL     1      33.001 -16.163 -26.314  0.00  0.00    +0.295 HD
ENDBRANCH  12  13
ENDBRANCH  10  12
ENDBRANCH   9  10
ENDBRANCH   1   9
TORSDOF 5
ENDMDL
