MODEL 1
REMARK VINA RESULT:      -6.2      0.000      0.000
REMARK  Name = 439378
REMARK  7 active torsions:
REMARK  status: ('A' for Active; 'I' for Inactive)
REMARK    1  A    between atoms: CA_1  and  N_2
REMARK    2  A    between atoms: CA_1  and  C_7
REMARK    3  A    between atoms: CA_1  and  C_10
REMARK    4  A    between atoms: C_7  and  O_8
REMARK    5  A    between atoms: C_10  and  C_11
REMARK    6  A    between atoms: C_11  and  C_14
REMARK    7  A    between atoms: N_13  and  C_16
REMARK                            x       y       z     vdW  Elec       q    Type
REMARK                         _______ _______ _______ _____ _____    ______ ____
ROOT
ATOM      1  CA  UNL     1      29.545 -23.337 -15.980  0.00  0.00    +0.036 C 
ENDROOT
BRANCH   1   2
ATOM      2  N   UNL     1      29.725 -24.787 -15.876  0.00  0.00    +0.389 N 
ATOM      3  H1  UNL     1      28.952 -25.261 -16.342  0.00  0.00    -0.088 HD
ATOM      4  H2  UNL     1      29.747 -25.057 -14.893  0.00  0.00    -0.088 HD
ATOM      5  H3  UNL     1      30.605 -25.053 -16.320  0.00  0.00    -0.088 HD
ENDBRANCH   1   2
BRANCH   1   7
ATOM      6  OXT UNL     1      27.751 -23.983 -17.499  0.00  0.00    -0.253 OA
ATOM      7  C   UNL     1      28.325 -23.113 -16.856  0.00  0.00    +0.293 C 
BRANCH   7   8
ATOM      8  O   UNL     1      27.939 -21.811 -16.878  0.00  0.00    -0.482 OA
ATOM      9  H   UNL     1      28.447 -21.179 -17.349  0.00  0.00    +0.295 HD
ENDBRANCH   7   8
ENDBRANCH   1   7
BRANCH   1  10
ATOM     10  C   UNL     1      30.797 -22.708 -16.599  0.00  0.00    -0.001 C 
BRANCH  10  11
ATOM     11  C   UNL     1      32.065 -23.524 -16.333  0.00  0.00    +0.083 C 
BRANCH  11  14
ATOM     12  O   UNL     1      34.342 -23.572 -17.157  0.00  0.00    -0.275 OA
ATOM     13  N   UNL     1      32.729 -22.405 -18.354  0.00  0.00    -0.304 N 
ATOM     14  C   UNL     1      33.185 -23.185 -17.302  0.00  0.00    +0.222 C 
ATOM     15  H   UNL     1      31.779 -22.150 -18.374  0.00  0.00    +0.149 HD
BRANCH  13  16
ATOM     16  C   UNL     1      33.590 -21.949 -19.420  0.00  0.00    +0.089 C 
ATOM     17  C   UNL     1      33.105 -20.639 -20.005  0.00  0.00    +0.023 C 
ENDBRANCH  13  16
ENDBRANCH  11  14
ENDBRANCH  10  11
ENDBRANCH   1  10
TORSDOF 7
ENDMDL
MODEL 2
REMARK VINA RESULT:      -6.1      6.420      9.189
REMARK  Name = 439378
REMARK  7 active torsions:
REMARK  status: ('A' for Active; 'I' for Inactive)
REMARK    1  A    between atoms: CA_1  and  N_2
REMARK    2  A    between atoms: CA_1  and  C_7
REMARK    3  A    between atoms: CA_1  and  C_10
REMARK    4  A    between atoms: C_7  and  O_8
REMARK    5  A    between atoms: C_10  and  C_11
REMARK    6  A    between atoms: C_11  and  C_14
REMARK    7  A    between atoms: N_13  and  C_16
REMARK                            x       y       z     vdW  Elec       q    Type
REMARK                         _______ _______ _______ _____ _____    ______ ____
ROOT
ATOM      1  CA  UNL     1      39.026 -25.131 -14.259  0.00  0.00    +0.036 C 
ENDROOT
BRANCH   1   2
ATOM      2  N   UNL     1      38.580 -24.370 -15.430  0.00  0.00    +0.389 N 
ATOM      3  H1  UNL     1      38.337 -23.421 -15.146  0.00  0.00    -0.088 HD
ATOM      4  H2  UNL     1      37.764 -24.823 -15.839  0.00  0.00    -0.088 HD
ATOM      5  H3  UNL     1      39.332 -24.336 -16.120  0.00  0.00    -0.088 HD
ENDBRANCH   1   2
BRANCH   1   7
ATOM      6  OXT UNL     1      40.986 -26.548 -13.954  0.00  0.00    -0.253 OA
ATOM      7  C   UNL     1      40.228 -25.946 -14.704  0.00  0.00    +0.293 C 
BRANCH   7   8
ATOM      8  O   UNL     1      40.398 -25.918 -16.052  0.00  0.00    -0.482 OA
ATOM      9  H   UNL     1      40.665 -25.125 -16.474  0.00  0.00    +0.295 HD
ENDBRANCH   7   8
ENDBRANCH   1   7
BRANCH   1  10
ATOM     10  C   UNL     1      37.888 -26.034 -13.773  0.00  0.00    -0.001 C 
BRANCH  10  11
ATOM     11  C   UNL     1      37.525 -25.794 -12.306  0.00  0.00    +0.083 C 
BRANCH  11  14
ATOM     12  O   UNL     1      35.582 -25.068 -11.055  0.00  0.00    -0.275 OA
ATOM     13  N   UNL     1      35.591 -24.836 -13.366  0.00  0.00    -0.304 N 
ATOM     14  C   UNL     1      36.134 -25.203 -12.143  0.00  0.00    +0.222 C 
ATOM     15  H   UNL     1      36.121 -24.989 -14.182  0.00  0.00    +0.149 HD
BRANCH  13  16
ATOM     16  C   UNL     1      34.282 -24.241 -13.494  0.00  0.00    +0.089 C 
ATOM     17  C   UNL     1      34.105 -23.569 -14.839  0.00  0.00    +0.023 C 
ENDBRANCH  13  16
ENDBRANCH  11  14
ENDBRANCH  10  11
ENDBRANCH   1  10
TORSDOF 7
ENDMDL
MODEL 3
REMARK VINA RESULT:      -6.0      6.215      9.057
REMARK  Name = 439378
REMARK  7 active torsions:
REMARK  status: ('A' for Active; 'I' for Inactive)
REMARK    1  A    between atoms: CA_1  and  N_2
REMARK    2  A    between atoms: CA_1  and  C_7
REMARK    3  A    between atoms: CA_1  and  C_10
REMARK    4  A    between atoms: C_7  and  O_8
REMARK    5  A    between atoms: C_10  and  C_11
REMARK    6  A    between atoms: C_11  and  C_14
REMARK    7  A    between atoms: N_13  and  C_16
REMARK                            x       y       z     vdW  Elec       q    Type
REMARK                         _______ _______ _______ _____ _____    ______ ____
ROOT
ATOM      1  CA  UNL     1      39.469 -24.995 -14.205  0.00  0.00    +0.036 C 
ENDROOT
BRANCH   1   2
ATOM      2  N   UNL     1      38.908 -24.308 -15.371  0.00  0.00    +0.389 N 
ATOM      3  H1  UNL     1      39.573 -23.613 -15.709  0.00  0.00    -0.088 HD
ATOM      4  H2  UNL     1      38.038 -23.847 -15.108  0.00  0.00    -0.088 HD
ATOM      5  H3  UNL     1      38.723 -24.988 -16.110  0.00  0.00    -0.088 HD
ENDBRANCH   1   2
BRANCH   1   7
ATOM      6  OXT UNL     1      41.192 -26.711 -14.042  0.00  0.00    -0.253 OA
ATOM      7  C   UNL     1      40.481 -25.995 -14.735  0.00  0.00    +0.293 C 
BRANCH   7   8
ATOM      8  O   UNL     1      40.540 -25.996 -16.093  0.00  0.00    -0.482 OA
ATOM      9  H   UNL     1      40.604 -25.186 -16.560  0.00  0.00    +0.295 HD
ENDBRANCH   7   8
ENDBRANCH   1   7
BRANCH   1  10
ATOM     10  C   UNL     1      38.345 -25.695 -13.434  0.00  0.00    -0.001 C 
BRANCH  10  11
ATOM     11  C   UNL     1      37.669 -26.804 -14.244  0.00  0.00    +0.083 C 
BRANCH  11  14
ATOM     12  O   UNL     1      36.080 -26.756 -16.071  0.00  0.00    -0.275 OA
ATOM     13  N   UNL     1      35.781 -25.316 -14.274  0.00  0.00    -0.304 N 
ATOM     14  C   UNL     1      36.437 -26.310 -14.984  0.00  0.00    +0.222 C 
ATOM     15  H   UNL     1      36.154 -25.031 -13.408  0.00  0.00    +0.149 HD
BRANCH  13  16
ATOM     16  C   UNL     1      34.575 -24.680 -14.750  0.00  0.00    +0.089 C 
ATOM     17  C   UNL     1      34.886 -23.495 -15.640  0.00  0.00    +0.023 C 
ENDBRANCH  13  16
ENDBRANCH  11  14
ENDBRANCH  10  11
ENDBRANCH   1  10
TORSDOF 7
ENDMDL
MODEL 4
REMARK VINA RESULT:      -5.8      6.505      7.627
REMARK  Name = 439378
REMARK  7 active torsions:
REMARK  status: ('A' for Active; 'I' for Inactive)
REMARK    1  A    between atoms: CA_1  and  N_2
REMARK    2  A    between atoms: CA_1  and  C_7
REMARK    3  A    between atoms: CA_1  and  C_10
REMARK    4  A    between atoms: C_7  and  O_8
REMARK    5  A    between atoms: C_10  and  C_11
REMARK    6  A    between atoms: C_11  and  C_14
REMARK    7  A    between atoms: N_13  and  C_16
REMARK                            x       y       z     vdW  Elec       q    Type
REMARK                         _______ _______ _______ _____ _____    ______ ____
ROOT
ATOM      1  CA  UNL     1      36.806 -24.439 -12.089  0.00  0.00    +0.036 C 
ENDROOT
BRANCH   1   2
ATOM      2  N   UNL     1      37.807 -23.766 -11.256  0.00  0.00    +0.389 N 
ATOM      3  H1  UNL     1      38.312 -23.081 -11.818  0.00  0.00    -0.088 HD
ATOM      4  H2  UNL     1      38.462 -24.455 -10.889  0.00  0.00    -0.088 HD
ATOM      5  H3  UNL     1      37.341 -23.293 -10.480  0.00  0.00    -0.088 HD
ENDBRANCH   1   2
BRANCH   1   7
ATOM      6  OXT UNL     1      35.544 -24.526 -10.005  0.00  0.00    -0.253 OA
ATOM      7  C   UNL     1      35.569 -24.613 -11.226  0.00  0.00    +0.293 C 
BRANCH   7   8
ATOM      8  O   UNL     1      34.466 -24.910 -11.963  0.00  0.00    -0.482 OA
ATOM      9  H   UNL     1      34.365 -25.766 -12.331  0.00  0.00    +0.295 HD
ENDBRANCH   7   8
ENDBRANCH   1   7
BRANCH   1  10
ATOM     10  C   UNL     1      37.355 -25.791 -12.556  0.00  0.00    -0.001 C 
BRANCH  10  11
ATOM     11  C   UNL     1      37.457 -25.897 -14.079  0.00  0.00    +0.083 C 
BRANCH  11  14
ATOM     12  O   UNL     1      39.392 -24.514 -14.533  0.00  0.00    -0.275 OA
ATOM     13  N   UNL     1      37.341 -23.927 -15.452  0.00  0.00    -0.304 N 
ATOM     14  C   UNL     1      38.192 -24.718 -14.693  0.00  0.00    +0.222 C 
ATOM     15  H   UNL     1      36.392 -24.182 -15.515  0.00  0.00    +0.149 HD
BRANCH  13  16
ATOM     16  C   UNL     1      37.788 -22.746 -16.152  0.00  0.00    +0.089 C 
ATOM     17  C   UNL     1      36.660 -22.102 -16.931  0.00  0.00    +0.023 C 
ENDBRANCH  13  16
ENDBRANCH  11  14
ENDBRANCH  10  11
ENDBRANCH   1  10
TORSDOF 7
ENDMDL
MODEL 5
REMARK VINA RESULT:      -5.7      5.084      7.903
REMARK  Name = 439378
REMARK  7 active torsions:
REMARK  status: ('A' for Active; 'I' for Inactive)
REMARK    1  A    between atoms: CA_1  and  N_2
REMARK    2  A    between atoms: CA_1  and  C_7
REMARK    3  A    between atoms: CA_1  and  C_10
REMARK    4  A    between atoms: C_7  and  O_8
REMARK    5  A    between atoms: C_10  and  C_11
REMARK    6  A    between atoms: C_11  and  C_14
REMARK    7  A    between atoms: N_13  and  C_16
REMARK                            x       y       z     vdW  Elec       q    Type
REMARK                         _______ _______ _______ _____ _____    ______ ____
ROOT
ATOM      1  CA  UNL     1      35.470 -18.280 -22.229  0.00  0.00    +0.036 C 
ENDROOT
BRANCH   1   2
ATOM      2  N   UNL     1      35.267 -17.488 -21.013  0.00  0.00    +0.389 N 
ATOM      3  H1  UNL     1      35.132 -18.113 -20.218  0.00  0.00    -0.088 HD
ATOM      4  H2  UNL     1      34.444 -16.897 -21.125  0.00  0.00    -0.088 HD
ATOM      5  H3  UNL     1      36.086 -16.901 -20.849  0.00  0.00    -0.088 HD
ENDBRANCH   1   2
BRANCH   1   7
ATOM      6  OXT UNL     1      34.484 -17.739 -24.391  0.00  0.00    -0.253 OA
ATOM      7  C   UNL     1      35.103 -17.383 -23.398  0.00  0.00    +0.293 C 
BRANCH   7   8
ATOM      8  O   UNL     1      35.569 -16.116 -23.239  0.00  0.00    -0.482 OA
ATOM      9  H   UNL     1      35.903 -15.643 -23.976  0.00  0.00    +0.295 HD
ENDBRANCH   7   8
ENDBRANCH   1   7
BRANCH   1  10
ATOM     10  C   UNL     1      34.579 -19.526 -22.182  0.00  0.00    -0.001 C 
BRANCH  10  11
ATOM     11  C   UNL     1      33.604 -19.515 -21.002  0.00  0.00    +0.083 C 
BRANCH  11  14
ATOM     12  O   UNL     1      32.806 -21.510 -19.883  0.00  0.00    -0.275 OA
ATOM     13  N   UNL     1      35.038 -20.905 -19.663  0.00  0.00    -0.304 N 
ATOM     14  C   UNL     1      33.740 -20.751 -20.128  0.00  0.00    +0.222 C 
ATOM     15  H   UNL     1      35.713 -20.236 -19.920  0.00  0.00    +0.149 HD
BRANCH  13  16
ATOM     16  C   UNL     1      35.441 -22.004 -18.817  0.00  0.00    +0.089 C 
ATOM     17  C   UNL     1      36.650 -21.645 -17.978  0.00  0.00    +0.023 C 
ENDBRANCH  13  16
ENDBRANCH  11  14
ENDBRANCH  10  11
ENDBRANCH   1  10
TORSDOF 7
ENDMDL
MODEL 6
REMARK VINA RESULT:      -5.7      2.991      3.535
REMARK  Name = 439378
REMARK  7 active torsions:
REMARK  status: ('A' for Active; 'I' for Inactive)
REMARK    1  A    between atoms: CA_1  and  N_2
REMARK    2  A    between atoms: CA_1  and  C_7
REMARK    3  A    between atoms: CA_1  and  C_10
REMARK    4  A    between atoms: C_7  and  O_8
REMARK    5  A    between atoms: C_10  and  C_11
REMARK    6  A    between atoms: C_11  and  C_14
REMARK    7  A    between atoms: N_13  and  C_16
REMARK                            x       y       z     vdW  Elec       q    Type
REMARK                         _______ _______ _______ _____ _____    ______ ____
ROOT
ATOM      1  CA  UNL     1      29.097 -23.413 -15.569  0.00  0.00    +0.036 C 
ENDROOT
BRANCH   1   2
ATOM      2  N   UNL     1      28.967 -24.827 -15.209  0.00  0.00    +0.389 N 
ATOM      3  H1  UNL     1      29.807 -25.132 -14.718  0.00  0.00    -0.088 HD
ATOM      4  H2  UNL     1      28.846 -25.383 -16.055  0.00  0.00    -0.088 HD
ATOM      5  H3  UNL     1      28.155 -24.951 -14.603  0.00  0.00    -0.088 HD
ENDBRANCH   1   2
BRANCH   1   7
ATOM      6  OXT UNL     1      27.754 -24.100 -17.483  0.00  0.00    -0.253 OA
ATOM      7  C   UNL     1      28.270 -23.206 -16.826  0.00  0.00    +0.293 C 
BRANCH   7   8
ATOM      8  O   UNL     1      28.181 -21.895 -17.173  0.00  0.00    -0.482 OA
ATOM      9  H   UNL     1      28.673 -21.569 -17.901  0.00  0.00    +0.295 HD
ENDBRANCH   7   8
ENDBRANCH   1   7
BRANCH   1  10
ATOM     10  C   UNL     1      30.573 -23.080 -15.812  0.00  0.00    -0.001 C 
BRANCH  10  11
ATOM     11  C   UNL     1      31.328 -22.750 -14.523  0.00  0.00    +0.083 C 
BRANCH  11  14
ATOM     12  O   UNL     1      31.884 -25.030 -13.923  0.00  0.00    -0.275 OA
ATOM     13  N   UNL     1      33.560 -23.422 -13.931  0.00  0.00    -0.304 N 
ATOM     14  C   UNL     1      32.258 -23.873 -14.093  0.00  0.00    +0.222 C 
ATOM     15  H   UNL     1      33.752 -22.470 -14.093  0.00  0.00    +0.149 HD
BRANCH  13  16
ATOM     16  C   UNL     1      34.644 -24.289 -13.534  0.00  0.00    +0.089 C 
ATOM     17  C   UNL     1      35.430 -24.780 -14.732  0.00  0.00    +0.023 C 
ENDBRANCH  13  16
ENDBRANCH  11  14
ENDBRANCH  10  11
ENDBRANCH   1  10
TORSDOF 7
ENDMDL
MODEL 7
REMARK VINA RESULT:      -5.7      3.896      7.227
REMARK  Name = 439378
REMARK  7 active torsions:
REMARK  status: ('A' for Active; 'I' for Inactive)
REMARK    1  A    between atoms: CA_1  and  N_2
REMARK    2  A    between atoms: CA_1  and  C_7
REMARK    3  A    between atoms: CA_1  and  C_10
REMARK    4  A    between atoms: C_7  and  O_8
REMARK    5  A    between atoms: C_10  and  C_11
REMARK    6  A    between atoms: C_11  and  C_14
REMARK    7  A    between atoms: N_13  and  C_16
REMARK                            x       y       z     vdW  Elec       q    Type
REMARK                         _______ _______ _______ _____ _____    ______ ____
ROOT
ATOM      1  CA  UNL     1      34.640 -18.487 -21.084  0.00  0.00    +0.036 C 
ENDROOT
BRANCH   1   2
ATOM      2  N   UNL     1      34.292 -17.397 -22.001  0.00  0.00    +0.389 N 
ATOM      3  H1  UNL     1      35.119 -16.831 -22.185  0.00  0.00    -0.088 HD
ATOM      4  H2  UNL     1      33.568 -16.816 -21.578  0.00  0.00    -0.088 HD
ATOM      5  H3  UNL     1      33.945 -17.788 -22.877  0.00  0.00    -0.088 HD
ENDBRANCH   1   2
BRANCH   1   7
ATOM      6  OXT UNL     1      36.808 -18.366 -22.191  0.00  0.00    -0.253 OA
ATOM      7  C   UNL     1      36.133 -18.719 -21.233  0.00  0.00    +0.293 C 
BRANCH   7   8
ATOM      8  O   UNL     1      36.654 -19.402 -20.180  0.00  0.00    -0.482 OA
ATOM      9  H   UNL     1      36.788 -18.968 -19.360  0.00  0.00    +0.295 HD
ENDBRANCH   7   8
ENDBRANCH   1   7
BRANCH   1  10
ATOM     10  C   UNL     1      33.841 -19.741 -21.453  0.00  0.00    -0.001 C 
BRANCH  10  11
ATOM     11  C   UNL     1      32.994 -20.269 -20.293  0.00  0.00    +0.083 C 
BRANCH  11  14
ATOM     12  O   UNL     1      34.917 -21.545 -19.558  0.00  0.00    -0.275 OA
ATOM     13  N   UNL     1      32.815 -22.090 -18.733  0.00  0.00    -0.304 N 
ATOM     14  C   UNL     1      33.704 -21.359 -19.507  0.00  0.00    +0.222 C 
ATOM     15  H   UNL     1      31.860 -21.856 -18.766  0.00  0.00    +0.149 HD
BRANCH  13  16
ATOM     16  C   UNL     1      33.232 -23.180 -17.883  0.00  0.00    +0.089 C 
ATOM     17  C   UNL     1      32.391 -23.257 -16.625  0.00  0.00    +0.023 C 
ENDBRANCH  13  16
ENDBRANCH  11  14
ENDBRANCH  10  11
ENDBRANCH   1  10
TORSDOF 7
ENDMDL
MODEL 8
REMARK VINA RESULT:      -5.7      4.322      6.291
REMARK  Name = 439378
REMARK  7 active torsions:
REMARK  status: ('A' for Active; 'I' for Inactive)
REMARK    1  A    between atoms: CA_1  and  N_2
REMARK    2  A    between atoms: CA_1  and  C_7
REMARK    3  A    between atoms: CA_1  and  C_10
REMARK    4  A    between atoms: C_7  and  O_8
REMARK    5  A    between atoms: C_10  and  C_11
REMARK    6  A    between atoms: C_11  and  C_14
REMARK    7  A    between atoms: N_13  and  C_16
REMARK                            x       y       z     vdW  Elec       q    Type
REMARK                         _______ _______ _______ _____ _____    ______ ____
ROOT
ATOM      1  CA  UNL     1      34.328 -21.194 -19.489  0.00  0.00    +0.036 C 
ENDROOT
BRANCH   1   2
ATOM      2  N   UNL     1      35.562 -21.520 -20.210  0.00  0.00    +0.389 N 
ATOM      3  H1  UNL     1      36.040 -20.658 -20.474  0.00  0.00    -0.088 HD
ATOM      4  H2  UNL     1      35.336 -22.055 -21.047  0.00  0.00    -0.088 HD
ATOM      5  H3  UNL     1      36.171 -22.075 -19.607  0.00  0.00    -0.088 HD
ENDBRANCH   1   2
BRANCH   1   7
ATOM      6  OXT UNL     1      34.071 -23.618 -19.488  0.00  0.00    -0.253 OA
ATOM      7  C   UNL     1      33.667 -22.516 -19.141  0.00  0.00    +0.293 C 
BRANCH   7   8
ATOM      8  O   UNL     1      32.534 -22.347 -18.409  0.00  0.00    -0.482 OA
ATOM      9  H   UNL     1      32.209 -21.484 -18.241  0.00  0.00    +0.295 HD
ENDBRANCH   7   8
ENDBRANCH   1   7
BRANCH   1  10
ATOM     10  C   UNL     1      33.425 -20.337 -20.383  0.00  0.00    -0.001 C 
BRANCH  10  11
ATOM     11  C   UNL     1      34.185 -19.677 -21.536  0.00  0.00    +0.083 C 
BRANCH  11  14
ATOM     12  O   UNL     1      36.028 -18.366 -20.672  0.00  0.00    -0.275 OA
ATOM     13  N   UNL     1      34.067 -17.288 -21.295  0.00  0.00    -0.304 N 
ATOM     14  C   UNL     1      34.882 -18.396 -21.112  0.00  0.00    +0.222 C 
ATOM     15  H   UNL     1      33.161 -17.424 -21.655  0.00  0.00    +0.149 HD
BRANCH  13  16
ATOM     16  C   UNL     1      34.490 -15.944 -20.978  0.00  0.00    +0.089 C 
ATOM     17  C   UNL     1      34.460 -15.050 -22.199  0.00  0.00    +0.023 C 
ENDBRANCH  13  16
ENDBRANCH  11  14
ENDBRANCH  10  11
ENDBRANCH   1  10
TORSDOF 7
ENDMDL
MODEL 9
REMARK VINA RESULT:      -5.6      6.000      8.535
REMARK  Name = 439378
REMARK  7 active torsions:
REMARK  status: ('A' for Active; 'I' for Inactive)
REMARK    1  A    between atoms: CA_1  and  N_2
REMARK    2  A    between atoms: CA_1  and  C_7
REMARK    3  A    between atoms: CA_1  and  C_10
REMARK    4  A    between atoms: C_7  and  O_8
REMARK    5  A    between atoms: C_10  and  C_11
REMARK    6  A    between atoms: C_11  and  C_14
REMARK    7  A    between atoms: N_13  and  C_16
REMARK                            x       y       z     vdW  Elec       q    Type
REMARK                         _______ _______ _______ _____ _____    ______ ____
ROOT
ATOM      1  CA  UNL     1      34.353 -18.956 -21.364  0.00  0.00    +0.036 C 
ENDROOT
BRANCH   1   2
ATOM      2  N   UNL     1      35.647 -18.641 -20.751  0.00  0.00    +0.389 N 
ATOM      3  H1  UNL     1      35.770 -19.204 -19.909  0.00  0.00    -0.088 HD
ATOM      4  H2  UNL     1      35.675 -17.652 -20.507  0.00  0.00    -0.088 HD
ATOM      5  H3  UNL     1      36.396 -18.850 -21.412  0.00  0.00    -0.088 HD
ENDBRANCH   1   2
BRANCH   1   7
ATOM      6  OXT UNL     1      32.595 -20.435 -20.550  0.00  0.00    -0.253 OA
ATOM      7  C   UNL     1      33.779 -20.129 -20.588  0.00  0.00    +0.293 C 
BRANCH   7   8
ATOM      8  O   UNL     1      34.735 -20.807 -19.900  0.00  0.00    -0.482 OA
ATOM      9  H   UNL     1      34.868 -21.721 -20.061  0.00  0.00    +0.295 HD
ENDBRANCH   7   8
ENDBRANCH   1   7
BRANCH   1  10
ATOM     10  C   UNL     1      34.559 -19.311 -22.840  0.00  0.00    -0.001 C 
BRANCH  10  11
ATOM     11  C   UNL     1      35.510 -18.349 -23.556  0.00  0.00    +0.083 C 
BRANCH  11  14
ATOM     12  O   UNL     1      34.505 -17.566 -25.616  0.00  0.00    -0.275 OA
ATOM     13  N   UNL     1      34.441 -16.203 -23.736  0.00  0.00    -0.304 N 
ATOM     14  C   UNL     1      34.772 -17.354 -24.436  0.00  0.00    +0.222 C 
ATOM     15  H   UNL     1      34.704 -16.134 -22.790  0.00  0.00    +0.149 HD
BRANCH  13  16
ATOM     16  C   UNL     1      33.728 -15.100 -24.337  0.00  0.00    +0.089 C 
ATOM     17  C   UNL     1      33.938 -13.815 -23.563  0.00  0.00    +0.023 C 
ENDBRANCH  13  16
ENDBRANCH  11  14
ENDBRANCH  10  11
ENDBRANCH   1  10
TORSDOF 7
ENDMDL
