MODEL 1
REMARK VINA RESULT:     -12.2      0.000      0.000
REMARK  Name = 118161062
REMARK  4 active torsions:
REMARK  status: ('A' for Active; 'I' for Inactive)
REMARK    1  A    between atoms: N_1  and  C_26
REMARK    2  A    between atoms: C_7  and  C_15
REMARK    3  A    between atoms: C_21  and  N_28
REMARK    4  A    between atoms: N_27  and  C_35
REMARK                            x       y       z     vdW  Elec       q    Type
REMARK                         _______ _______ _______ _____ _____    ______ ____
ROOT
ATOM      1  N   UNL     1      36.244 -22.600 -17.733  0.00  0.00    -0.286 N 
ATOM      2  N   UNL     1      35.198 -23.871 -14.418  0.00  0.00    -0.260 N 
ATOM      3  N   UNL     1      34.132 -23.016 -16.825  0.00  0.00    -0.384 NA
ATOM      4  N   UNL     1      37.288 -23.538 -15.122  0.00  0.00    -0.224 NA
ATOM      5  C   UNL     1      35.444 -23.016 -16.695  0.00  0.00    +0.216 C 
ATOM      6  C   UNL     1      36.016 -23.465 -15.439  0.00  0.00    +0.180 C 
ATOM      7  C   UNL     1      33.331 -23.442 -15.767  0.00  0.00    +0.162 C 
ATOM      8  C   UNL     1      33.829 -23.858 -14.581  0.00  0.00    +0.159 C 
ATOM      9  C   UNL     1      36.003 -24.227 -13.373  0.00  0.00    +0.088 C 
ATOM     10  C   UNL     1      37.287 -24.013 -13.832  0.00  0.00    +0.117 C 
ATOM     11  H   UNL     1      37.133 -23.017 -17.790  0.00  0.00    +0.155 HD
ENDROOT
BRANCH   7  15
ATOM     12  N   UNL     1      31.125 -24.265 -15.246  0.00  0.00    -0.386 NA
ATOM     13  N   UNL     1      29.962 -22.478 -17.069  0.00  0.00    -0.257 NA
ATOM     14  N   UNL     1      28.944 -25.085 -14.727  0.00  0.00    -0.335 N 
ATOM     15  C   UNL     1      31.865 -23.404 -15.972  0.00  0.00    +0.178 C 
ATOM     16  C   UNL     1      31.294 -22.526 -16.867  0.00  0.00    +0.128 C 
ATOM     17  C   UNL     1      29.793 -24.216 -15.447  0.00  0.00    +0.179 C 
ATOM     18  C   UNL     1      29.222 -23.338 -16.342  0.00  0.00    +0.199 C 
ATOM     19  H   UNL     1      29.325 -25.723 -14.081  0.00  0.00    +0.144 HD
ATOM     20  H   UNL     1      27.970 -25.053 -14.871  0.00  0.00    +0.144 HD
ENDBRANCH   7  15
BRANCH   1  26
ATOM     21  C   UNL     1      35.340 -19.757 -20.690  0.00  0.00    +0.048 C 
ATOM     22  C   UNL     1      34.339 -20.596 -20.199  0.00  0.00    +0.016 C 
ATOM     23  C   UNL     1      36.642 -19.864 -20.198  0.00  0.00    +0.016 C 
ATOM     24  C   UNL     1      34.639 -21.539 -19.216  0.00  0.00    +0.016 C 
ATOM     25  C   UNL     1      36.941 -20.807 -19.216  0.00  0.00    +0.016 C 
ATOM     26  C   UNL     1      35.940 -21.645 -18.724  0.00  0.00    +0.050 C 
BRANCH  21  28
ATOM     27  N   UNL     1      34.170 -16.925 -23.632  0.00  0.00    +0.394 N 
ATOM     28  N   UNL     1      35.039 -18.811 -21.676  0.00  0.00    -0.312 N 
ATOM     29  C   UNL     1      34.622 -16.467 -22.312  0.00  0.00    -0.055 C 
ATOM     30  C   UNL     1      34.931 -18.113 -24.036  0.00  0.00    -0.055 C 
ATOM     31  C   UNL     1      34.407 -17.553 -21.257  0.00  0.00    +0.068 C 
ATOM     32  C   UNL     1      34.728 -19.256 -23.038  0.00  0.00    +0.068 C 
ATOM     33  H   UNL     1      33.179 -17.161 -23.584  0.00  0.00    -0.079 HD
BRANCH  27  35
ATOM     34  O   UNL     1      32.776 -14.755 -25.498  0.00  0.00    -0.358 OA
ATOM     35  C   UNL     1      34.382 -15.852 -24.619  0.00  0.00    +0.002 C 
ATOM     36  C   UNL     1      33.400 -16.035 -25.777  0.00  0.00    +0.124 C 
ATOM     37  C   UNL     1      33.505 -14.655 -24.248  0.00  0.00    +0.124 C 
ENDBRANCH  27  35
ENDBRANCH  21  28
ENDBRANCH   1  26
TORSDOF 4
ENDMDL
MODEL 2
REMARK VINA RESULT:     -12.1      0.890      1.254
REMARK  Name = 118161062
REMARK  4 active torsions:
REMARK  status: ('A' for Active; 'I' for Inactive)
REMARK    1  A    between atoms: N_1  and  C_26
REMARK    2  A    between atoms: C_7  and  C_15
REMARK    3  A    between atoms: C_21  and  N_28
REMARK    4  A    between atoms: N_27  and  C_35
REMARK                            x       y       z     vdW  Elec       q    Type
REMARK                         _______ _______ _______ _____ _____    ______ ____
ROOT
ATOM      1  N   UNL     1      36.150 -22.881 -16.905  0.00  0.00    -0.286 N 
ATOM      2  N   UNL     1      34.789 -23.930 -13.628  0.00  0.00    -0.260 N 
ATOM      3  N   UNL     1      33.963 -23.280 -16.188  0.00  0.00    -0.384 NA
ATOM      4  N   UNL     1      36.934 -23.599 -14.139  0.00  0.00    -0.224 NA
ATOM      5  C   UNL     1      35.255 -23.239 -15.926  0.00  0.00    +0.216 C 
ATOM      6  C   UNL     1      35.702 -23.580 -14.588  0.00  0.00    +0.180 C 
ATOM      7  C   UNL     1      33.064 -23.647 -15.187  0.00  0.00    +0.162 C 
ATOM      8  C   UNL     1      33.444 -23.962 -13.929  0.00  0.00    +0.159 C 
ATOM      9  C   UNL     1      35.488 -24.188 -12.482  0.00  0.00    +0.088 C 
ATOM     10  C   UNL     1      36.809 -23.978 -12.823  0.00  0.00    +0.117 C 
ATOM     11  H   UNL     1      37.047 -23.280 -16.841  0.00  0.00    +0.155 HD
ENDROOT
BRANCH   7  15
ATOM     12  N   UNL     1      30.839 -24.520 -14.869  0.00  0.00    -0.386 NA
ATOM     13  N   UNL     1      29.823 -22.824 -16.858  0.00  0.00    -0.257 NA
ATOM     14  N   UNL     1      28.639 -25.390 -14.548  0.00  0.00    -0.335 N 
ATOM     15  C   UNL     1      31.626 -23.659 -15.543  0.00  0.00    +0.178 C 
ATOM     16  C   UNL     1      31.128 -22.825 -16.520  0.00  0.00    +0.128 C 
ATOM     17  C   UNL     1      29.535 -24.518 -15.206  0.00  0.00    +0.179 C 
ATOM     18  C   UNL     1      29.035 -23.685 -16.183  0.00  0.00    +0.199 C 
ATOM     19  H   UNL     1      28.969 -25.996 -13.846  0.00  0.00    +0.144 HD
ATOM     20  H   UNL     1      27.685 -25.392 -14.792  0.00  0.00    +0.144 HD
ENDBRANCH   7  15
BRANCH   1  26
ATOM     21  C   UNL     1      35.506 -20.280 -20.140  0.00  0.00    +0.048 C 
ATOM     22  C   UNL     1      36.726 -20.264 -19.464  0.00  0.00    +0.016 C 
ATOM     23  C   UNL     1      34.499 -21.160 -19.741  0.00  0.00    +0.016 C 
ATOM     24  C   UNL     1      36.941 -21.128 -18.391  0.00  0.00    +0.016 C 
ATOM     25  C   UNL     1      34.714 -22.024 -18.668  0.00  0.00    +0.016 C 
ATOM     26  C   UNL     1      35.934 -22.009 -17.992  0.00  0.00    +0.050 C 
BRANCH  21  28
ATOM     27  N   UNL     1      34.643 -17.550 -23.279  0.00  0.00    +0.394 N 
ATOM     28  N   UNL     1      35.291 -19.413 -21.217  0.00  0.00    -0.312 N 
ATOM     29  C   UNL     1      35.701 -17.241 -22.309  0.00  0.00    -0.055 C 
ATOM     30  C   UNL     1      34.619 -18.992 -23.549  0.00  0.00    -0.055 C 
ATOM     31  C   UNL     1      35.457 -17.972 -20.987  0.00  0.00    +0.068 C 
ATOM     32  C   UNL     1      34.339 -19.782 -22.270  0.00  0.00    +0.068 C 
ATOM     33  H   UNL     1      33.743 -17.265 -22.895  0.00  0.00    -0.079 HD
BRANCH  27  35
ATOM     34  O   UNL     1      33.369 -16.344 -25.935  0.00  0.00    -0.358 OA
ATOM     35  C   UNL     1      34.905 -16.823 -24.533  0.00  0.00    +0.002 C 
ATOM     36  C   UNL     1      34.175 -17.522 -25.680  0.00  0.00    +0.124 C 
ATOM     37  C   UNL     1      33.845 -15.735 -24.707  0.00  0.00    +0.124 C 
ENDBRANCH  27  35
ENDBRANCH  21  28
ENDBRANCH   1  26
TORSDOF 4
ENDMDL
MODEL 3
REMARK VINA RESULT:      -9.5      5.033     12.255
REMARK  Name = 118161062
REMARK  4 active torsions:
REMARK  status: ('A' for Active; 'I' for Inactive)
REMARK    1  A    between atoms: N_1  and  C_26
REMARK    2  A    between atoms: C_7  and  C_15
REMARK    3  A    between atoms: C_21  and  N_28
REMARK    4  A    between atoms: N_27  and  C_35
REMARK                            x       y       z     vdW  Elec       q    Type
REMARK                         _______ _______ _______ _____ _____    ______ ____
ROOT
ATOM      1  N   UNL     1      32.019 -12.649 -21.045  0.00  0.00    -0.286 N 
ATOM      2  N   UNL     1      32.681  -9.170 -22.118  0.00  0.00    -0.260 N 
ATOM      3  N   UNL     1      33.022 -11.782 -22.969  0.00  0.00    -0.384 NA
ATOM      4  N   UNL     1      31.696  -9.819 -20.226  0.00  0.00    -0.224 NA
ATOM      5  C   UNL     1      32.438 -11.582 -21.803  0.00  0.00    +0.216 C 
ATOM      6  C   UNL     1      32.251 -10.217 -21.347  0.00  0.00    +0.180 C 
ATOM      7  C   UNL     1      33.440 -10.692 -23.730  0.00  0.00    +0.162 C 
ATOM      8  C   UNL     1      33.291  -9.409 -23.332  0.00  0.00    +0.159 C 
ATOM      9  C   UNL     1      32.382  -8.021 -21.442  0.00  0.00    +0.088 C 
ATOM     10  C   UNL     1      31.775  -8.447 -20.279  0.00  0.00    +0.117 C 
ATOM     11  H   UNL     1      31.238 -12.492 -20.468  0.00  0.00    +0.155 HD
ENDROOT
BRANCH   7  15
ATOM     12  N   UNL     1      33.628 -12.034 -25.724  0.00  0.00    -0.386 NA
ATOM     13  N   UNL     1      35.765 -10.471 -26.649  0.00  0.00    -0.257 NA
ATOM     14  N   UNL     1      33.808 -13.369 -27.695  0.00  0.00    -0.335 N 
ATOM     15  C   UNL     1      34.101 -10.986 -25.023  0.00  0.00    +0.178 C 
ATOM     16  C   UNL     1      35.150 -10.217 -25.477  0.00  0.00    +0.128 C 
ATOM     17  C   UNL     1      34.242 -12.287 -26.896  0.00  0.00    +0.179 C 
ATOM     18  C   UNL     1      35.291 -11.519 -27.351  0.00  0.00    +0.199 C 
ATOM     19  H   UNL     1      33.060 -13.934 -27.395  0.00  0.00    +0.144 HD
ATOM     20  H   UNL     1      34.254 -13.558 -28.553  0.00  0.00    +0.144 HD
ENDBRANCH   7  15
BRANCH   1  26
ATOM     21  C   UNL     1      33.685 -16.502 -20.895  0.00  0.00    +0.048 C 
ATOM     22  C   UNL     1      32.333 -16.315 -20.604  0.00  0.00    +0.016 C 
ATOM     23  C   UNL     1      34.483 -15.410 -21.235  0.00  0.00    +0.016 C 
ATOM     24  C   UNL     1      31.780 -15.036 -20.655  0.00  0.00    +0.016 C 
ATOM     25  C   UNL     1      33.929 -14.131 -21.286  0.00  0.00    +0.016 C 
ATOM     26  C   UNL     1      32.578 -13.943 -20.996  0.00  0.00    +0.050 C 
BRANCH  21  28
ATOM     27  N   UNL     1      35.391 -20.391 -21.003  0.00  0.00    +0.394 N 
ATOM     28  N   UNL     1      34.240 -17.786 -20.844  0.00  0.00    -0.312 N 
ATOM     29  C   UNL     1      36.225 -19.234 -20.653  0.00  0.00    -0.055 C 
ATOM     30  C   UNL     1      34.037 -20.212 -20.467  0.00  0.00    -0.055 C 
ATOM     31  C   UNL     1      35.644 -17.947 -21.243  0.00  0.00    +0.068 C 
ATOM     32  C   UNL     1      33.382 -18.958 -21.048  0.00  0.00    +0.068 C 
ATOM     33  H   UNL     1      35.342 -20.475 -22.018  0.00  0.00    -0.079 HD
BRANCH  27  35
ATOM     34  O   UNL     1      35.828 -22.111 -18.360  0.00  0.00    -0.358 OA
ATOM     35  C   UNL     1      35.985 -21.611 -20.429  0.00  0.00    +0.002 C 
ATOM     36  C   UNL     1      36.709 -21.253 -19.131  0.00  0.00    +0.124 C 
ATOM     37  C   UNL     1      34.960 -22.277 -19.509  0.00  0.00    +0.124 C 
ENDBRANCH  27  35
ENDBRANCH  21  28
ENDBRANCH   1  26
TORSDOF 4
ENDMDL
