MODEL 1
REMARK VINA RESULT:      -9.1      0.000      0.000
REMARK  Name = 121596705
REMARK  9 active torsions:
REMARK  status: ('A' for Active; 'I' for Inactive)
REMARK    1  A    between atoms: C_1  and  N_3
REMARK    2  A    between atoms: C_1  and  C_16
REMARK    3  A    between atoms: N_4  and  C_8
REMARK    4  A    between atoms: C_8  and  C_10
REMARK    5  A    between atoms: C_10  and  C_12
REMARK    6  A    between atoms: C_16  and  N_17
REMARK    7  A    between atoms: C_16  and  C_21
REMARK    8  A    between atoms: C_21  and  C_22
REMARK    9  A    between atoms: C_27  and  O_28
REMARK                            x       y       z     vdW  Elec       q    Type
REMARK                         _______ _______ _______ _____ _____    ______ ____
ROOT
ATOM      1  C   UNL     1      34.004 -23.490 -17.069  0.00  0.00    +0.071 C 
ENDROOT
BRANCH   1   3
ATOM      2  O   UNL     1      32.949 -22.396 -19.522  0.00  0.00    -0.253 OA
ATOM      3  N   UNL     1      34.584 -22.451 -17.874  0.00  0.00    -0.291 N 
ATOM      4  N   UNL     1      34.776 -20.971 -19.632  0.00  0.00    -0.290 N 
ATOM      5  C   UNL     1      34.006 -21.977 -19.053  0.00  0.00    +0.301 C 
ATOM      6  H   UNL     1      35.434 -22.051 -17.578  0.00  0.00    +0.151 HD
ATOM      7  H   UNL     1      35.609 -20.698 -19.184  0.00  0.00    +0.151 HD
BRANCH   4   8
ATOM      8  C   UNL     1      34.404 -20.308 -20.860  0.00  0.00    +0.077 C 
ATOM      9  C   UNL     1      33.057 -19.615 -20.680  0.00  0.00    +0.022 C 
BRANCH   8  10
ATOM     10  C   UNL     1      35.479 -19.300 -21.299  0.00  0.00    +0.046 C 
BRANCH  10  12
ATOM     11  S   UNL     1      34.669 -16.759 -24.326  0.00  0.00    -0.086 S 
ATOM     12  C   UNL     1      35.134 -18.595 -22.590  0.00  0.00    -0.014 C 
ATOM     13  C   UNL     1      34.813 -19.270 -23.802  0.00  0.00    +0.003 C 
ATOM     14  C   UNL     1      35.093 -17.225 -22.734  0.00  0.00    +0.031 C 
ATOM     15  C   UNL     1      34.539 -18.392 -24.827  0.00  0.00    +0.035 C 
ENDBRANCH  10  12
ENDBRANCH   8  10
ENDBRANCH   4   8
ENDBRANCH   1   3
BRANCH   1  16
ATOM     16  C   UNL     1      34.509 -23.476 -15.619  0.00  0.00    -0.034 C 
BRANCH  16  17
ATOM     17  N   UNL     1      33.385 -23.139 -14.735  0.00  0.00    +0.387 N 
ATOM     18  C   UNL     1      32.123 -23.235 -15.464  0.00  0.00    -0.101 C 
ATOM     19  C   UNL     1      33.378 -24.019 -13.570  0.00  0.00    -0.101 C 
ATOM     20  H   UNL     1      33.497 -22.178 -14.411  0.00  0.00    -0.080 HD
ENDBRANCH  16  17
BRANCH  16  21
ATOM     21  C   UNL     1      35.079 -24.831 -15.148  0.00  0.00    +0.007 C 
BRANCH  21  22
ATOM     22  C   UNL     1      36.584 -24.887 -15.049  0.00  0.00    -0.024 C 
ATOM     23  C   UNL     1      37.210 -26.051 -14.603  0.00  0.00    -0.001 C 
ATOM     24  C   UNL     1      37.348 -23.776 -15.405  0.00  0.00    -0.001 C 
ATOM     25  C   UNL     1      38.602 -26.103 -14.512  0.00  0.00    +0.036 C 
ATOM     26  C   UNL     1      38.739 -23.828 -15.313  0.00  0.00    +0.036 C 
ATOM     27  C   UNL     1      39.366 -24.991 -14.867  0.00  0.00    +0.134 C 
BRANCH  27  28
ATOM     28  O   UNL     1      40.723 -25.043 -14.779  0.00  0.00    -0.506 OA
ATOM     29  H   UNL     1      41.133 -25.196 -13.951  0.00  0.00    +0.292 HD
ENDBRANCH  27  28
ENDBRANCH  21  22
ENDBRANCH  16  21
ENDBRANCH   1  16
TORSDOF 9
ENDMDL
MODEL 2
REMARK VINA RESULT:      -9.0      1.613      1.985
REMARK  Name = 121596705
REMARK  9 active torsions:
REMARK  status: ('A' for Active; 'I' for Inactive)
REMARK    1  A    between atoms: C_1  and  N_3
REMARK    2  A    between atoms: C_1  and  C_16
REMARK    3  A    between atoms: N_4  and  C_8
REMARK    4  A    between atoms: C_8  and  C_10
REMARK    5  A    between atoms: C_10  and  C_12
REMARK    6  A    between atoms: C_16  and  N_17
REMARK    7  A    between atoms: C_16  and  C_21
REMARK    8  A    between atoms: C_21  and  C_22
REMARK    9  A    between atoms: C_27  and  O_28
REMARK                            x       y       z     vdW  Elec       q    Type
REMARK                         _______ _______ _______ _____ _____    ______ ____
ROOT
ATOM      1  C   UNL     1      33.529 -23.588 -16.906  0.00  0.00    +0.071 C 
ENDROOT
BRANCH   1   3
ATOM      2  O   UNL     1      32.718 -22.366 -19.391  0.00  0.00    -0.253 OA
ATOM      3  N   UNL     1      34.268 -22.631 -17.682  0.00  0.00    -0.291 N 
ATOM      4  N   UNL     1      34.716 -21.187 -19.423  0.00  0.00    -0.290 N 
ATOM      5  C   UNL     1      33.802 -22.086 -18.880  0.00  0.00    +0.301 C 
ATOM      6  H   UNL     1      35.150 -22.344 -17.351  0.00  0.00    +0.151 HD
ATOM      7  H   UNL     1      35.559 -21.024 -18.942  0.00  0.00    +0.151 HD
BRANCH   4   8
ATOM      8  C   UNL     1      34.480 -20.481 -20.660  0.00  0.00    +0.077 C 
ATOM      9  C   UNL     1      33.129 -19.775 -20.598  0.00  0.00    +0.022 C 
BRANCH   8  10
ATOM     10  C   UNL     1      35.605 -19.474 -20.953  0.00  0.00    +0.046 C 
BRANCH  10  12
ATOM     11  S   UNL     1      34.846 -16.480 -23.548  0.00  0.00    -0.086 S 
ATOM     12  C   UNL     1      35.297 -18.570 -22.123  0.00  0.00    -0.014 C 
ATOM     13  C   UNL     1      35.067 -19.038 -23.449  0.00  0.00    +0.003 C 
ATOM     14  C   UNL     1      35.207 -17.198 -22.036  0.00  0.00    +0.031 C 
ATOM     15  C   UNL     1      34.809 -18.006 -24.324  0.00  0.00    +0.035 C 
ENDBRANCH  10  12
ENDBRANCH   8  10
ENDBRANCH   4   8
ENDBRANCH   1   3
BRANCH   1  16
ATOM     16  C   UNL     1      33.417 -23.199 -15.425  0.00  0.00    -0.034 C 
BRANCH  16  17
ATOM     17  N   UNL     1      32.008 -22.913 -15.121  0.00  0.00    +0.387 N 
ATOM     18  C   UNL     1      31.154 -23.359 -16.218  0.00  0.00    -0.101 C 
ATOM     19  C   UNL     1      31.622 -23.557 -13.870  0.00  0.00    -0.101 C 
ATOM     20  H   UNL     1      31.892 -21.905 -15.012  0.00  0.00    -0.080 HD
ENDBRANCH  16  17
BRANCH  16  21
ATOM     21  C   UNL     1      33.884 -24.306 -14.456  0.00  0.00    +0.007 C 
BRANCH  21  22
ATOM     22  C   UNL     1      35.151 -23.992 -13.696  0.00  0.00    -0.024 C 
ATOM     23  C   UNL     1      36.332 -23.727 -14.389  0.00  0.00    -0.001 C 
ATOM     24  C   UNL     1      35.139 -23.967 -12.302  0.00  0.00    -0.001 C 
ATOM     25  C   UNL     1      37.502 -23.438 -13.686  0.00  0.00    +0.036 C 
ATOM     26  C   UNL     1      36.309 -23.678 -11.600  0.00  0.00    +0.036 C 
ATOM     27  C   UNL     1      37.491 -23.413 -12.292  0.00  0.00    +0.134 C 
BRANCH  27  28
ATOM     28  O   UNL     1      38.632 -23.128 -11.607  0.00  0.00    -0.506 OA
ATOM     29  H   UNL     1      38.690 -22.342 -11.101  0.00  0.00    +0.292 HD
ENDBRANCH  27  28
ENDBRANCH  21  22
ENDBRANCH  16  21
ENDBRANCH   1  16
TORSDOF 9
ENDMDL
MODEL 3
REMARK VINA RESULT:      -8.8      2.248      4.904
REMARK  Name = 121596705
REMARK  9 active torsions:
REMARK  status: ('A' for Active; 'I' for Inactive)
REMARK    1  A    between atoms: C_1  and  N_3
REMARK    2  A    between atoms: C_1  and  C_16
REMARK    3  A    between atoms: N_4  and  C_8
REMARK    4  A    between atoms: C_8  and  C_10
REMARK    5  A    between atoms: C_10  and  C_12
REMARK    6  A    between atoms: C_16  and  N_17
REMARK    7  A    between atoms: C_16  and  C_21
REMARK    8  A    between atoms: C_21  and  C_22
REMARK    9  A    between atoms: C_27  and  O_28
REMARK                            x       y       z     vdW  Elec       q    Type
REMARK                         _______ _______ _______ _____ _____    ______ ____
ROOT
ATOM      1  C   UNL     1      35.821 -23.491 -15.417  0.00  0.00    +0.071 C 
ENDROOT
BRANCH   1   3
ATOM      2  O   UNL     1      36.918 -21.465 -17.154  0.00  0.00    -0.253 OA
ATOM      3  N   UNL     1      35.292 -23.053 -16.679  0.00  0.00    -0.291 N 
ATOM      4  N   UNL     1      35.168 -21.833 -18.631  0.00  0.00    -0.290 N 
ATOM      5  C   UNL     1      35.887 -22.061 -17.461  0.00  0.00    +0.301 C 
ATOM      6  H   UNL     1      34.466 -23.475 -17.010  0.00  0.00    +0.151 HD
ATOM      7  H   UNL     1      34.353 -22.360 -18.795  0.00  0.00    +0.151 HD
BRANCH   4   8
ATOM      8  C   UNL     1      35.567 -20.857 -19.618  0.00  0.00    +0.077 C 
ATOM      9  C   UNL     1      36.634 -21.457 -20.529  0.00  0.00    +0.022 C 
BRANCH   8  10
ATOM     10  C   UNL     1      34.363 -20.369 -20.440  0.00  0.00    +0.046 C 
BRANCH  10  12
ATOM     11  S   UNL     1      35.062 -17.973 -23.610  0.00  0.00    -0.086 S 
ATOM     12  C   UNL     1      34.724 -19.281 -21.425  0.00  0.00    -0.014 C 
ATOM     13  C   UNL     1      35.281 -18.025 -21.051  0.00  0.00    +0.003 C 
ATOM     14  C   UNL     1      34.552 -19.386 -22.788  0.00  0.00    +0.031 C 
ATOM     15  C   UNL     1      35.514 -17.217 -22.142  0.00  0.00    +0.035 C 
ENDBRANCH  10  12
ENDBRANCH   8  10
ENDBRANCH   4   8
ENDBRANCH   1   3
BRANCH   1  16
ATOM     16  C   UNL     1      34.979 -24.597 -14.766  0.00  0.00    -0.034 C 
BRANCH  16  17
ATOM     17  N   UNL     1      35.878 -25.500 -14.033  0.00  0.00    +0.387 N 
ATOM     18  C   UNL     1      37.060 -25.796 -14.837  0.00  0.00    -0.101 C 
ATOM     19  C   UNL     1      36.257 -24.905 -12.755  0.00  0.00    -0.101 C 
ATOM     20  H   UNL     1      35.387 -26.375 -13.847  0.00  0.00    -0.080 HD
ENDBRANCH  16  17
BRANCH  16  21
ATOM     21  C   UNL     1      33.932 -24.070 -13.761  0.00  0.00    +0.007 C 
BRANCH  21  22
ATOM     22  C   UNL     1      32.507 -24.090 -14.260  0.00  0.00    -0.024 C 
ATOM     23  C   UNL     1      31.638 -25.099 -13.845  0.00  0.00    -0.001 C 
ATOM     24  C   UNL     1      32.060 -23.100 -15.133  0.00  0.00    -0.001 C 
ATOM     25  C   UNL     1      30.321 -25.118 -14.306  0.00  0.00    +0.036 C 
ATOM     26  C   UNL     1      30.744 -23.119 -15.594  0.00  0.00    +0.036 C 
ATOM     27  C   UNL     1      29.874 -24.128 -15.180  0.00  0.00    +0.134 C 
BRANCH  27  28
ATOM     28  O   UNL     1      28.589 -24.145 -15.628  0.00  0.00    -0.506 OA
ATOM     29  H   UNL     1      28.335 -23.596 -16.342  0.00  0.00    +0.292 HD
ENDBRANCH  27  28
ENDBRANCH  21  22
ENDBRANCH  16  21
ENDBRANCH   1  16
TORSDOF 9
ENDMDL
MODEL 4
REMARK VINA RESULT:      -8.8      6.627     10.201
REMARK  Name = 121596705
REMARK  9 active torsions:
REMARK  status: ('A' for Active; 'I' for Inactive)
REMARK    1  A    between atoms: C_1  and  N_3
REMARK    2  A    between atoms: C_1  and  C_16
REMARK    3  A    between atoms: N_4  and  C_8
REMARK    4  A    between atoms: C_8  and  C_10
REMARK    5  A    between atoms: C_10  and  C_12
REMARK    6  A    between atoms: C_16  and  N_17
REMARK    7  A    between atoms: C_16  and  C_21
REMARK    8  A    between atoms: C_21  and  C_22
REMARK    9  A    between atoms: C_27  and  O_28
REMARK                            x       y       z     vdW  Elec       q    Type
REMARK                         _______ _______ _______ _____ _____    ______ ____
ROOT
ATOM      1  C   UNL     1      33.424 -15.138 -23.615  0.00  0.00    +0.071 C 
ENDROOT
BRANCH   1   3
ATOM      2  O   UNL     1      32.729 -12.541 -22.566  0.00  0.00    -0.253 OA
ATOM      3  N   UNL     1      33.942 -13.866 -24.038  0.00  0.00    -0.291 N 
ATOM      4  N   UNL     1      34.207 -11.576 -24.072  0.00  0.00    -0.290 N 
ATOM      5  C   UNL     1      33.551 -12.649 -23.475  0.00  0.00    +0.301 C 
ATOM      6  H   UNL     1      34.608 -13.852 -24.763  0.00  0.00    +0.151 HD
ATOM      7  H   UNL     1      34.851 -11.759 -24.794  0.00  0.00    +0.151 HD
BRANCH   4   8
ATOM      8  C   UNL     1      33.985 -10.204 -23.676  0.00  0.00    +0.077 C 
ATOM      9  C   UNL     1      34.947  -9.292 -24.431  0.00  0.00    +0.022 C 
BRANCH   8  10
ATOM     10  C   UNL     1      32.528  -9.780 -23.923  0.00  0.00    +0.046 C 
BRANCH  10  12
ATOM     11  S   UNL     1      31.948  -6.765 -21.306  0.00  0.00    -0.086 S 
ATOM     12  C   UNL     1      32.137  -8.540 -23.154  0.00  0.00    -0.014 C 
ATOM     13  C   UNL     1      31.260  -7.537 -23.658  0.00  0.00    +0.003 C 
ATOM     14  C   UNL     1      32.585  -8.246 -21.884  0.00  0.00    +0.031 C 
ATOM     15  C   UNL     1      31.071  -6.514 -22.756  0.00  0.00    +0.035 C 
ENDBRANCH  10  12
ENDBRANCH   8  10
ENDBRANCH   4   8
ENDBRANCH   1   3
BRANCH   1  16
ATOM     16  C   UNL     1      34.436 -15.953 -22.798  0.00  0.00    -0.034 C 
BRANCH  16  17
ATOM     17  N   UNL     1      33.995 -15.977 -21.396  0.00  0.00    +0.387 N 
ATOM     18  C   UNL     1      34.706 -14.961 -20.626  0.00  0.00    -0.101 C 
ATOM     19  C   UNL     1      32.552 -15.769 -21.319  0.00  0.00    -0.101 C 
ATOM     20  H   UNL     1      34.209 -16.892 -20.998  0.00  0.00    -0.080 HD
ENDBRANCH  16  17
BRANCH  16  21
ATOM     21  C   UNL     1      34.573 -17.418 -23.265  0.00  0.00    +0.007 C 
BRANCH  21  22
ATOM     22  C   UNL     1      34.992 -18.391 -22.189  0.00  0.00    -0.024 C 
ATOM     23  C   UNL     1      34.053 -19.255 -21.626  0.00  0.00    -0.001 C 
ATOM     24  C   UNL     1      36.318 -18.427 -21.759  0.00  0.00    -0.001 C 
ATOM     25  C   UNL     1      34.441 -20.154 -20.632  0.00  0.00    +0.036 C 
ATOM     26  C   UNL     1      36.706 -19.325 -20.765  0.00  0.00    +0.036 C 
ATOM     27  C   UNL     1      35.767 -20.189 -20.201  0.00  0.00    +0.134 C 
BRANCH  27  28
ATOM     28  O   UNL     1      36.144 -21.067 -19.233  0.00  0.00    -0.506 OA
ATOM     29  H   UNL     1      37.039 -21.105 -18.959  0.00  0.00    +0.292 HD
ENDBRANCH  27  28
ENDBRANCH  21  22
ENDBRANCH  16  21
ENDBRANCH   1  16
TORSDOF 9
ENDMDL
MODEL 5
REMARK VINA RESULT:      -8.8      5.847      9.553
REMARK  Name = 121596705
REMARK  9 active torsions:
REMARK  status: ('A' for Active; 'I' for Inactive)
REMARK    1  A    between atoms: C_1  and  N_3
REMARK    2  A    between atoms: C_1  and  C_16
REMARK    3  A    between atoms: N_4  and  C_8
REMARK    4  A    between atoms: C_8  and  C_10
REMARK    5  A    between atoms: C_10  and  C_12
REMARK    6  A    between atoms: C_16  and  N_17
REMARK    7  A    between atoms: C_16  and  C_21
REMARK    8  A    between atoms: C_21  and  C_22
REMARK    9  A    between atoms: C_27  and  O_28
REMARK                            x       y       z     vdW  Elec       q    Type
REMARK                         _______ _______ _______ _____ _____    ______ ____
ROOT
ATOM      1  C   UNL     1      34.962 -15.871 -22.849  0.00  0.00    +0.071 C 
ENDROOT
BRANCH   1   3
ATOM      2  O   UNL     1      33.767 -13.539 -24.057  0.00  0.00    -0.253 OA
ATOM      3  N   UNL     1      34.048 -14.950 -22.234  0.00  0.00    -0.291 N 
ATOM      4  N   UNL     1      32.657 -13.118 -22.064  0.00  0.00    -0.290 N 
ATOM      5  C   UNL     1      33.513 -13.840 -22.892  0.00  0.00    +0.301 C 
ATOM      6  H   UNL     1      33.784 -15.109 -21.298  0.00  0.00    +0.151 HD
ATOM      7  H   UNL     1      32.512 -13.435 -21.144  0.00  0.00    +0.151 HD
BRANCH   4   8
ATOM      8  C   UNL     1      31.970 -11.924 -22.499  0.00  0.00    +0.077 C 
ATOM      9  C   UNL     1      31.002 -11.466 -21.412  0.00  0.00    +0.022 C 
BRANCH   8  10
ATOM     10  C   UNL     1      32.963 -10.804 -22.848  0.00  0.00    +0.046 C 
BRANCH  10  12
ATOM     11  S   UNL     1      31.103  -7.233 -23.108  0.00  0.00    -0.086 S 
ATOM     12  C   UNL     1      32.377  -9.422 -22.676  0.00  0.00    -0.014 C 
ATOM     13  C   UNL     1      32.560  -8.622 -21.512  0.00  0.00    +0.003 C 
ATOM     14  C   UNL     1      31.605  -8.787 -23.624  0.00  0.00    +0.031 C 
ATOM     15  C   UNL     1      31.920  -7.407 -21.613  0.00  0.00    +0.035 C 
ENDBRANCH  10  12
ENDBRANCH   8  10
ENDBRANCH   4   8
ENDBRANCH   1   3
BRANCH   1  16
ATOM     16  C   UNL     1      34.473 -17.325 -22.795  0.00  0.00    -0.034 C 
BRANCH  16  17
ATOM     17  N   UNL     1      34.324 -17.820 -24.171  0.00  0.00    +0.387 N 
ATOM     18  C   UNL     1      34.786 -16.814 -25.122  0.00  0.00    -0.101 C 
ATOM     19  C   UNL     1      35.063 -19.069 -24.339  0.00  0.00    -0.101 C 
ATOM     20  H   UNL     1      33.337 -18.005 -24.350  0.00  0.00    -0.080 HD
ENDBRANCH  16  17
BRANCH  16  21
ATOM     21  C   UNL     1      35.441 -18.278 -22.062  0.00  0.00    +0.007 C 
BRANCH  21  22
ATOM     22  C   UNL     1      34.773 -19.324 -21.202  0.00  0.00    -0.024 C 
ATOM     23  C   UNL     1      35.543 -20.293 -20.559  0.00  0.00    -0.001 C 
ATOM     24  C   UNL     1      33.387 -19.321 -21.051  0.00  0.00    -0.001 C 
ATOM     25  C   UNL     1      34.925 -21.260 -19.765  0.00  0.00    +0.036 C 
ATOM     26  C   UNL     1      32.769 -20.287 -20.258  0.00  0.00    +0.036 C 
ATOM     27  C   UNL     1      33.538 -21.257 -19.614  0.00  0.00    +0.134 C 
BRANCH  27  28
ATOM     28  O   UNL     1      32.937 -22.199 -18.838  0.00  0.00    -0.506 OA
ATOM     29  H   UNL     1      32.061 -22.473 -19.028  0.00  0.00    +0.292 HD
ENDBRANCH  27  28
ENDBRANCH  21  22
ENDBRANCH  16  21
ENDBRANCH   1  16
TORSDOF 9
ENDMDL
MODEL 6
REMARK VINA RESULT:      -8.8      5.876      9.570
REMARK  Name = 121596705
REMARK  9 active torsions:
REMARK  status: ('A' for Active; 'I' for Inactive)
REMARK    1  A    between atoms: C_1  and  N_3
REMARK    2  A    between atoms: C_1  and  C_16
REMARK    3  A    between atoms: N_4  and  C_8
REMARK    4  A    between atoms: C_8  and  C_10
REMARK    5  A    between atoms: C_10  and  C_12
REMARK    6  A    between atoms: C_16  and  N_17
REMARK    7  A    between atoms: C_16  and  C_21
REMARK    8  A    between atoms: C_21  and  C_22
REMARK    9  A    between atoms: C_27  and  O_28
REMARK                            x       y       z     vdW  Elec       q    Type
REMARK                         _______ _______ _______ _____ _____    ______ ____
ROOT
ATOM      1  C   UNL     1      34.949 -15.844 -22.853  0.00  0.00    +0.071 C 
ENDROOT
BRANCH   1   3
ATOM      2  O   UNL     1      33.726 -13.524 -24.055  0.00  0.00    -0.253 OA
ATOM      3  N   UNL     1      34.039 -14.925 -22.229  0.00  0.00    -0.291 N 
ATOM      4  N   UNL     1      32.641 -13.100 -22.049  0.00  0.00    -0.290 N 
ATOM      5  C   UNL     1      33.489 -13.821 -22.885  0.00  0.00    +0.301 C 
ATOM      6  H   UNL     1      33.789 -15.081 -21.290  0.00  0.00    +0.151 HD
ATOM      7  H   UNL     1      32.511 -13.414 -21.125  0.00  0.00    +0.151 HD
BRANCH   4   8
ATOM      8  C   UNL     1      31.942 -11.911 -22.479  0.00  0.00    +0.077 C 
ATOM      9  C   UNL     1      31.016 -11.431 -21.366  0.00  0.00    +0.022 C 
BRANCH   8  10
ATOM     10  C   UNL     1      32.925 -10.800 -22.884  0.00  0.00    +0.046 C 
BRANCH  10  12
ATOM     11  S   UNL     1      31.856  -7.100 -21.684  0.00  0.00    -0.086 S 
ATOM     12  C   UNL     1      32.363  -9.413 -22.681  0.00  0.00    -0.014 C 
ATOM     13  C   UNL     1      31.461  -8.782 -23.585  0.00  0.00    +0.003 C 
ATOM     14  C   UNL     1      32.662  -8.609 -21.603  0.00  0.00    +0.031 C 
ATOM     15  C   UNL     1      31.105  -7.520 -23.164  0.00  0.00    +0.035 C 
ENDBRANCH  10  12
ENDBRANCH   8  10
ENDBRANCH   4   8
ENDBRANCH   1   3
BRANCH   1  16
ATOM     16  C   UNL     1      34.464 -17.300 -22.794  0.00  0.00    -0.034 C 
BRANCH  16  17
ATOM     17  N   UNL     1      34.319 -17.801 -24.168  0.00  0.00    +0.387 N 
ATOM     18  C   UNL     1      34.777 -16.795 -25.123  0.00  0.00    -0.101 C 
ATOM     19  C   UNL     1      35.064 -19.046 -24.332  0.00  0.00    -0.101 C 
ATOM     20  H   UNL     1      33.333 -17.991 -24.348  0.00  0.00    -0.080 HD
ENDBRANCH  16  17
BRANCH  16  21
ATOM     21  C   UNL     1      35.433 -18.247 -22.055  0.00  0.00    +0.007 C 
BRANCH  21  22
ATOM     22  C   UNL     1      34.765 -19.298 -21.201  0.00  0.00    -0.024 C 
ATOM     23  C   UNL     1      33.379 -19.295 -21.049  0.00  0.00    -0.001 C 
ATOM     24  C   UNL     1      35.534 -20.273 -20.566  0.00  0.00    -0.001 C 
ATOM     25  C   UNL     1      32.762 -20.266 -20.259  0.00  0.00    +0.036 C 
ATOM     26  C   UNL     1      34.918 -21.243 -19.777  0.00  0.00    +0.036 C 
ATOM     27  C   UNL     1      33.532 -21.240 -19.623  0.00  0.00    +0.134 C 
BRANCH  27  28
ATOM     28  O   UNL     1      32.930 -22.188 -18.855  0.00  0.00    -0.506 OA
ATOM     29  H   UNL     1      32.119 -21.998 -18.426  0.00  0.00    +0.292 HD
ENDBRANCH  27  28
ENDBRANCH  21  22
ENDBRANCH  16  21
ENDBRANCH   1  16
TORSDOF 9
ENDMDL
MODEL 7
REMARK VINA RESULT:      -8.8      8.700     14.482
REMARK  Name = 121596705
REMARK  9 active torsions:
REMARK  status: ('A' for Active; 'I' for Inactive)
REMARK    1  A    between atoms: C_1  and  N_3
REMARK    2  A    between atoms: C_1  and  C_16
REMARK    3  A    between atoms: N_4  and  C_8
REMARK    4  A    between atoms: C_8  and  C_10
REMARK    5  A    between atoms: C_10  and  C_12
REMARK    6  A    between atoms: C_16  and  N_17
REMARK    7  A    between atoms: C_16  and  C_21
REMARK    8  A    between atoms: C_21  and  C_22
REMARK    9  A    between atoms: C_27  and  O_28
REMARK                            x       y       z     vdW  Elec       q    Type
REMARK                         _______ _______ _______ _____ _____    ______ ____
ROOT
ATOM      1  C   UNL     1      31.529 -11.152 -21.738  0.00  0.00    +0.071 C 
ENDROOT
BRANCH   1   3
ATOM      2  O   UNL     1      31.960 -13.998 -21.938  0.00  0.00    -0.253 OA
ATOM      3  N   UNL     1      32.237 -11.849 -22.775  0.00  0.00    -0.291 N 
ATOM      4  N   UNL     1      33.126 -13.647 -23.913  0.00  0.00    -0.290 N 
ATOM      5  C   UNL     1      32.401 -13.236 -22.797  0.00  0.00    +0.301 C 
ATOM      6  H   UNL     1      32.626 -11.322 -23.510  0.00  0.00    +0.151 HD
ATOM      7  H   UNL     1      33.439 -12.965 -24.549  0.00  0.00    +0.151 HD
BRANCH   4   8
ATOM      8  C   UNL     1      33.438 -15.033 -24.177  0.00  0.00    +0.077 C 
ATOM      9  C   UNL     1      33.464 -15.273 -25.683  0.00  0.00    +0.022 C 
BRANCH   8  10
ATOM     10  C   UNL     1      34.778 -15.435 -23.540  0.00  0.00    +0.046 C 
BRANCH  10  12
ATOM     11  S   UNL     1      34.564 -18.783 -21.299  0.00  0.00    -0.086 S 
ATOM     12  C   UNL     1      34.757 -16.828 -22.954  0.00  0.00    -0.014 C 
ATOM     13  C   UNL     1      34.985 -18.012 -23.713  0.00  0.00    +0.003 C 
ATOM     14  C   UNL     1      34.515 -17.103 -21.626  0.00  0.00    +0.031 C 
ATOM     15  C   UNL     1      34.909 -19.147 -22.937  0.00  0.00    +0.035 C 
ENDBRANCH  10  12
ENDBRANCH   8  10
ENDBRANCH   4   8
ENDBRANCH   1   3
BRANCH   1  16
ATOM     16  C   UNL     1      31.873  -9.657 -21.679  0.00  0.00    -0.034 C 
BRANCH  16  17
ATOM     17  N   UNL     1      32.325  -9.334 -20.318  0.00  0.00    +0.387 N 
ATOM     18  C   UNL     1      32.083  -7.924 -20.027  0.00  0.00    -0.101 C 
ATOM     19  C   UNL     1      31.647 -10.187 -19.347  0.00  0.00    -0.101 C 
ATOM     20  H   UNL     1      33.328  -9.509 -20.253  0.00  0.00    -0.080 HD
ENDBRANCH  16  17
BRANCH  16  21
ATOM     21  C   UNL     1      32.998  -9.241 -22.652  0.00  0.00    +0.007 C 
BRANCH  21  22
ATOM     22  C   UNL     1      32.715  -7.993 -23.452  0.00  0.00    -0.024 C 
ATOM     23  C   UNL     1      33.767  -7.286 -24.035  0.00  0.00    -0.001 C 
ATOM     24  C   UNL     1      31.404  -7.547 -23.609  0.00  0.00    -0.001 C 
ATOM     25  C   UNL     1      33.505  -6.132 -24.775  0.00  0.00    +0.036 C 
ATOM     26  C   UNL     1      31.142  -6.393 -24.348  0.00  0.00    +0.036 C 
ATOM     27  C   UNL     1      32.193  -5.685 -24.931  0.00  0.00    +0.134 C 
BRANCH  27  28
ATOM     28  O   UNL     1      31.939  -4.561 -25.654  0.00  0.00    -0.506 OA
ATOM     29  H   UNL     1      32.244  -3.729 -25.349  0.00  0.00    +0.292 HD
ENDBRANCH  27  28
ENDBRANCH  21  22
ENDBRANCH  16  21
ENDBRANCH   1  16
TORSDOF 9
ENDMDL
MODEL 8
REMARK VINA RESULT:      -8.7      5.299      8.450
REMARK  Name = 121596705
REMARK  9 active torsions:
REMARK  status: ('A' for Active; 'I' for Inactive)
REMARK    1  A    between atoms: C_1  and  N_3
REMARK    2  A    between atoms: C_1  and  C_16
REMARK    3  A    between atoms: N_4  and  C_8
REMARK    4  A    between atoms: C_8  and  C_10
REMARK    5  A    between atoms: C_10  and  C_12
REMARK    6  A    between atoms: C_16  and  N_17
REMARK    7  A    between atoms: C_16  and  C_21
REMARK    8  A    between atoms: C_21  and  C_22
REMARK    9  A    between atoms: C_27  and  O_28
REMARK                            x       y       z     vdW  Elec       q    Type
REMARK                         _______ _______ _______ _____ _____    ______ ____
ROOT
ATOM      1  C   UNL     1      34.931 -16.885 -20.937  0.00  0.00    +0.071 C 
ENDROOT
BRANCH   1   3
ATOM      2  O   UNL     1      34.832 -14.275 -22.163  0.00  0.00    -0.253 OA
ATOM      3  N   UNL     1      33.827 -15.965 -20.927  0.00  0.00    -0.291 N 
ATOM      4  N   UNL     1      32.661 -14.029 -21.385  0.00  0.00    -0.290 N 
ATOM      5  C   UNL     1      33.862 -14.715 -21.548  0.00  0.00    +0.301 C 
ATOM      6  H   UNL     1      33.003 -16.231 -20.459  0.00  0.00    +0.151 HD
ATOM      7  H   UNL     1      31.937 -14.462 -20.877  0.00  0.00    +0.151 HD
BRANCH   4   8
ATOM      8  C   UNL     1      32.430 -12.712 -21.929  0.00  0.00    +0.077 C 
ATOM      9  C   UNL     1      32.067 -12.825 -23.407  0.00  0.00    +0.022 C 
BRANCH   8  10
ATOM     10  C   UNL     1      31.328 -11.972 -21.155  0.00  0.00    +0.046 C 
BRANCH  10  12
ATOM     11  S   UNL     1      32.136  -8.027 -21.402  0.00  0.00    -0.086 S 
ATOM     12  C   UNL     1      31.631 -10.506 -20.953  0.00  0.00    -0.014 C 
ATOM     13  C   UNL     1      31.769  -9.892 -19.674  0.00  0.00    +0.003 C 
ATOM     14  C   UNL     1      31.807  -9.605 -21.980  0.00  0.00    +0.031 C 
ATOM     15  C   UNL     1      32.044  -8.547 -19.773  0.00  0.00    +0.035 C 
ENDBRANCH  10  12
ENDBRANCH   8  10
ENDBRANCH   4   8
ENDBRANCH   1   3
BRANCH   1  16
ATOM     16  C   UNL     1      34.591 -18.220 -21.615  0.00  0.00    -0.034 C 
BRANCH  16  17
ATOM     17  N   UNL     1      34.537 -18.006 -23.068  0.00  0.00    +0.387 N 
ATOM     18  C   UNL     1      35.650 -17.164 -23.496  0.00  0.00    -0.101 C 
ATOM     19  C   UNL     1      34.560 -19.288 -23.766  0.00  0.00    -0.101 C 
ATOM     20  H   UNL     1      33.665 -17.530 -23.299  0.00  0.00    -0.080 HD
ENDBRANCH  16  17
BRANCH  16  21
ATOM     21  C   UNL     1      35.628 -19.332 -21.348  0.00  0.00    +0.007 C 
BRANCH  21  22
ATOM     22  C   UNL     1      35.191 -20.383 -20.356  0.00  0.00    -0.024 C 
ATOM     23  C   UNL     1      36.141 -21.049 -19.583  0.00  0.00    -0.001 C 
ATOM     24  C   UNL     1      33.837 -20.687 -20.213  0.00  0.00    -0.001 C 
ATOM     25  C   UNL     1      35.736 -22.021 -18.666  0.00  0.00    +0.036 C 
ATOM     26  C   UNL     1      33.433 -21.658 -19.297  0.00  0.00    +0.036 C 
ATOM     27  C   UNL     1      34.383 -22.325 -18.523  0.00  0.00    +0.134 C 
BRANCH  27  28
ATOM     28  O   UNL     1      33.989 -23.271 -17.628  0.00  0.00    -0.506 OA
ATOM     29  H   UNL     1      34.113 -23.128 -16.711  0.00  0.00    +0.292 HD
ENDBRANCH  27  28
ENDBRANCH  21  22
ENDBRANCH  16  21
ENDBRANCH   1  16
TORSDOF 9
ENDMDL
MODEL 9
REMARK VINA RESULT:      -8.7      7.528     13.627
REMARK  Name = 121596705
REMARK  9 active torsions:
REMARK  status: ('A' for Active; 'I' for Inactive)
REMARK    1  A    between atoms: C_1  and  N_3
REMARK    2  A    between atoms: C_1  and  C_16
REMARK    3  A    between atoms: N_4  and  C_8
REMARK    4  A    between atoms: C_8  and  C_10
REMARK    5  A    between atoms: C_10  and  C_12
REMARK    6  A    between atoms: C_16  and  N_17
REMARK    7  A    between atoms: C_16  and  C_21
REMARK    8  A    between atoms: C_21  and  C_22
REMARK    9  A    between atoms: C_27  and  O_28
REMARK                            x       y       z     vdW  Elec       q    Type
REMARK                         _______ _______ _______ _____ _____    ______ ____
ROOT
ATOM      1  C   UNL     1      33.271 -12.453 -23.177  0.00  0.00    +0.071 C 
ENDROOT
BRANCH   1   3
ATOM      2  O   UNL     1      32.731 -15.215 -22.539  0.00  0.00    -0.253 OA
ATOM      3  N   UNL     1      34.162 -13.569 -23.336  0.00  0.00    -0.291 N 
ATOM      4  N   UNL     1      34.869 -15.762 -23.255  0.00  0.00    -0.290 N 
ATOM      5  C   UNL     1      33.821 -14.881 -23.001  0.00  0.00    +0.301 C 
ATOM      6  H   UNL     1      35.061 -13.399 -23.701  0.00  0.00    +0.151 HD
ATOM      7  H   UNL     1      35.707 -15.404 -23.627  0.00  0.00    +0.151 HD
BRANCH   4   8
ATOM      8  C   UNL     1      34.779 -17.181 -22.999  0.00  0.00    +0.077 C 
ATOM      9  C   UNL     1      35.045 -17.952 -24.288  0.00  0.00    +0.022 C 
BRANCH   8  10
ATOM     10  C   UNL     1      35.759 -17.613 -21.896  0.00  0.00    +0.046 C 
BRANCH  10  12
ATOM     11  S   UNL     1      35.380 -21.093 -19.892  0.00  0.00    -0.086 S 
ATOM     12  C   UNL     1      35.328 -18.873 -21.184  0.00  0.00    -0.014 C 
ATOM     13  C   UNL     1      33.968 -19.266 -21.018  0.00  0.00    +0.003 C 
ATOM     14  C   UNL     1      36.200 -19.777 -20.619  0.00  0.00    +0.031 C 
ATOM     15  C   UNL     1      33.853 -20.455 -20.332  0.00  0.00    +0.035 C 
ENDBRANCH  10  12
ENDBRANCH   8  10
ENDBRANCH   4   8
ENDBRANCH   1   3
BRANCH   1  16
ATOM     16  C   UNL     1      33.841 -11.146 -23.746  0.00  0.00    -0.034 C 
BRANCH  16  17
ATOM     17  N   UNL     1      34.613 -11.461 -24.956  0.00  0.00    +0.387 N 
ATOM     18  C   UNL     1      33.724 -11.922 -26.018  0.00  0.00    -0.101 C 
ATOM     19  C   UNL     1      35.371 -10.290 -25.388  0.00  0.00    -0.101 C 
ATOM     20  H   UNL     1      35.274 -12.209 -24.741  0.00  0.00    -0.080 HD
ENDBRANCH  16  17
BRANCH  16  21
ATOM     21  C   UNL     1      32.759 -10.118 -24.141  0.00  0.00    +0.007 C 
BRANCH  21  22
ATOM     22  C   UNL     1      32.614  -8.953 -23.192  0.00  0.00    -0.024 C 
ATOM     23  C   UNL     1      32.294  -9.181 -21.854  0.00  0.00    -0.001 C 
ATOM     24  C   UNL     1      32.800  -7.651 -23.653  0.00  0.00    -0.001 C 
ATOM     25  C   UNL     1      32.159  -8.103 -20.977  0.00  0.00    +0.036 C 
ATOM     26  C   UNL     1      32.665  -6.574 -22.777  0.00  0.00    +0.036 C 
ATOM     27  C   UNL     1      32.344  -6.800 -21.438  0.00  0.00    +0.134 C 
BRANCH  27  28
ATOM     28  O   UNL     1      32.214  -5.751 -20.582  0.00  0.00    -0.506 OA
ATOM     29  H   UNL     1      31.993  -5.903 -19.685  0.00  0.00    +0.292 HD
ENDBRANCH  27  28
ENDBRANCH  21  22
ENDBRANCH  16  21
ENDBRANCH   1  16
TORSDOF 9
ENDMDL
