MODEL 1
REMARK VINA RESULT:      -7.8      0.000      0.000
REMARK  Name = 11397521
REMARK  6 active torsions:
REMARK  status: ('A' for Active; 'I' for Inactive)
REMARK    1  A    between atoms: N_2  and  C_12
REMARK    2  A    between atoms: N_2  and  C_20
REMARK    3  A    between atoms: C_3  and  C_7
REMARK    4  A    between atoms: C_20  and  C_23
REMARK    5  A    between atoms: N_22  and  C_25
REMARK    6  A    between atoms: C_30  and  C_34
REMARK                            x       y       z     vdW  Elec       q    Type
REMARK                         _______ _______ _______ _____ _____    ______ ____
ROOT
ATOM      1  O   UNL     1      34.658 -22.646 -16.860  0.00  0.00    -0.275 OA
ATOM      2  N   UNL     1      36.397 -23.673 -15.652  0.00  0.00    -0.250 N 
ATOM      3  C   UNL     1      35.054 -23.347 -15.925  0.00  0.00    +0.229 C 
ENDROOT
BRANCH   3   7
ATOM      4  S   UNL     1      31.174 -23.969 -13.644  0.00  0.00    -0.010 S 
ATOM      5  O   UNL     1      30.440 -24.796 -12.706  0.00  0.00    -0.173 OA
ATOM      6  O   UNL     1      30.576 -22.775 -14.209  0.00  0.00    -0.173 OA
ATOM      7  C   UNL     1      34.023 -23.946 -15.012  0.00  0.00    +0.081 C 
ATOM      8  C   UNL     1      32.782 -24.331 -15.826  0.00  0.00    +0.034 C 
ATOM      9  C   UNL     1      33.703 -22.953 -13.888  0.00  0.00    +0.034 C 
ATOM     10  C   UNL     1      31.716 -25.010 -14.980  0.00  0.00    +0.151 C 
ATOM     11  C   UNL     1      32.714 -23.515 -12.878  0.00  0.00    +0.151 C 
ENDBRANCH   3   7
BRANCH   2  12
ATOM     12  C   UNL     1      36.765 -24.425 -14.468  0.00  0.00    +0.046 C 
ATOM     13  C   UNL     1      36.717 -25.793 -14.529  0.00  0.00    -0.008 C 
ATOM     14  C   UNL     1      37.142 -23.728 -13.351  0.00  0.00    -0.008 C 
ATOM     15  C   UNL     1      37.072 -26.517 -13.390  0.00  0.00    -0.003 C 
ATOM     16  C   UNL     1      37.497 -24.451 -12.211  0.00  0.00    -0.003 C 
ATOM     17  C   UNL     1      36.304 -26.541 -15.756  0.00  0.00    +0.032 C 
ATOM     18  C   UNL     1      37.191 -22.235 -13.298  0.00  0.00    +0.032 C 
ATOM     19  C   UNL     1      37.461 -25.845 -12.232  0.00  0.00    -0.001 C 
ENDBRANCH   2  12
BRANCH   2  20
ATOM     20  C   UNL     1      37.502 -23.186 -16.492  0.00  0.00    +0.183 C 
BRANCH  20  23
ATOM     21  O   UNL     1      37.184 -20.801 -16.536  0.00  0.00    -0.273 OA
ATOM     22  N   UNL     1      36.740 -22.070 -18.462  0.00  0.00    -0.283 N 
ATOM     23  C   UNL     1      37.130 -21.866 -17.141  0.00  0.00    +0.247 C 
ATOM     24  H   UNL     1      36.757 -23.001 -18.782  0.00  0.00    +0.155 HD
BRANCH  22  25
ATOM     25  C   UNL     1      36.321 -21.095 -19.398  0.00  0.00    +0.050 C 
ATOM     26  C   UNL     1      37.252 -20.211 -19.919  0.00  0.00    +0.015 C 
ATOM     27  C   UNL     1      34.989 -21.043 -19.773  0.00  0.00    +0.015 C 
ATOM     28  C   UNL     1      36.839 -19.250 -20.841  0.00  0.00    +0.011 C 
ATOM     29  C   UNL     1      34.576 -20.082 -20.695  0.00  0.00    +0.011 C 
ATOM     30  C   UNL     1      35.501 -19.185 -21.229  0.00  0.00    +0.065 C 
BRANCH  30  34
ATOM     31  O   UNL     1      34.428 -17.248 -23.980  0.00  0.00    -0.341 OA
ATOM     32  N   UNL     1      34.952 -16.881 -21.833  0.00  0.00    -0.169 NA
ATOM     33  N   UNL     1      34.782 -18.494 -23.446  0.00  0.00    -0.025 NA
ATOM     34  C   UNL     1      35.077 -18.195 -22.179  0.00  0.00    +0.072 C 
ATOM     35  C   UNL     1      34.556 -16.354 -22.964  0.00  0.00    +0.376 C 
ENDBRANCH  30  34
ENDBRANCH  22  25
ENDBRANCH  20  23
ENDBRANCH   2  20
TORSDOF 6
ENDMDL
MODEL 2
REMARK VINA RESULT:      -5.3      2.346      3.292
REMARK  Name = 11397521
REMARK  6 active torsions:
REMARK  status: ('A' for Active; 'I' for Inactive)
REMARK    1  A    between atoms: N_2  and  C_12
REMARK    2  A    between atoms: N_2  and  C_20
REMARK    3  A    between atoms: C_3  and  C_7
REMARK    4  A    between atoms: C_20  and  C_23
REMARK    5  A    between atoms: N_22  and  C_25
REMARK    6  A    between atoms: C_30  and  C_34
REMARK                            x       y       z     vdW  Elec       q    Type
REMARK                         _______ _______ _______ _____ _____    ______ ____
ROOT
ATOM      1  O   UNL     1      32.732 -23.255 -15.045  0.00  0.00    -0.275 OA
ATOM      2  N   UNL     1      34.792 -23.973 -15.927  0.00  0.00    -0.250 N 
ATOM      3  C   UNL     1      33.931 -23.510 -14.912  0.00  0.00    +0.229 C 
ENDROOT
BRANCH   3   7
ATOM      4  S   UNL     1      36.511 -24.250 -11.246  0.00  0.00    -0.010 S 
ATOM      5  O   UNL     1      36.861 -23.823  -9.904  0.00  0.00    -0.173 OA
ATOM      6  O   UNL     1      37.160 -25.395 -11.854  0.00  0.00    -0.173 OA
ATOM      7  C   UNL     1      34.533 -23.360 -13.545  0.00  0.00    +0.081 C 
ATOM      8  C   UNL     1      36.036 -23.087 -13.675  0.00  0.00    +0.034 C 
ATOM      9  C   UNL     1      34.234 -24.616 -12.717  0.00  0.00    +0.034 C 
ATOM     10  C   UNL     1      36.706 -22.854 -12.330  0.00  0.00    +0.151 C 
ATOM     11  C   UNL     1      34.752 -24.513 -11.291  0.00  0.00    +0.151 C 
ENDBRANCH   3   7
BRANCH   2  12
ATOM     12  C   UNL     1      36.211 -24.151 -15.690  0.00  0.00    +0.046 C 
ATOM     13  C   UNL     1      36.646 -25.375 -15.255  0.00  0.00    -0.008 C 
ATOM     14  C   UNL     1      37.042 -23.085 -15.913  0.00  0.00    -0.008 C 
ATOM     15  C   UNL     1      38.012 -25.546 -15.027  0.00  0.00    -0.003 C 
ATOM     16  C   UNL     1      38.408 -23.255 -15.686  0.00  0.00    -0.003 C 
ATOM     17  C   UNL     1      35.728 -26.530 -15.015  0.00  0.00    +0.032 C 
ATOM     18  C   UNL     1      36.554 -21.754 -16.388  0.00  0.00    +0.032 C 
ATOM     19  C   UNL     1      38.892 -24.486 -15.242  0.00  0.00    -0.001 C 
ENDBRANCH   2  12
BRANCH   2  20
ATOM     20  C   UNL     1      34.321 -24.203 -17.301  0.00  0.00    +0.183 C 
BRANCH  20  23
ATOM     21  O   UNL     1      32.864 -22.324 -17.679  0.00  0.00    -0.273 OA
ATOM     22  N   UNL     1      34.897 -22.475 -18.847  0.00  0.00    -0.283 N 
ATOM     23  C   UNL     1      33.918 -22.891 -17.948  0.00  0.00    +0.247 C 
ATOM     24  H   UNL     1      35.682 -23.062 -18.937  0.00  0.00    +0.155 HD
BRANCH  22  25
ATOM     25  C   UNL     1      34.894 -21.308 -19.646  0.00  0.00    +0.050 C 
ATOM     26  C   UNL     1      33.685 -20.779 -20.069  0.00  0.00    +0.015 C 
ATOM     27  C   UNL     1      36.099 -20.719 -19.991  0.00  0.00    +0.015 C 
ATOM     28  C   UNL     1      33.683 -19.628 -20.857  0.00  0.00    +0.011 C 
ATOM     29  C   UNL     1      36.096 -19.568 -20.780  0.00  0.00    +0.011 C 
ATOM     30  C   UNL     1      34.888 -19.023 -21.213  0.00  0.00    +0.065 C 
BRANCH  30  34
ATOM     31  O   UNL     1      34.924 -15.795 -22.643  0.00  0.00    -0.341 OA
ATOM     32  N   UNL     1      34.800 -17.905 -23.384  0.00  0.00    -0.169 NA
ATOM     33  N   UNL     1      34.961 -16.611 -21.505  0.00  0.00    -0.025 NA
ATOM     34  C   UNL     1      34.884 -17.839 -22.025  0.00  0.00    +0.072 C 
ATOM     35  C   UNL     1      34.828 -16.637 -23.706  0.00  0.00    +0.376 C 
ENDBRANCH  30  34
ENDBRANCH  22  25
ENDBRANCH  20  23
ENDBRANCH   2  20
TORSDOF 6
ENDMDL
MODEL 3
REMARK VINA RESULT:      -5.1     10.113     17.129
REMARK  Name = 11397521
REMARK  6 active torsions:
REMARK  status: ('A' for Active; 'I' for Inactive)
REMARK    1  A    between atoms: N_2  and  C_12
REMARK    2  A    between atoms: N_2  and  C_20
REMARK    3  A    between atoms: C_3  and  C_7
REMARK    4  A    between atoms: C_20  and  C_23
REMARK    5  A    between atoms: N_22  and  C_25
REMARK    6  A    between atoms: C_30  and  C_34
REMARK                            x       y       z     vdW  Elec       q    Type
REMARK                         _______ _______ _______ _____ _____    ______ ____
ROOT
ATOM      1  O   UNL     1      29.712  -5.468 -21.540  0.00  0.00    -0.275 OA
ATOM      2  N   UNL     1      31.337  -7.118 -21.961  0.00  0.00    -0.250 N 
ATOM      3  C   UNL     1      30.730  -5.856 -22.119  0.00  0.00    +0.229 C 
ENDROOT
BRANCH   3   7
ATOM      4  S   UNL     1      31.396  -2.543 -25.157  0.00  0.00    -0.010 S 
ATOM      5  O   UNL     1      32.360  -1.786 -25.932  0.00  0.00    -0.173 OA
ATOM      6  O   UNL     1      29.976  -2.268 -25.263  0.00  0.00    -0.173 OA
ATOM      7  C   UNL     1      31.418  -4.896 -23.046  0.00  0.00    +0.081 C 
ATOM      8  C   UNL     1      31.140  -3.458 -22.592  0.00  0.00    +0.034 C 
ATOM      9  C   UNL     1      30.953  -5.158 -24.484  0.00  0.00    +0.034 C 
ATOM     10  C   UNL     1      31.862  -2.426 -23.444  0.00  0.00    +0.151 C 
ATOM     11  C   UNL     1      31.659  -4.270 -25.496  0.00  0.00    +0.151 C 
ENDBRANCH   3   7
BRANCH   2  12
ATOM     12  C   UNL     1      32.478  -7.511 -22.763  0.00  0.00    +0.046 C 
ATOM     13  C   UNL     1      33.731  -7.339 -22.236  0.00  0.00    -0.008 C 
ATOM     14  C   UNL     1      32.244  -8.036 -24.008  0.00  0.00    -0.008 C 
ATOM     15  C   UNL     1      34.829  -7.718 -23.008  0.00  0.00    -0.003 C 
ATOM     16  C   UNL     1      33.342  -8.416 -24.780  0.00  0.00    -0.003 C 
ATOM     17  C   UNL     1      33.972  -6.765 -20.877  0.00  0.00    +0.032 C 
ATOM     18  C   UNL     1      30.871  -8.219 -24.571  0.00  0.00    +0.032 C 
ATOM     19  C   UNL     1      34.634  -8.256 -24.280  0.00  0.00    -0.001 C 
ENDBRANCH   2  12
BRANCH   2  20
ATOM     20  C   UNL     1      30.789  -8.136 -21.053  0.00  0.00    +0.183 C 
BRANCH  20  23
ATOM     21  O   UNL     1      32.591  -9.426 -20.112  0.00  0.00    -0.273 OA
ATOM     22  N   UNL     1      31.434 -10.238 -21.988  0.00  0.00    -0.283 N 
ATOM     23  C   UNL     1      31.722  -9.330 -20.972  0.00  0.00    +0.247 C 
ATOM     24  H   UNL     1      30.696  -9.994 -22.593  0.00  0.00    +0.155 HD
BRANCH  22  25
ATOM     25  C   UNL     1      32.076 -11.471 -22.251  0.00  0.00    +0.050 C 
ATOM     26  C   UNL     1      31.839 -12.551 -21.417  0.00  0.00    +0.015 C 
ATOM     27  C   UNL     1      32.931 -11.572 -23.336  0.00  0.00    +0.015 C 
ATOM     28  C   UNL     1      32.473 -13.766 -21.676  0.00  0.00    +0.011 C 
ATOM     29  C   UNL     1      33.565 -12.787 -23.596  0.00  0.00    +0.011 C 
ATOM     30  C   UNL     1      33.336 -13.884 -22.765  0.00  0.00    +0.065 C 
BRANCH  30  34
ATOM     31  O   UNL     1      34.808 -16.828 -24.042  0.00  0.00    -0.341 OA
ATOM     32  N   UNL     1      34.502 -15.901 -22.026  0.00  0.00    -0.169 NA
ATOM     33  N   UNL     1      34.132 -15.622 -24.266  0.00  0.00    -0.025 NA
ATOM     34  C   UNL     1      33.989 -15.135 -23.031  0.00  0.00    +0.072 C 
ATOM     35  C   UNL     1      34.986 -16.915 -22.697  0.00  0.00    +0.376 C 
ENDBRANCH  30  34
ENDBRANCH  22  25
ENDBRANCH  20  23
ENDBRANCH   2  20
TORSDOF 6
ENDMDL
MODEL 4
REMARK VINA RESULT:      -5.0     10.752     17.062
REMARK  Name = 11397521
REMARK  6 active torsions:
REMARK  status: ('A' for Active; 'I' for Inactive)
REMARK    1  A    between atoms: N_2  and  C_12
REMARK    2  A    between atoms: N_2  and  C_20
REMARK    3  A    between atoms: C_3  and  C_7
REMARK    4  A    between atoms: C_20  and  C_23
REMARK    5  A    between atoms: N_22  and  C_25
REMARK    6  A    between atoms: C_30  and  C_34
REMARK                            x       y       z     vdW  Elec       q    Type
REMARK                         _______ _______ _______ _____ _____    ______ ____
ROOT
ATOM      1  O   UNL     1      29.816  -5.434 -21.386  0.00  0.00    -0.275 OA
ATOM      2  N   UNL     1      31.397  -7.107 -21.876  0.00  0.00    -0.250 N 
ATOM      3  C   UNL     1      30.800  -5.837 -22.010  0.00  0.00    +0.229 C 
ENDROOT
BRANCH   3   7
ATOM      4  S   UNL     1      31.371  -2.526 -25.069  0.00  0.00    -0.010 S 
ATOM      5  O   UNL     1      32.307  -1.791 -25.898  0.00  0.00    -0.173 OA
ATOM      6  O   UNL     1      29.955  -2.214 -25.090  0.00  0.00    -0.173 OA
ATOM      7  C   UNL     1      31.457  -4.891 -22.973  0.00  0.00    +0.081 C 
ATOM      8  C   UNL     1      31.244  -3.449 -22.498  0.00  0.00    +0.034 C 
ATOM      9  C   UNL     1      30.901  -5.133 -24.382  0.00  0.00    +0.034 C 
ATOM     10  C   UNL     1      31.941  -2.431 -23.387  0.00  0.00    +0.151 C 
ATOM     11  C   UNL     1      31.568  -4.258 -25.431  0.00  0.00    +0.151 C 
ENDBRANCH   3   7
BRANCH   2  12
ATOM     12  C   UNL     1      32.494  -7.519 -22.729  0.00  0.00    +0.046 C 
ATOM     13  C   UNL     1      32.197  -8.021 -23.969  0.00  0.00    -0.008 C 
ATOM     14  C   UNL     1      33.771  -7.385 -22.250  0.00  0.00    -0.008 C 
ATOM     15  C   UNL     1      33.253  -8.416 -24.790  0.00  0.00    -0.003 C 
ATOM     16  C   UNL     1      34.828  -7.781 -23.071  0.00  0.00    -0.003 C 
ATOM     17  C   UNL     1      30.799  -8.161 -24.478  0.00  0.00    +0.032 C 
ATOM     18  C   UNL     1      34.081  -6.836 -20.894  0.00  0.00    +0.032 C 
ATOM     19  C   UNL     1      34.568  -8.297 -24.340  0.00  0.00    -0.001 C 
ENDBRANCH   2  12
BRANCH   2  20
ATOM     20  C   UNL     1      30.878  -8.114 -20.938  0.00  0.00    +0.183 C 
BRANCH  20  23
ATOM     21  O   UNL     1      32.690  -9.433 -20.058  0.00  0.00    -0.273 OA
ATOM     22  N   UNL     1      31.474 -10.214 -21.910  0.00  0.00    -0.283 N 
ATOM     23  C   UNL     1      31.800  -9.319 -20.894  0.00  0.00    +0.247 C 
ATOM     24  H   UNL     1      30.725  -9.955 -22.494  0.00  0.00    +0.155 HD
BRANCH  22  25
ATOM     25  C   UNL     1      32.096 -11.451 -22.203  0.00  0.00    +0.050 C 
ATOM     26  C   UNL     1      32.898 -11.557 -23.327  0.00  0.00    +0.015 C 
ATOM     27  C   UNL     1      31.888 -12.530 -21.360  0.00  0.00    +0.015 C 
ATOM     28  C   UNL     1      33.511 -12.776 -23.616  0.00  0.00    +0.011 C 
ATOM     29  C   UNL     1      32.501 -13.749 -21.649  0.00  0.00    +0.011 C 
ATOM     30  C   UNL     1      33.312 -13.873 -22.777  0.00  0.00    +0.065 C 
BRANCH  30  34
ATOM     31  O   UNL     1      35.025 -16.958 -22.881  0.00  0.00    -0.341 OA
ATOM     32  N   UNL     1      33.918 -15.659 -24.331  0.00  0.00    -0.169 NA
ATOM     33  N   UNL     1      34.585 -15.846 -22.152  0.00  0.00    -0.025 NA
ATOM     34  C   UNL     1      33.942 -15.128 -23.075  0.00  0.00    +0.072 C 
ATOM     35  C   UNL     1      34.590 -16.768 -24.154  0.00  0.00    +0.376 C 
ENDBRANCH  30  34
ENDBRANCH  22  25
ENDBRANCH  20  23
ENDBRANCH   2  20
TORSDOF 6
ENDMDL
