MODEL 1
REMARK VINA RESULT:      -9.7      0.000      0.000
REMARK  Name = 69150
REMARK  4 active torsions:
REMARK  status: ('A' for Active; 'I' for Inactive)
REMARK    1  A    between atoms: C_2  and  C_3
REMARK    2  A    between atoms: C_2  and  C_11
REMARK    3  A    between atoms: C_8  and  O_9
REMARK    4  A    between atoms: C_16  and  O_17
REMARK                            x       y       z     vdW  Elec       q    Type
REMARK                         _______ _______ _______ _____ _____    ______ ____
ROOT
ATOM      1  O   UNL     1      37.047 -18.721 -21.391  0.00  0.00    -0.287 OA
ATOM      2  C   UNL     1      35.862 -18.856 -21.729  0.00  0.00    +0.196 C 
ENDROOT
BRANCH   2   3
ATOM      3  C   UNL     1      35.339 -18.129 -22.876  0.00  0.00    +0.039 C 
ATOM      4  C   UNL     1      34.967 -18.821 -24.029  0.00  0.00    +0.006 C 
ATOM      5  C   UNL     1      35.210 -16.741 -22.823  0.00  0.00    +0.006 C 
ATOM      6  C   UNL     1      34.466 -18.125 -25.129  0.00  0.00    +0.037 C 
ATOM      7  C   UNL     1      34.708 -16.046 -23.923  0.00  0.00    +0.037 C 
ATOM      8  C   UNL     1      34.337 -16.737 -25.076  0.00  0.00    +0.134 C 
BRANCH   8   9
ATOM      9  O   UNL     1      33.849 -16.057 -26.149  0.00  0.00    -0.506 OA
ATOM     10  H   UNL     1      33.047 -16.330 -26.550  0.00  0.00    +0.292 HD
ENDBRANCH   8   9
ENDBRANCH   2   3
BRANCH   2  11
ATOM     11  C   UNL     1      35.019 -19.783 -20.916  0.00  0.00    +0.039 C 
ATOM     12  C   UNL     1      33.660 -19.569 -20.872  0.00  0.00    +0.006 C 
ATOM     13  C   UNL     1      35.634 -20.814 -20.245  0.00  0.00    +0.006 C 
ATOM     14  C   UNL     1      32.873 -20.435 -20.113  0.00  0.00    +0.037 C 
ATOM     15  C   UNL     1      34.847 -21.680 -19.486  0.00  0.00    +0.037 C 
ATOM     16  C   UNL     1      33.466 -21.490 -19.420  0.00  0.00    +0.134 C 
BRANCH  16  17
ATOM     17  O   UNL     1      32.698 -22.335 -18.679  0.00  0.00    -0.506 OA
ATOM     18  H   UNL     1      31.772 -22.371 -18.820  0.00  0.00    +0.292 HD
ENDBRANCH  16  17
ENDBRANCH   2  11
TORSDOF 4
ENDMDL
MODEL 2
REMARK VINA RESULT:      -9.7      0.039      1.209
REMARK  Name = 69150
REMARK  4 active torsions:
REMARK  status: ('A' for Active; 'I' for Inactive)
REMARK    1  A    between atoms: C_2  and  C_3
REMARK    2  A    between atoms: C_2  and  C_11
REMARK    3  A    between atoms: C_8  and  O_9
REMARK    4  A    between atoms: C_16  and  O_17
REMARK                            x       y       z     vdW  Elec       q    Type
REMARK                         _______ _______ _______ _____ _____    ______ ____
ROOT
ATOM      1  O   UNL     1      37.054 -18.777 -21.389  0.00  0.00    -0.287 OA
ATOM      2  C   UNL     1      35.865 -18.894 -21.722  0.00  0.00    +0.196 C 
ENDROOT
BRANCH   2   3
ATOM      3  C   UNL     1      35.349 -18.162 -22.868  0.00  0.00    +0.039 C 
ATOM      4  C   UNL     1      34.961 -18.851 -24.018  0.00  0.00    +0.006 C 
ATOM      5  C   UNL     1      35.242 -16.772 -22.818  0.00  0.00    +0.006 C 
ATOM      6  C   UNL     1      34.466 -18.150 -25.117  0.00  0.00    +0.037 C 
ATOM      7  C   UNL     1      34.746 -16.071 -23.918  0.00  0.00    +0.037 C 
ATOM      8  C   UNL     1      34.359 -16.760 -25.067  0.00  0.00    +0.134 C 
BRANCH   8   9
ATOM      9  O   UNL     1      33.877 -16.075 -26.140  0.00  0.00    -0.506 OA
ATOM     10  H   UNL     1      34.011 -15.150 -26.203  0.00  0.00    +0.292 HD
ENDBRANCH   8   9
ENDBRANCH   2   3
BRANCH   2  11
ATOM     11  C   UNL     1      35.011 -19.806 -20.903  0.00  0.00    +0.039 C 
ATOM     12  C   UNL     1      35.617 -20.828 -20.208  0.00  0.00    +0.006 C 
ATOM     13  C   UNL     1      33.654 -19.588 -20.876  0.00  0.00    +0.006 C 
ATOM     14  C   UNL     1      34.820 -21.679 -19.444  0.00  0.00    +0.037 C 
ATOM     15  C   UNL     1      32.856 -20.441 -20.112  0.00  0.00    +0.037 C 
ATOM     16  C   UNL     1      33.439 -21.486 -19.396  0.00  0.00    +0.134 C 
BRANCH  16  17
ATOM     17  O   UNL     1      32.661 -22.317 -18.651  0.00  0.00    -0.506 OA
ATOM     18  H   UNL     1      32.028 -22.867 -19.070  0.00  0.00    +0.292 HD
ENDBRANCH  16  17
ENDBRANCH   2  11
TORSDOF 4
ENDMDL
MODEL 3
REMARK VINA RESULT:      -9.7      0.029      5.874
REMARK  Name = 69150
REMARK  4 active torsions:
REMARK  status: ('A' for Active; 'I' for Inactive)
REMARK    1  A    between atoms: C_2  and  C_3
REMARK    2  A    between atoms: C_2  and  C_11
REMARK    3  A    between atoms: C_8  and  O_9
REMARK    4  A    between atoms: C_16  and  O_17
REMARK                            x       y       z     vdW  Elec       q    Type
REMARK                         _______ _______ _______ _____ _____    ______ ____
ROOT
ATOM      1  O   UNL     1      37.059 -18.696 -21.466  0.00  0.00    -0.287 OA
ATOM      2  C   UNL     1      35.863 -18.866 -21.745  0.00  0.00    +0.196 C 
ENDROOT
BRANCH   2   3
ATOM      3  C   UNL     1      35.044 -19.764 -20.946  0.00  0.00    +0.039 C 
ATOM      4  C   UNL     1      35.641 -20.811 -20.242  0.00  0.00    +0.006 C 
ATOM      5  C   UNL     1      33.663 -19.579 -20.882  0.00  0.00    +0.006 C 
ATOM      6  C   UNL     1      34.856 -21.672 -19.476  0.00  0.00    +0.037 C 
ATOM      7  C   UNL     1      32.879 -20.440 -20.115  0.00  0.00    +0.037 C 
ATOM      8  C   UNL     1      33.475 -21.487 -19.412  0.00  0.00    +0.134 C 
BRANCH   8   9
ATOM      9  O   UNL     1      32.709 -22.328 -18.665  0.00  0.00    -0.506 OA
ATOM     10  H   UNL     1      32.918 -23.240 -18.625  0.00  0.00    +0.292 HD
ENDBRANCH   8   9
ENDBRANCH   2   3
BRANCH   2  11
ATOM     11  C   UNL     1      35.319 -18.116 -22.917  0.00  0.00    +0.039 C 
ATOM     12  C   UNL     1      34.959 -18.823 -24.041  0.00  0.00    +0.006 C 
ATOM     13  C   UNL     1      35.200 -16.749 -22.826  0.00  0.00    +0.006 C 
ATOM     14  C   UNL     1      34.451 -18.123 -25.135  0.00  0.00    +0.037 C 
ATOM     15  C   UNL     1      34.693 -16.049 -23.921  0.00  0.00    +0.037 C 
ATOM     16  C   UNL     1      34.318 -16.736 -25.075  0.00  0.00    +0.134 C 
BRANCH  16  17
ATOM     17  O   UNL     1      33.823 -16.053 -26.143  0.00  0.00    -0.506 OA
ATOM     18  H   UNL     1      32.902 -15.892 -26.210  0.00  0.00    +0.292 HD
ENDBRANCH  16  17
ENDBRANCH   2  11
TORSDOF 4
ENDMDL
MODEL 4
REMARK VINA RESULT:      -9.7      0.029      5.901
REMARK  Name = 69150
REMARK  4 active torsions:
REMARK  status: ('A' for Active; 'I' for Inactive)
REMARK    1  A    between atoms: C_2  and  C_3
REMARK    2  A    between atoms: C_2  and  C_11
REMARK    3  A    between atoms: C_8  and  O_9
REMARK    4  A    between atoms: C_16  and  O_17
REMARK                            x       y       z     vdW  Elec       q    Type
REMARK                         _______ _______ _______ _____ _____    ______ ____
ROOT
ATOM      1  O   UNL     1      37.057 -18.695 -21.462  0.00  0.00    -0.287 OA
ATOM      2  C   UNL     1      35.861 -18.862 -21.744  0.00  0.00    +0.196 C 
ENDROOT
BRANCH   2   3
ATOM      3  C   UNL     1      35.037 -19.757 -20.947  0.00  0.00    +0.039 C 
ATOM      4  C   UNL     1      33.656 -19.570 -20.892  0.00  0.00    +0.006 C 
ATOM      5  C   UNL     1      35.629 -20.803 -20.238  0.00  0.00    +0.006 C 
ATOM      6  C   UNL     1      32.866 -20.429 -20.128  0.00  0.00    +0.037 C 
ATOM      7  C   UNL     1      34.838 -21.662 -19.474  0.00  0.00    +0.037 C 
ATOM      8  C   UNL     1      33.457 -21.475 -19.419  0.00  0.00    +0.134 C 
BRANCH   8   9
ATOM      9  O   UNL     1      32.686 -22.312 -18.672  0.00  0.00    -0.506 OA
ATOM     10  H   UNL     1      32.987 -22.600 -17.832  0.00  0.00    +0.292 HD
ENDBRANCH   8   9
ENDBRANCH   2   3
BRANCH   2  11
ATOM     11  C   UNL     1      35.322 -18.111 -22.918  0.00  0.00    +0.039 C 
ATOM     12  C   UNL     1      34.959 -18.817 -24.041  0.00  0.00    +0.006 C 
ATOM     13  C   UNL     1      35.211 -16.743 -22.829  0.00  0.00    +0.006 C 
ATOM     14  C   UNL     1      34.457 -18.116 -25.137  0.00  0.00    +0.037 C 
ATOM     15  C   UNL     1      34.710 -16.041 -23.925  0.00  0.00    +0.037 C 
ATOM     16  C   UNL     1      34.332 -16.728 -25.079  0.00  0.00    +0.134 C 
BRANCH  16  17
ATOM     17  O   UNL     1      33.842 -16.044 -26.149  0.00  0.00    -0.506 OA
ATOM     18  H   UNL     1      33.924 -15.111 -26.185  0.00  0.00    +0.292 HD
ENDBRANCH  16  17
ENDBRANCH   2  11
TORSDOF 4
ENDMDL
MODEL 5
REMARK VINA RESULT:      -9.0      1.541      5.874
REMARK  Name = 69150
REMARK  4 active torsions:
REMARK  status: ('A' for Active; 'I' for Inactive)
REMARK    1  A    between atoms: C_2  and  C_3
REMARK    2  A    between atoms: C_2  and  C_11
REMARK    3  A    between atoms: C_8  and  O_9
REMARK    4  A    between atoms: C_16  and  O_17
REMARK                            x       y       z     vdW  Elec       q    Type
REMARK                         _______ _______ _______ _____ _____    ______ ____
ROOT
ATOM      1  O   UNL     1      36.922 -18.556 -22.041  0.00  0.00    -0.287 OA
ATOM      2  C   UNL     1      35.757 -18.338 -21.676  0.00  0.00    +0.196 C 
ENDROOT
BRANCH   2   3
ATOM      3  C   UNL     1      35.003 -19.368 -20.979  0.00  0.00    +0.039 C 
ATOM      4  C   UNL     1      35.673 -20.362 -20.267  0.00  0.00    +0.006 C 
ATOM      5  C   UNL     1      33.608 -19.362 -21.024  0.00  0.00    +0.006 C 
ATOM      6  C   UNL     1      34.950 -21.350 -19.599  0.00  0.00    +0.037 C 
ATOM      7  C   UNL     1      32.885 -20.351 -20.356  0.00  0.00    +0.037 C 
ATOM      8  C   UNL     1      33.556 -21.345 -19.644  0.00  0.00    +0.134 C 
BRANCH   8   9
ATOM      9  O   UNL     1      32.849 -22.309 -18.993  0.00  0.00    -0.506 OA
ATOM     10  H   UNL     1      32.200 -22.067 -18.363  0.00  0.00    +0.292 HD
ENDBRANCH   8   9
ENDBRANCH   2   3
BRANCH   2  11
ATOM     11  C   UNL     1      35.184 -16.993 -21.980  0.00  0.00    +0.039 C 
ATOM     12  C   UNL     1      34.821 -16.180 -20.931  0.00  0.00    +0.006 C 
ATOM     13  C   UNL     1      35.042 -16.621 -23.296  0.00  0.00    +0.006 C 
ATOM     14  C   UNL     1      34.286 -14.924 -21.215  0.00  0.00    +0.037 C 
ATOM     15  C   UNL     1      34.505 -15.364 -23.580  0.00  0.00    +0.037 C 
ATOM     16  C   UNL     1      34.128 -14.516 -22.540  0.00  0.00    +0.134 C 
BRANCH  16  17
ATOM     17  O   UNL     1      33.605 -13.290 -22.817  0.00  0.00    -0.506 OA
ATOM     18  H   UNL     1      34.117 -12.656 -23.278  0.00  0.00    +0.292 HD
ENDBRANCH  16  17
ENDBRANCH   2  11
TORSDOF 4
ENDMDL
MODEL 6
REMARK VINA RESULT:      -9.0      1.565      2.222
REMARK  Name = 69150
REMARK  4 active torsions:
REMARK  status: ('A' for Active; 'I' for Inactive)
REMARK    1  A    between atoms: C_2  and  C_3
REMARK    2  A    between atoms: C_2  and  C_11
REMARK    3  A    between atoms: C_8  and  O_9
REMARK    4  A    between atoms: C_16  and  O_17
REMARK                            x       y       z     vdW  Elec       q    Type
REMARK                         _______ _______ _______ _____ _____    ______ ____
ROOT
ATOM      1  O   UNL     1      36.890 -18.589 -22.015  0.00  0.00    -0.287 OA
ATOM      2  C   UNL     1      35.733 -18.319 -21.660  0.00  0.00    +0.196 C 
ENDROOT
BRANCH   2   3
ATOM      3  C   UNL     1      35.167 -17.009 -21.940  0.00  0.00    +0.039 C 
ATOM      4  C   UNL     1      34.785 -16.175 -20.889  0.00  0.00    +0.006 C 
ATOM      5  C   UNL     1      35.005 -16.587 -23.260  0.00  0.00    +0.006 C 
ATOM      6  C   UNL     1      34.243 -14.919 -21.158  0.00  0.00    +0.037 C 
ATOM      7  C   UNL     1      34.462 -15.330 -23.528  0.00  0.00    +0.037 C 
ATOM      8  C   UNL     1      34.081 -14.496 -22.477  0.00  0.00    +0.134 C 
BRANCH   8   9
ATOM      9  O   UNL     1      33.550 -13.270 -22.740  0.00  0.00    -0.506 OA
ATOM     10  H   UNL     1      32.624 -13.140 -22.683  0.00  0.00    +0.292 HD
ENDBRANCH   8   9
ENDBRANCH   2   3
BRANCH   2  11
ATOM     11  C   UNL     1      34.968 -19.386 -20.946  0.00  0.00    +0.039 C 
ATOM     12  C   UNL     1      33.594 -19.351 -20.989  0.00  0.00    +0.006 C 
ATOM     13  C   UNL     1      35.669 -20.361 -20.275  0.00  0.00    +0.006 C 
ATOM     14  C   UNL     1      32.880 -20.347 -20.323  0.00  0.00    +0.037 C 
ATOM     15  C   UNL     1      34.955 -21.357 -19.608  0.00  0.00    +0.037 C 
ATOM     16  C   UNL     1      33.561 -21.350 -19.632  0.00  0.00    +0.134 C 
BRANCH  16  17
ATOM     17  O   UNL     1      32.864 -22.321 -18.982  0.00  0.00    -0.506 OA
ATOM     18  H   UNL     1      33.093 -23.222 -19.102  0.00  0.00    +0.292 HD
ENDBRANCH  16  17
ENDBRANCH   2  11
TORSDOF 4
ENDMDL
MODEL 7
REMARK VINA RESULT:      -9.0      1.557      5.871
REMARK  Name = 69150
REMARK  4 active torsions:
REMARK  status: ('A' for Active; 'I' for Inactive)
REMARK    1  A    between atoms: C_2  and  C_3
REMARK    2  A    between atoms: C_2  and  C_11
REMARK    3  A    between atoms: C_8  and  O_9
REMARK    4  A    between atoms: C_16  and  O_17
REMARK                            x       y       z     vdW  Elec       q    Type
REMARK                         _______ _______ _______ _____ _____    ______ ____
ROOT
ATOM      1  O   UNL     1      36.898 -18.573 -22.046  0.00  0.00    -0.287 OA
ATOM      2  C   UNL     1      35.738 -18.362 -21.664  0.00  0.00    +0.196 C 
ENDROOT
BRANCH   2   3
ATOM      3  C   UNL     1      34.994 -19.402 -20.969  0.00  0.00    +0.039 C 
ATOM      4  C   UNL     1      33.599 -19.397 -20.995  0.00  0.00    +0.006 C 
ATOM      5  C   UNL     1      35.676 -20.404 -20.278  0.00  0.00    +0.006 C 
ATOM      6  C   UNL     1      32.887 -20.394 -20.329  0.00  0.00    +0.037 C 
ATOM      7  C   UNL     1      34.962 -21.401 -19.612  0.00  0.00    +0.037 C 
ATOM      8  C   UNL     1      33.567 -21.396 -19.638  0.00  0.00    +0.134 C 
BRANCH   8   9
ATOM      9  O   UNL     1      32.872 -22.368 -18.988  0.00  0.00    -0.506 OA
ATOM     10  H   UNL     1      32.658 -23.166 -19.431  0.00  0.00    +0.292 HD
ENDBRANCH   8   9
ENDBRANCH   2   3
BRANCH   2  11
ATOM     11  C   UNL     1      35.157 -17.015 -21.946  0.00  0.00    +0.039 C 
ATOM     12  C   UNL     1      35.017 -16.620 -23.256  0.00  0.00    +0.006 C 
ATOM     13  C   UNL     1      34.785 -16.224 -20.884  0.00  0.00    +0.006 C 
ATOM     14  C   UNL     1      34.475 -15.362 -23.519  0.00  0.00    +0.037 C 
ATOM     15  C   UNL     1      34.244 -14.965 -21.147  0.00  0.00    +0.037 C 
ATOM     16  C   UNL     1      34.089 -14.535 -22.465  0.00  0.00    +0.134 C 
BRANCH  16  17
ATOM     17  O   UNL     1      33.560 -13.307 -22.722  0.00  0.00    -0.506 OA
ATOM     18  H   UNL     1      32.648 -13.222 -22.921  0.00  0.00    +0.292 HD
ENDBRANCH  16  17
ENDBRANCH   2  11
TORSDOF 4
ENDMDL
MODEL 8
REMARK VINA RESULT:      -8.8      1.495      2.191
REMARK  Name = 69150
REMARK  4 active torsions:
REMARK  status: ('A' for Active; 'I' for Inactive)
REMARK    1  A    between atoms: C_2  and  C_3
REMARK    2  A    between atoms: C_2  and  C_11
REMARK    3  A    between atoms: C_8  and  O_9
REMARK    4  A    between atoms: C_16  and  O_17
REMARK                            x       y       z     vdW  Elec       q    Type
REMARK                         _______ _______ _______ _____ _____    ______ ____
ROOT
ATOM      1  O   UNL     1      35.076 -16.022 -20.633  0.00  0.00    -0.287 OA
ATOM      2  C   UNL     1      34.846 -16.897 -21.480  0.00  0.00    +0.196 C 
ENDROOT
BRANCH   2   3
ATOM      3  C   UNL     1      34.497 -16.525 -22.843  0.00  0.00    +0.039 C 
ATOM      4  C   UNL     1      33.826 -15.327 -23.088  0.00  0.00    +0.006 C 
ATOM      5  C   UNL     1      34.833 -17.367 -23.903  0.00  0.00    +0.006 C 
ATOM      6  C   UNL     1      33.492 -14.970 -24.394  0.00  0.00    +0.037 C 
ATOM      7  C   UNL     1      34.498 -17.009 -25.210  0.00  0.00    +0.037 C 
ATOM      8  C   UNL     1      33.827 -15.811 -25.455  0.00  0.00    +0.134 C 
BRANCH   8   9
ATOM      9  O   UNL     1      33.500 -15.463 -26.729  0.00  0.00    -0.506 OA
ATOM     10  H   UNL     1      34.079 -15.675 -27.435  0.00  0.00    +0.292 HD
ENDBRANCH   8   9
ENDBRANCH   2   3
BRANCH   2  11
ATOM     11  C   UNL     1      34.946 -18.321 -21.039  0.00  0.00    +0.039 C 
ATOM     12  C   UNL     1      33.785 -19.037 -20.861  0.00  0.00    +0.006 C 
ATOM     13  C   UNL     1      36.194 -18.859 -20.830  0.00  0.00    +0.006 C 
ATOM     14  C   UNL     1      33.878 -20.367 -20.449  0.00  0.00    +0.037 C 
ATOM     15  C   UNL     1      36.287 -20.189 -20.418  0.00  0.00    +0.037 C 
ATOM     16  C   UNL     1      35.129 -20.942 -20.228  0.00  0.00    +0.134 C 
BRANCH  16  17
ATOM     17  O   UNL     1      35.219 -22.239 -19.826  0.00  0.00    -0.506 OA
ATOM     18  H   UNL     1      34.497 -22.646 -19.388  0.00  0.00    +0.292 HD
ENDBRANCH  16  17
ENDBRANCH   2  11
TORSDOF 4
ENDMDL
MODEL 9
REMARK VINA RESULT:      -8.7      3.007      7.898
REMARK  Name = 69150
REMARK  4 active torsions:
REMARK  status: ('A' for Active; 'I' for Inactive)
REMARK    1  A    between atoms: C_2  and  C_3
REMARK    2  A    between atoms: C_2  and  C_11
REMARK    3  A    between atoms: C_8  and  O_9
REMARK    4  A    between atoms: C_16  and  O_17
REMARK                            x       y       z     vdW  Elec       q    Type
REMARK                         _______ _______ _______ _____ _____    ______ ____
ROOT
ATOM      1  O   UNL     1      33.829 -24.197 -19.377  0.00  0.00    -0.287 OA
ATOM      2  C   UNL     1      33.820 -23.142 -18.726  0.00  0.00    +0.196 C 
ENDROOT
BRANCH   2   3
ATOM      3  C   UNL     1      33.491 -23.157 -17.309  0.00  0.00    +0.039 C 
ATOM      4  C   UNL     1      32.156 -23.147 -16.903  0.00  0.00    +0.006 C 
ATOM      5  C   UNL     1      34.510 -23.182 -16.357  0.00  0.00    +0.006 C 
ATOM      6  C   UNL     1      31.840 -23.162 -15.545  0.00  0.00    +0.037 C 
ATOM      7  C   UNL     1      34.193 -23.197 -14.998  0.00  0.00    +0.037 C 
ATOM      8  C   UNL     1      32.858 -23.187 -14.592  0.00  0.00    +0.134 C 
BRANCH   8   9
ATOM      9  O   UNL     1      32.551 -23.200 -13.266  0.00  0.00    -0.506 OA
ATOM     10  H   UNL     1      33.032 -22.662 -12.670  0.00  0.00    +0.292 HD
ENDBRANCH   8   9
ENDBRANCH   2   3
BRANCH   2  11
ATOM     11  C   UNL     1      34.158 -21.883 -19.456  0.00  0.00    +0.039 C 
ATOM     12  C   UNL     1      35.484 -21.571 -19.650  0.00  0.00    +0.006 C 
ATOM     13  C   UNL     1      33.130 -21.087 -19.905  0.00  0.00    +0.006 C 
ATOM     14  C   UNL     1      35.799 -20.396 -20.332  0.00  0.00    +0.037 C 
ATOM     15  C   UNL     1      33.446 -19.911 -20.586  0.00  0.00    +0.037 C 
ATOM     16  C   UNL     1      34.781 -19.566 -20.800  0.00  0.00    +0.134 C 
BRANCH  16  17
ATOM     17  O   UNL     1      35.089 -18.419 -21.464  0.00  0.00    -0.506 OA
ATOM     18  H   UNL     1      34.721 -18.255 -22.311  0.00  0.00    +0.292 HD
ENDBRANCH  16  17
ENDBRANCH   2  11
TORSDOF 4
ENDMDL
