MODEL 1
REMARK VINA RESULT:      -9.2      0.000      0.000
REMARK  Name = 25147494
REMARK  4 active torsions:
REMARK  status: ('A' for Active; 'I' for Inactive)
REMARK    1  A    between atoms: C_2  and  C_18
REMARK    2  A    between atoms: C_3  and  O_16
REMARK    3  A    between atoms: C_5  and  N_8
REMARK    4  A    between atoms: C_18  and  N_19
REMARK                            x       y       z     vdW  Elec       q    Type
REMARK                         _______ _______ _______ _____ _____    ______ ____
ROOT
ATOM      1  O   UNL     1      35.703 -16.615 -22.888  0.00  0.00    -0.339 OA
ATOM      2  C   UNL     1      34.683 -15.904 -23.615  0.00  0.00    +0.123 C 
ATOM      3  C   UNL     1      34.240 -16.829 -24.741  0.00  0.00    +0.140 C 
ATOM      4  C   UNL     1      34.478 -18.206 -24.166  0.00  0.00    +0.083 C 
ATOM      5  C   UNL     1      35.703 -17.992 -23.292  0.00  0.00    +0.201 C 
ENDROOT
BRANCH   5   8
ATOM      6  O   UNL     1      38.018 -18.704 -21.796  0.00  0.00    -0.252 OA
ATOM      7  O   UNL     1      35.542 -21.219 -18.847  0.00  0.00    -0.270 OA
ATOM      8  N   UNL     1      35.710 -18.828 -22.128  0.00  0.00    -0.219 N 
ATOM      9  N   UNL     1      36.771 -19.957 -20.332  0.00  0.00    -0.236 N 
ATOM     10  C   UNL     1      34.503 -19.345 -21.677  0.00  0.00    +0.071 C 
ATOM     11  C   UNL     1      36.912 -19.127 -21.452  0.00  0.00    +0.315 C 
ATOM     12  C   UNL     1      34.372 -20.138 -20.605  0.00  0.00    +0.047 C 
ATOM     13  C   UNL     1      35.593 -20.498 -19.839  0.00  0.00    +0.250 C 
ATOM     14  C   UNL     1      33.061 -20.683 -20.137  0.00  0.00    +0.037 C 
ATOM     15  H   UNL     1      37.596 -20.179 -19.844  0.00  0.00    +0.159 HD
ENDBRANCH   5   8
BRANCH   3  16
ATOM     16  O   UNL     1      35.072 -16.636 -25.883  0.00  0.00    -0.382 OA
ATOM     17  H   UNL     1      35.403 -17.495 -26.190  0.00  0.00    +0.210 HD
ENDBRANCH   3  16
BRANCH   2  18
ATOM     18  C   UNL     1      33.558 -15.574 -22.643  0.00  0.00    -0.045 C 
BRANCH  18  19
ATOM     19  N   UNL     1      32.958 -14.277 -22.951  0.00  0.00    +0.389 N 
ATOM     20  C   UNL     1      33.941 -13.395 -23.596  0.00  0.00    -0.077 C 
ATOM     21  C   UNL     1      32.411 -13.661 -21.732  0.00  0.00    -0.077 C 
ATOM     22  C   UNL     1      33.316 -12.050 -23.968  0.00  0.00    -0.023 C 
ATOM     23  C   UNL     1      31.736 -12.325 -22.045  0.00  0.00    -0.023 C 
ATOM     24  C   UNL     1      32.692 -11.373 -22.754  0.00  0.00    -0.004 C 
ATOM     25  H   UNL     1      32.187 -14.419 -23.603  0.00  0.00    -0.080 HD
ENDBRANCH  18  19
ENDBRANCH   2  18
TORSDOF 4
ENDMDL
MODEL 2
REMARK VINA RESULT:      -9.0      7.207     10.829
REMARK  Name = 25147494
REMARK  4 active torsions:
REMARK  status: ('A' for Active; 'I' for Inactive)
REMARK    1  A    between atoms: C_2  and  C_18
REMARK    2  A    between atoms: C_3  and  O_16
REMARK    3  A    between atoms: C_5  and  N_8
REMARK    4  A    between atoms: C_18  and  N_19
REMARK                            x       y       z     vdW  Elec       q    Type
REMARK                         _______ _______ _______ _____ _____    ______ ____
ROOT
ATOM      1  O   UNL     1      34.414 -24.738 -14.809  0.00  0.00    -0.339 OA
ATOM      2  C   UNL     1      33.827 -24.571 -13.504  0.00  0.00    +0.123 C 
ATOM      3  C   UNL     1      34.950 -24.105 -12.587  0.00  0.00    +0.140 C 
ATOM      4  C   UNL     1      35.869 -23.357 -13.525  0.00  0.00    +0.083 C 
ATOM      5  C   UNL     1      35.714 -24.131 -14.825  0.00  0.00    +0.201 C 
ENDROOT
BRANCH   5   8
ATOM      6  O   UNL     1      38.083 -22.774 -15.633  0.00  0.00    -0.252 OA
ATOM      7  O   UNL     1      35.997 -20.977 -19.317  0.00  0.00    -0.270 OA
ATOM      8  N   UNL     1      35.836 -23.300 -15.986  0.00  0.00    -0.219 N 
ATOM      9  N   UNL     1      37.030 -21.883 -17.466  0.00  0.00    -0.236 N 
ATOM     10  C   UNL     1      34.721 -23.127 -16.796  0.00  0.00    +0.071 C 
ATOM     11  C   UNL     1      37.056 -22.665 -16.305  0.00  0.00    +0.315 C 
ATOM     12  C   UNL     1      34.701 -22.378 -17.907  0.00  0.00    +0.047 C 
ATOM     13  C   UNL     1      35.949 -21.678 -18.310  0.00  0.00    +0.250 C 
ATOM     14  C   UNL     1      33.489 -22.206 -18.765  0.00  0.00    +0.037 C 
ATOM     15  H   UNL     1      37.869 -21.430 -17.709  0.00  0.00    +0.159 HD
ENDBRANCH   5   8
BRANCH   3  16
ATOM     16  O   UNL     1      35.633 -25.233 -12.045  0.00  0.00    -0.382 OA
ATOM     17  H   UNL     1      35.244 -25.464 -11.187  0.00  0.00    +0.210 HD
ENDBRANCH   3  16
BRANCH   2  18
ATOM     18  C   UNL     1      32.699 -23.555 -13.624  0.00  0.00    -0.045 C 
BRANCH  18  19
ATOM     19  N   UNL     1      31.699 -23.988 -14.599  0.00  0.00    +0.389 N 
ATOM     20  C   UNL     1      30.951 -22.833 -15.116  0.00  0.00    -0.077 C 
ATOM     21  C   UNL     1      30.794 -24.981 -14.001  0.00  0.00    -0.077 C 
ATOM     22  C   UNL     1      29.934 -23.262 -16.173  0.00  0.00    -0.023 C 
ATOM     23  C   UNL     1      29.772 -25.480 -15.023  0.00  0.00    -0.023 C 
ATOM     24  C   UNL     1      28.985 -24.325 -15.630  0.00  0.00    -0.004 C 
ATOM     25  H   UNL     1      32.177 -24.430 -15.383  0.00  0.00    -0.080 HD
ENDBRANCH  18  19
ENDBRANCH   2  18
TORSDOF 4
ENDMDL
MODEL 3
REMARK VINA RESULT:      -8.7      2.315      3.440
REMARK  Name = 25147494
REMARK  4 active torsions:
REMARK  status: ('A' for Active; 'I' for Inactive)
REMARK    1  A    between atoms: C_2  and  C_18
REMARK    2  A    between atoms: C_3  and  O_16
REMARK    3  A    between atoms: C_5  and  N_8
REMARK    4  A    between atoms: C_18  and  N_19
REMARK                            x       y       z     vdW  Elec       q    Type
REMARK                         _______ _______ _______ _____ _____    ______ ____
ROOT
ATOM      1  O   UNL     1      34.242 -13.609 -22.621  0.00  0.00    -0.339 OA
ATOM      2  C   UNL     1      33.099 -12.907 -23.146  0.00  0.00    +0.123 C 
ATOM      3  C   UNL     1      32.886 -13.435 -24.558  0.00  0.00    +0.140 C 
ATOM      4  C   UNL     1      33.415 -14.848 -24.479  0.00  0.00    +0.083 C 
ATOM      5  C   UNL     1      34.551 -14.719 -23.477  0.00  0.00    +0.201 C 
ENDROOT
BRANCH   5   8
ATOM      6  O   UNL     1      34.823 -14.762 -20.643  0.00  0.00    -0.252 OA
ATOM      7  O   UNL     1      35.227 -19.343 -20.585  0.00  0.00    -0.270 OA
ATOM      8  N   UNL     1      34.729 -15.898 -22.681  0.00  0.00    -0.219 N 
ATOM      9  N   UNL     1      35.025 -17.047 -20.628  0.00  0.00    -0.236 N 
ATOM     10  C   UNL     1      34.776 -17.128 -23.322  0.00  0.00    +0.071 C 
ATOM     11  C   UNL     1      34.856 -15.819 -21.277  0.00  0.00    +0.315 C 
ATOM     12  C   UNL     1      34.937 -18.302 -22.698  0.00  0.00    +0.047 C 
ATOM     13  C   UNL     1      35.078 -18.302 -21.218  0.00  0.00    +0.250 C 
ATOM     14  C   UNL     1      34.985 -19.617 -23.408  0.00  0.00    +0.037 C 
ATOM     15  H   UNL     1      35.116 -17.018 -19.649  0.00  0.00    +0.159 HD
ENDBRANCH   5   8
BRANCH   3  16
ATOM     16  O   UNL     1      33.669 -12.681 -25.481  0.00  0.00    -0.382 OA
ATOM     17  H   UNL     1      33.637 -11.742 -25.240  0.00  0.00    +0.210 HD
ENDBRANCH   3  16
BRANCH   2  18
ATOM     18  C   UNL     1      31.917 -13.182 -22.226  0.00  0.00    -0.045 C 
BRANCH  18  19
ATOM     19  N   UNL     1      31.480 -11.962 -21.548  0.00  0.00    +0.389 N 
ATOM     20  C   UNL     1      32.100 -10.780 -22.164  0.00  0.00    -0.077 C 
ATOM     21  C   UNL     1      31.788 -12.034 -20.112  0.00  0.00    -0.077 C 
ATOM     22  C   UNL     1      31.616  -9.492 -21.498  0.00  0.00    -0.023 C 
ATOM     23  C   UNL     1      31.293 -10.786 -19.378  0.00  0.00    -0.023 C 
ATOM     24  C   UNL     1      31.869  -9.517 -19.995  0.00  0.00    -0.004 C 
ATOM     25  H   UNL     1      30.469 -11.876 -21.648  0.00  0.00    -0.080 HD
ENDBRANCH  18  19
ENDBRANCH   2  18
TORSDOF 4
ENDMDL
MODEL 4
REMARK VINA RESULT:      -8.6      2.661      7.265
REMARK  Name = 25147494
REMARK  4 active torsions:
REMARK  status: ('A' for Active; 'I' for Inactive)
REMARK    1  A    between atoms: C_2  and  C_18
REMARK    2  A    between atoms: C_3  and  O_16
REMARK    3  A    between atoms: C_5  and  N_8
REMARK    4  A    between atoms: C_18  and  N_19
REMARK                            x       y       z     vdW  Elec       q    Type
REMARK                         _______ _______ _______ _____ _____    ______ ____
ROOT
ATOM      1  O   UNL     1      34.663 -14.464 -21.944  0.00  0.00    -0.339 OA
ATOM      2  C   UNL     1      34.397 -15.611 -21.114  0.00  0.00    +0.123 C 
ATOM      3  C   UNL     1      32.931 -15.516 -20.714  0.00  0.00    +0.140 C 
ATOM      4  C   UNL     1      32.305 -14.785 -21.879  0.00  0.00    +0.083 C 
ATOM      5  C   UNL     1      33.421 -13.852 -22.321  0.00  0.00    +0.201 C 
ENDROOT
BRANCH   5   8
ATOM      6  O   UNL     1      34.009 -11.359 -23.563  0.00  0.00    -0.252 OA
ATOM      7  O   UNL     1      33.364 -13.112 -27.766  0.00  0.00    -0.270 OA
ATOM      8  N   UNL     1      33.420 -13.612 -23.733  0.00  0.00    -0.219 N 
ATOM      9  N   UNL     1      33.683 -12.246 -25.654  0.00  0.00    -0.236 N 
ATOM     10  C   UNL     1      33.108 -14.665 -24.584  0.00  0.00    +0.071 C 
ATOM     11  C   UNL     1      33.724 -12.337 -24.257  0.00  0.00    +0.315 C 
ATOM     12  C   UNL     1      33.070 -14.574 -25.920  0.00  0.00    +0.047 C 
ATOM     13  C   UNL     1      33.380 -13.263 -26.548  0.00  0.00    +0.250 C 
ATOM     14  C   UNL     1      32.732 -15.721 -26.817  0.00  0.00    +0.037 C 
ATOM     15  H   UNL     1      33.891 -11.367 -26.043  0.00  0.00    +0.159 HD
ENDBRANCH   5   8
BRANCH   3  16
ATOM     16  O   UNL     1      32.801 -14.733 -19.530  0.00  0.00    -0.382 OA
ATOM     17  H   UNL     1      32.837 -15.313 -18.753  0.00  0.00    +0.210 HD
ENDBRANCH   3  16
BRANCH   2  18
ATOM     18  C   UNL     1      34.710 -16.860 -21.926  0.00  0.00    -0.045 C 
BRANCH  18  19
ATOM     19  N   UNL     1      34.958 -18.009 -21.055  0.00  0.00    +0.389 N 
ATOM     20  C   UNL     1      36.294 -18.567 -21.308  0.00  0.00    -0.077 C 
ATOM     21  C   UNL     1      33.914 -19.028 -21.238  0.00  0.00    -0.077 C 
ATOM     22  C   UNL     1      36.589 -19.739 -20.371  0.00  0.00    -0.023 C 
ATOM     23  C   UNL     1      34.132 -20.215 -20.298  0.00  0.00    -0.023 C 
ATOM     24  C   UNL     1      35.519 -20.819 -20.480  0.00  0.00    -0.004 C 
ATOM     25  H   UNL     1      34.926 -17.696 -20.085  0.00  0.00    -0.080 HD
ENDBRANCH  18  19
ENDBRANCH   2  18
TORSDOF 4
ENDMDL
MODEL 5
REMARK VINA RESULT:      -8.4      3.859      8.069
REMARK  Name = 25147494
REMARK  4 active torsions:
REMARK  status: ('A' for Active; 'I' for Inactive)
REMARK    1  A    between atoms: C_2  and  C_18
REMARK    2  A    between atoms: C_3  and  O_16
REMARK    3  A    between atoms: C_5  and  N_8
REMARK    4  A    between atoms: C_18  and  N_19
REMARK                            x       y       z     vdW  Elec       q    Type
REMARK                         _______ _______ _______ _____ _____    ______ ____
ROOT
ATOM      1  O   UNL     1      32.051 -12.763 -23.052  0.00  0.00    -0.339 OA
ATOM      2  C   UNL     1      33.041 -13.710 -23.500  0.00  0.00    +0.123 C 
ATOM      3  C   UNL     1      33.891 -12.981 -24.531  0.00  0.00    +0.140 C 
ATOM      4  C   UNL     1      33.816 -11.540 -24.081  0.00  0.00    +0.083 C 
ATOM      5  C   UNL     1      32.414 -11.449 -23.501  0.00  0.00    +0.201 C 
ENDROOT
BRANCH   5   8
ATOM      6  O   UNL     1      33.037  -8.674 -23.625  0.00  0.00    -0.252 OA
ATOM      7  O   UNL     1      32.010  -8.074 -19.182  0.00  0.00    -0.270 OA
ATOM      8  N   UNL     1      32.324 -10.531 -22.404  0.00  0.00    -0.219 N 
ATOM      9  N   UNL     1      32.523  -8.389 -21.407  0.00  0.00    -0.236 N 
ATOM     10  C   UNL     1      31.901 -11.013 -21.171  0.00  0.00    +0.071 C 
ATOM     11  C   UNL     1      32.656  -9.169 -22.562  0.00  0.00    +0.315 C 
ATOM     12  C   UNL     1      31.775 -10.263 -20.068  0.00  0.00    +0.047 C 
ATOM     13  C   UNL     1      32.106  -8.816 -20.155  0.00  0.00    +0.250 C 
ATOM     14  C   UNL     1      31.318 -10.802 -18.751  0.00  0.00    +0.037 C 
ATOM     15  H   UNL     1      32.749  -7.435 -21.493  0.00  0.00    +0.159 HD
ENDBRANCH   5   8
BRANCH   3  16
ATOM     16  O   UNL     1      33.304 -13.111 -25.824  0.00  0.00    -0.382 OA
ATOM     17  H   UNL     1      32.662 -13.838 -25.815  0.00  0.00    +0.210 HD
ENDBRANCH   3  16
BRANCH   2  18
ATOM     18  C   UNL     1      33.840 -14.161 -22.285  0.00  0.00    -0.045 C 
BRANCH  18  19
ATOM     19  N   UNL     1      34.081 -15.603 -22.316  0.00  0.00    +0.389 N 
ATOM     20  C   UNL     1      34.734 -16.043 -21.075  0.00  0.00    -0.077 C 
ATOM     21  C   UNL     1      34.883 -15.964 -23.495  0.00  0.00    -0.077 C 
ATOM     22  C   UNL     1      34.949 -17.556 -21.071  0.00  0.00    -0.023 C 
ATOM     23  C   UNL     1      35.102 -17.476 -23.569  0.00  0.00    -0.023 C 
ATOM     24  C   UNL     1      35.743 -18.007 -22.292  0.00  0.00    -0.004 C 
ATOM     25  H   UNL     1      33.184 -16.083 -22.387  0.00  0.00    -0.080 HD
ENDBRANCH  18  19
ENDBRANCH   2  18
TORSDOF 4
ENDMDL
MODEL 6
REMARK VINA RESULT:      -8.3      2.204      3.239
REMARK  Name = 25147494
REMARK  4 active torsions:
REMARK  status: ('A' for Active; 'I' for Inactive)
REMARK    1  A    between atoms: C_2  and  C_18
REMARK    2  A    between atoms: C_3  and  O_16
REMARK    3  A    between atoms: C_5  and  N_8
REMARK    4  A    between atoms: C_18  and  N_19
REMARK                            x       y       z     vdW  Elec       q    Type
REMARK                         _______ _______ _______ _____ _____    ______ ____
ROOT
ATOM      1  O   UNL     1      35.492 -18.423 -20.565  0.00  0.00    -0.339 OA
ATOM      2  C   UNL     1      35.060 -17.451 -21.537  0.00  0.00    +0.123 C 
ATOM      3  C   UNL     1      34.963 -18.190 -22.865  0.00  0.00    +0.140 C 
ATOM      4  C   UNL     1      34.633 -19.604 -22.446  0.00  0.00    +0.083 C 
ATOM      5  C   UNL     1      35.376 -19.738 -21.126  0.00  0.00    +0.201 C 
ENDROOT
BRANCH   5   8
ATOM      6  O   UNL     1      32.575 -20.247 -21.086  0.00  0.00    -0.252 OA
ATOM      7  O   UNL     1      32.968 -23.058 -17.467  0.00  0.00    -0.270 OA
ATOM      8  N   UNL     1      34.704 -20.595 -20.194  0.00  0.00    -0.219 N 
ATOM      9  N   UNL     1      32.785 -21.646 -19.280  0.00  0.00    -0.236 N 
ATOM     10  C   UNL     1      35.460 -21.238 -19.223  0.00  0.00    +0.071 C 
ATOM     11  C   UNL     1      33.307 -20.784 -20.252  0.00  0.00    +0.315 C 
ATOM     12  C   UNL     1      34.957 -22.062 -18.293  0.00  0.00    +0.047 C 
ATOM     13  C   UNL     1      33.492 -22.313 -18.291  0.00  0.00    +0.250 C 
ATOM     14  C   UNL     1      35.790 -22.744 -17.256  0.00  0.00    +0.037 C 
ATOM     15  H   UNL     1      31.812 -21.794 -19.300  0.00  0.00    +0.159 HD
ENDBRANCH   5   8
BRANCH   3  16
ATOM     16  O   UNL     1      36.226 -18.168 -23.526  0.00  0.00    -0.382 OA
ATOM     17  H   UNL     1      36.841 -17.604 -23.030  0.00  0.00    +0.210 HD
ENDBRANCH   3  16
BRANCH   2  18
ATOM     18  C   UNL     1      33.724 -16.887 -21.074  0.00  0.00    -0.045 C 
BRANCH  18  19
ATOM     19  N   UNL     1      33.643 -15.448 -21.322  0.00  0.00    +0.389 N 
ATOM     20  C   UNL     1      32.493 -14.867 -20.614  0.00  0.00    -0.077 C 
ATOM     21  C   UNL     1      33.569 -15.178 -22.766  0.00  0.00    -0.077 C 
ATOM     22  C   UNL     1      32.422 -13.355 -20.823  0.00  0.00    -0.023 C 
ATOM     23  C   UNL     1      33.533 -13.674 -23.044  0.00  0.00    -0.023 C 
ATOM     24  C   UNL     1      32.383 -13.001 -22.305  0.00  0.00    -0.004 C 
ATOM     25  H   UNL     1      34.489 -15.006 -20.963  0.00  0.00    -0.080 HD
ENDBRANCH  18  19
ENDBRANCH   2  18
TORSDOF 4
ENDMDL
MODEL 7
REMARK VINA RESULT:      -8.3      4.263      8.220
REMARK  Name = 25147494
REMARK  4 active torsions:
REMARK  status: ('A' for Active; 'I' for Inactive)
REMARK    1  A    between atoms: C_2  and  C_18
REMARK    2  A    between atoms: C_3  and  O_16
REMARK    3  A    between atoms: C_5  and  N_8
REMARK    4  A    between atoms: C_18  and  N_19
REMARK                            x       y       z     vdW  Elec       q    Type
REMARK                         _______ _______ _______ _____ _____    ______ ____
ROOT
ATOM      1  O   UNL     1      32.258 -12.091 -23.658  0.00  0.00    -0.339 OA
ATOM      2  C   UNL     1      33.259 -13.000 -24.156  0.00  0.00    +0.123 C 
ATOM      3  C   UNL     1      34.212 -12.164 -24.998  0.00  0.00    +0.140 C 
ATOM      4  C   UNL     1      34.135 -10.800 -24.351  0.00  0.00    +0.083 C 
ATOM      5  C   UNL     1      32.691 -10.741 -23.880  0.00  0.00    +0.201 C 
ENDROOT
BRANCH   5   8
ATOM      6  O   UNL     1      33.374  -7.996 -23.554  0.00  0.00    -0.252 OA
ATOM      7  O   UNL     1      32.004  -8.004 -19.164  0.00  0.00    -0.270 OA
ATOM      8  N   UNL     1      32.530  -9.986 -22.672  0.00  0.00    -0.219 N 
ATOM      9  N   UNL     1      32.688  -8.014 -21.365  0.00  0.00    -0.236 N 
ATOM     10  C   UNL     1      32.001 -10.625 -21.558  0.00  0.00    +0.071 C 
ATOM     11  C   UNL     1      32.899  -8.626 -22.606  0.00  0.00    +0.315 C 
ATOM     12  C   UNL     1      31.800 -10.036 -20.371  0.00  0.00    +0.047 C 
ATOM     13  C   UNL     1      32.164  -8.603 -20.224  0.00  0.00    +0.250 C 
ATOM     14  C   UNL     1      31.229 -10.743 -19.184  0.00  0.00    +0.037 C 
ATOM     15  H   UNL     1      32.938  -7.065 -21.295  0.00  0.00    +0.159 HD
ENDBRANCH   5   8
BRANCH   3  16
ATOM     16  O   UNL     1      33.734 -12.086 -26.339  0.00  0.00    -0.382 OA
ATOM     17  H   UNL     1      33.067 -11.385 -26.404  0.00  0.00    +0.210 HD
ENDBRANCH   3  16
BRANCH   2  18
ATOM     18  C   UNL     1      33.940 -13.649 -22.958  0.00  0.00    -0.045 C 
BRANCH  18  19
ATOM     19  N   UNL     1      34.593 -14.902 -23.336  0.00  0.00    +0.389 N 
ATOM     20  C   UNL     1      33.885 -15.532 -24.460  0.00  0.00    -0.077 C 
ATOM     21  C   UNL     1      34.670 -15.810 -22.182  0.00  0.00    -0.077 C 
ATOM     22  C   UNL     1      34.582 -16.819 -24.900  0.00  0.00    -0.023 C 
ATOM     23  C   UNL     1      35.394 -17.106 -22.549  0.00  0.00    -0.023 C 
ATOM     24  C   UNL     1      34.733 -17.794 -23.737  0.00  0.00    -0.004 C 
ATOM     25  H   UNL     1      35.544 -14.697 -23.639  0.00  0.00    -0.080 HD
ENDBRANCH  18  19
ENDBRANCH   2  18
TORSDOF 4
ENDMDL
MODEL 8
REMARK VINA RESULT:      -8.2      6.565      9.965
REMARK  Name = 25147494
REMARK  4 active torsions:
REMARK  status: ('A' for Active; 'I' for Inactive)
REMARK    1  A    between atoms: C_2  and  C_18
REMARK    2  A    between atoms: C_3  and  O_16
REMARK    3  A    between atoms: C_5  and  N_8
REMARK    4  A    between atoms: C_18  and  N_19
REMARK                            x       y       z     vdW  Elec       q    Type
REMARK                         _______ _______ _______ _____ _____    ______ ____
ROOT
ATOM      1  O   UNL     1      34.781 -24.762 -16.369  0.00  0.00    -0.339 OA
ATOM      2  C   UNL     1      34.101 -23.525 -16.657  0.00  0.00    +0.123 C 
ATOM      3  C   UNL     1      33.406 -23.110 -15.367  0.00  0.00    +0.140 C 
ATOM      4  C   UNL     1      34.296 -23.696 -14.295  0.00  0.00    +0.083 C 
ATOM      5  C   UNL     1      34.803 -24.972 -14.949  0.00  0.00    +0.201 C 
ENDROOT
BRANCH   5   8
ATOM      6  O   UNL     1      36.325 -27.147 -15.978  0.00  0.00    -0.252 OA
ATOM      7  O   UNL     1      39.898 -26.148 -13.259  0.00  0.00    -0.270 OA
ATOM      8  N   UNL     1      36.133 -25.317 -14.541  0.00  0.00    -0.219 N 
ATOM      9  N   UNL     1      38.100 -26.639 -14.616  0.00  0.00    -0.236 N 
ATOM     10  C   UNL     1      36.747 -24.542 -13.565  0.00  0.00    +0.071 C 
ATOM     11  C   UNL     1      36.809 -26.417 -15.109  0.00  0.00    +0.315 C 
ATOM     12  C   UNL     1      37.983 -24.757 -13.095  0.00  0.00    +0.047 C 
ATOM     13  C   UNL     1      38.760 -25.898 -13.646  0.00  0.00    +0.250 C 
ATOM     14  C   UNL     1      38.626 -23.910 -12.044  0.00  0.00    +0.037 C 
ATOM     15  H   UNL     1      38.592 -27.400 -14.997  0.00  0.00    +0.159 HD
ENDBRANCH   5   8
BRANCH   3  16
ATOM     16  O   UNL     1      32.114 -23.708 -15.297  0.00  0.00    -0.382 OA
ATOM     17  H   UNL     1      32.123 -24.553 -15.774  0.00  0.00    +0.210 HD
ENDBRANCH   3  16
BRANCH   2  18
ATOM     18  C   UNL     1      35.142 -22.515 -17.120  0.00  0.00    -0.045 C 
BRANCH  18  19
ATOM     19  N   UNL     1      34.934 -22.147 -18.521  0.00  0.00    +0.389 N 
ATOM     20  C   UNL     1      35.978 -21.213 -18.967  0.00  0.00    -0.077 C 
ATOM     21  C   UNL     1      33.593 -21.574 -18.708  0.00  0.00    -0.077 C 
ATOM     22  C   UNL     1      35.804 -20.856 -20.443  0.00  0.00    -0.023 C 
ATOM     23  C   UNL     1      33.342 -21.229 -20.177  0.00  0.00    -0.023 C 
ATOM     24  C   UNL     1      34.415 -20.291 -20.718  0.00  0.00    -0.004 C 
ATOM     25  H   UNL     1      34.999 -22.988 -19.093  0.00  0.00    -0.080 HD
ENDBRANCH  18  19
ENDBRANCH   2  18
TORSDOF 4
ENDMDL
MODEL 9
REMARK VINA RESULT:      -8.2      5.028      9.708
REMARK  Name = 25147494
REMARK  4 active torsions:
REMARK  status: ('A' for Active; 'I' for Inactive)
REMARK    1  A    between atoms: C_2  and  C_18
REMARK    2  A    between atoms: C_3  and  O_16
REMARK    3  A    between atoms: C_5  and  N_8
REMARK    4  A    between atoms: C_18  and  N_19
REMARK                            x       y       z     vdW  Elec       q    Type
REMARK                         _______ _______ _______ _____ _____    ______ ____
ROOT
ATOM      1  O   UNL     1      34.247 -23.778 -17.320  0.00  0.00    -0.339 OA
ATOM      2  C   UNL     1      34.383 -23.854 -15.888  0.00  0.00    +0.123 C 
ATOM      3  C   UNL     1      35.761 -23.295 -15.560  0.00  0.00    +0.140 C 
ATOM      4  C   UNL     1      36.001 -22.303 -16.675  0.00  0.00    +0.083 C 
ATOM      5  C   UNL     1      35.293 -22.953 -17.853  0.00  0.00    +0.201 C 
ENDROOT
BRANCH   5   8
ATOM      6  O   UNL     1      32.514 -22.633 -18.385  0.00  0.00    -0.252 OA
ATOM      7  O   UNL     1      33.308 -19.227 -21.372  0.00  0.00    -0.270 OA
ATOM      8  N   UNL     1      34.729 -21.997 -18.760  0.00  0.00    -0.219 N 
ATOM      9  N   UNL     1      32.924 -20.936 -19.873  0.00  0.00    -0.236 N 
ATOM     10  C   UNL     1      35.589 -21.149 -19.446  0.00  0.00    +0.071 C 
ATOM     11  C   UNL     1      33.335 -21.914 -18.959  0.00  0.00    +0.315 C 
ATOM     12  C   UNL     1      35.193 -20.215 -20.321  0.00  0.00    +0.047 C 
ATOM     13  C   UNL     1      33.737 -20.065 -20.583  0.00  0.00    +0.250 C 
ATOM     14  C   UNL     1      36.136 -19.312 -21.049  0.00  0.00    +0.037 C 
ATOM     15  H   UNL     1      31.956 -20.859 -20.029  0.00  0.00    +0.159 HD
ENDBRANCH   5   8
BRANCH   3  16
ATOM     16  O   UNL     1      36.734 -24.335 -15.625  0.00  0.00    -0.382 OA
ATOM     17  H   UNL     1      37.473 -24.051 -16.187  0.00  0.00    +0.210 HD
ENDBRANCH   3  16
BRANCH   2  18
ATOM     18  C   UNL     1      33.252 -23.045 -15.266  0.00  0.00    -0.045 C 
BRANCH  18  19
ATOM     19  N   UNL     1      31.959 -23.697 -15.474  0.00  0.00    +0.389 N 
ATOM     20  C   UNL     1      30.882 -22.698 -15.527  0.00  0.00    -0.077 C 
ATOM     21  C   UNL     1      31.710 -24.691 -14.420  0.00  0.00    -0.077 C 
ATOM     22  C   UNL     1      29.530 -23.359 -15.793  0.00  0.00    -0.023 C 
ATOM     23  C   UNL     1      30.383 -25.417 -14.650  0.00  0.00    -0.023 C 
ATOM     24  C   UNL     1      29.224 -24.433 -14.755  0.00  0.00    -0.004 C 
ATOM     25  H   UNL     1      31.980 -24.186 -16.368  0.00  0.00    -0.080 HD
ENDBRANCH  18  19
ENDBRANCH   2  18
TORSDOF 4
ENDMDL
