MODEL 1
REMARK VINA RESULT:      -9.4      0.000      0.000
REMARK  Name = 12317881
REMARK  2 active torsions:
REMARK  status: ('A' for Active; 'I' for Inactive)
REMARK    1  A    between atoms: C_8  and  C_17
REMARK    2  A    between atoms: C_13  and  N_25
REMARK                            x       y       z     vdW  Elec       q    Type
REMARK                         _______ _______ _______ _____ _____    ______ ____
ROOT
ATOM      1  N   UNL     1      35.121 -22.422 -17.932  0.00  0.00    -0.279 N 
ATOM      2  N   UNL     1      37.165 -22.605 -15.673  0.00  0.00    -0.262 NA
ATOM      3  N   UNL     1      36.830 -21.466 -18.941  0.00  0.00    -0.131 NA
ATOM      4  N   UNL     1      35.936 -21.871 -19.903  0.00  0.00    -0.133 NA
ATOM      5  C   UNL     1      34.270 -22.898 -16.910  0.00  0.00    +0.068 C 
ATOM      6  C   UNL     1      34.763 -23.252 -15.639  0.00  0.00    +0.035 C 
ATOM      7  C   UNL     1      36.323 -21.773 -17.767  0.00  0.00    +0.172 A 
ATOM      8  C   UNL     1      36.223 -23.413 -15.324  0.00  0.00    +0.079 C 
ATOM      9  C   UNL     1      36.858 -21.411 -16.436  0.00  0.00    +0.191 C 
ATOM     10  C   UNL     1      34.911 -22.414 -19.287  0.00  0.00    +0.147 A 
ATOM     11  C   UNL     1      32.892 -22.980 -17.170  0.00  0.00    +0.019 C 
ATOM     12  C   UNL     1      33.850 -23.596 -14.626  0.00  0.00    +0.027 C 
ATOM     13  C   UNL     1      32.481 -23.640 -14.885  0.00  0.00    +0.143 C 
ATOM     14  C   UNL     1      32.005 -23.349 -16.159  0.00  0.00    +0.026 C 
ATOM     15  C   UNL     1      33.802 -23.073 -20.008  0.00  0.00    +0.074 C 
ENDROOT
BRANCH   8  17
ATOM     16 CL   UNL     1      36.846 -23.094 -12.315  0.00  0.00    -0.082 Cl
ATOM     17  C   UNL     1      36.648 -24.626 -14.564  0.00  0.00    +0.028 C 
ATOM     18  C   UNL     1      36.945 -24.569 -13.207  0.00  0.00    +0.059 C 
ATOM     19  C   UNL     1      36.735 -25.827 -15.260  0.00  0.00    +0.002 C 
ATOM     20  C   UNL     1      37.336 -25.729 -12.537  0.00  0.00    +0.011 C 
ATOM     21  C   UNL     1      37.127 -26.986 -14.589  0.00  0.00    +0.000 C 
ATOM     22  C   UNL     1      37.427 -26.937 -13.228  0.00  0.00    +0.001 C 
ENDBRANCH   8  17
BRANCH  13  25
ATOM     23  O   UNL     1      31.847 -24.987 -13.128  0.00  0.00    -0.126 OA
ATOM     24  O   UNL     1      30.529 -23.324 -13.706  0.00  0.00    -0.126 OA
ATOM     25  N   UNL     1      31.574 -24.002 -13.855  0.00  0.00    +0.058 N 
ENDBRANCH  13  25
TORSDOF 2
ENDMDL
MODEL 2
REMARK VINA RESULT:      -9.1     11.232     14.130
REMARK  Name = 12317881
REMARK  2 active torsions:
REMARK  status: ('A' for Active; 'I' for Inactive)
REMARK    1  A    between atoms: C_8  and  C_17
REMARK    2  A    between atoms: C_13  and  N_25
REMARK                            x       y       z     vdW  Elec       q    Type
REMARK                         _______ _______ _______ _____ _____    ______ ____
ROOT
ATOM      1  N   UNL     1      33.871 -15.695 -24.018  0.00  0.00    -0.279 N 
ATOM      2  N   UNL     1      33.421 -13.488 -26.078  0.00  0.00    -0.262 NA
ATOM      3  N   UNL     1      34.371 -16.825 -25.842  0.00  0.00    -0.131 NA
ATOM      4  N   UNL     1      34.907 -17.489 -24.766  0.00  0.00    -0.133 NA
ATOM      5  C   UNL     1      33.319 -14.713 -23.165  0.00  0.00    +0.068 C 
ATOM      6  C   UNL     1      33.014 -13.417 -23.624  0.00  0.00    +0.035 C 
ATOM      7  C   UNL     1      33.730 -15.770 -25.385  0.00  0.00    +0.172 A 
ATOM      8  C   UNL     1      33.470 -12.871 -24.946  0.00  0.00    +0.079 C 
ATOM      9  C   UNL     1      32.883 -14.833 -26.153  0.00  0.00    +0.191 C 
ATOM     10  C   UNL     1      34.578 -16.821 -23.684  0.00  0.00    +0.147 A 
ATOM     11  C   UNL     1      33.038 -15.065 -21.834  0.00  0.00    +0.019 C 
ATOM     12  C   UNL     1      32.350 -12.528 -22.761  0.00  0.00    +0.027 C 
ATOM     13  C   UNL     1      32.043 -12.899 -21.452  0.00  0.00    +0.143 C 
ATOM     14  C   UNL     1      32.402 -14.159 -20.985  0.00  0.00    +0.026 C 
ATOM     15  C   UNL     1      35.084 -17.175 -22.341  0.00  0.00    +0.074 C 
ENDROOT
BRANCH   8  17
ATOM     16 CL   UNL     1      35.204 -12.092 -27.383  0.00  0.00    -0.082 Cl
ATOM     17  C   UNL     1      34.066 -11.502 -24.973  0.00  0.00    +0.028 C 
ATOM     18  C   UNL     1      34.857 -11.072 -26.032  0.00  0.00    +0.059 C 
ATOM     19  C   UNL     1      33.802 -10.661 -23.898  0.00  0.00    +0.002 C 
ATOM     20  C   UNL     1      35.391  -9.783 -26.017  0.00  0.00    +0.011 C 
ATOM     21  C   UNL     1      34.337  -9.372 -23.882  0.00  0.00    +0.000 C 
ATOM     22  C   UNL     1      35.130  -8.934 -24.941  0.00  0.00    +0.001 C 
ENDBRANCH   8  17
BRANCH  13  25
ATOM     23  O   UNL     1      31.838 -11.810 -19.434  0.00  0.00    -0.126 OA
ATOM     24  O   UNL     1      30.369 -11.381 -21.013  0.00  0.00    -0.126 OA
ATOM     25  N   UNL     1      31.384 -11.984 -20.590  0.00  0.00    +0.058 N 
ENDBRANCH  13  25
TORSDOF 2
ENDMDL
MODEL 3
REMARK VINA RESULT:      -8.2      2.646      3.445
REMARK  Name = 12317881
REMARK  2 active torsions:
REMARK  status: ('A' for Active; 'I' for Inactive)
REMARK    1  A    between atoms: C_8  and  C_17
REMARK    2  A    between atoms: C_13  and  N_25
REMARK                            x       y       z     vdW  Elec       q    Type
REMARK                         _______ _______ _______ _____ _____    ______ ____
ROOT
ATOM      1  N   UNL     1      34.947 -23.071 -16.090  0.00  0.00    -0.279 N 
ATOM      2  N   UNL     1      37.993 -22.880 -16.071  0.00  0.00    -0.262 NA
ATOM      3  N   UNL     1      35.244 -22.181 -18.083  0.00  0.00    -0.131 NA
ATOM      4  N   UNL     1      33.991 -22.742 -18.047  0.00  0.00    -0.133 NA
ATOM      5  C   UNL     1      35.178 -23.447 -14.748  0.00  0.00    +0.068 C 
ATOM      6  C   UNL     1      36.480 -23.616 -14.238  0.00  0.00    +0.035 C 
ATOM      7  C   UNL     1      35.798 -22.357 -16.902  0.00  0.00    +0.172 A 
ATOM      8  C   UNL     1      37.712 -23.675 -15.095  0.00  0.00    +0.079 C 
ATOM      9  C   UNL     1      37.084 -21.807 -16.423  0.00  0.00    +0.191 C 
ATOM     10  C   UNL     1      33.816 -23.244 -16.846  0.00  0.00    +0.147 A 
ATOM     11  C   UNL     1      34.071 -23.619 -13.900  0.00  0.00    +0.019 C 
ATOM     12  C   UNL     1      36.646 -23.866 -12.864  0.00  0.00    +0.027 C 
ATOM     13  C   UNL     1      35.541 -23.999 -12.025  0.00  0.00    +0.143 C 
ATOM     14  C   UNL     1      34.256 -23.893 -12.545  0.00  0.00    +0.026 C 
ATOM     15  C   UNL     1      32.624 -24.035 -16.475  0.00  0.00    +0.074 C 
ENDROOT
BRANCH   8  17
ATOM     16 CL   UNL     1      36.729 -26.599 -15.272  0.00  0.00    -0.082 Cl
ATOM     17  C   UNL     1      38.700 -24.763 -14.831  0.00  0.00    +0.028 C 
ATOM     18  C   UNL     1      38.340 -26.105 -14.892  0.00  0.00    +0.059 C 
ATOM     19  C   UNL     1      40.004 -24.392 -14.523  0.00  0.00    +0.002 C 
ATOM     20  C   UNL     1      39.297 -27.088 -14.641  0.00  0.00    +0.011 C 
ATOM     21  C   UNL     1      40.961 -25.375 -14.271  0.00  0.00    +0.000 C 
ATOM     22  C   UNL     1      40.607 -26.723 -14.330  0.00  0.00    +0.001 C 
ENDBRANCH   8  17
BRANCH  13  25
ATOM     23  O   UNL     1      36.530 -23.553  -9.994  0.00  0.00    -0.126 OA
ATOM     24  O   UNL     1      35.078 -25.201 -10.116  0.00  0.00    -0.126 OA
ATOM     25  N   UNL     1      35.726 -24.264 -10.642  0.00  0.00    +0.058 N 
ENDBRANCH  13  25
TORSDOF 2
ENDMDL
MODEL 4
REMARK VINA RESULT:      -8.1      3.284      6.207
REMARK  Name = 12317881
REMARK  2 active torsions:
REMARK  status: ('A' for Active; 'I' for Inactive)
REMARK    1  A    between atoms: C_8  and  C_17
REMARK    2  A    between atoms: C_13  and  N_25
REMARK                            x       y       z     vdW  Elec       q    Type
REMARK                         _______ _______ _______ _____ _____    ______ ____
ROOT
ATOM      1  N   UNL     1      36.904 -24.885 -13.474  0.00  0.00    -0.279 N 
ATOM      2  N   UNL     1      34.217 -23.579 -12.847  0.00  0.00    -0.262 NA
ATOM      3  N   UNL     1      36.491 -25.864 -11.545  0.00  0.00    -0.131 NA
ATOM      4  N   UNL     1      37.435 -26.609 -12.210  0.00  0.00    -0.133 NA
ATOM      5  C   UNL     1      36.869 -23.945 -14.528  0.00  0.00    +0.068 C 
ATOM      6  C   UNL     1      35.748 -23.124 -14.755  0.00  0.00    +0.035 C 
ATOM      7  C   UNL     1      36.199 -24.823 -12.293  0.00  0.00    +0.172 A 
ATOM      8  C   UNL     1      34.414 -23.332 -14.097  0.00  0.00    +0.079 C 
ATOM      9  C   UNL     1      35.341 -23.673 -11.935  0.00  0.00    +0.191 C 
ATOM     10  C   UNL     1      37.692 -25.999 -13.345  0.00  0.00    +0.147 A 
ATOM     11  C   UNL     1      38.006 -23.810 -15.342  0.00  0.00    +0.019 C 
ATOM     12  C   UNL     1      35.825 -22.121 -15.738  0.00  0.00    +0.027 C 
ATOM     13  C   UNL     1      36.972 -21.973 -16.517  0.00  0.00    +0.143 C 
ATOM     14  C   UNL     1      38.054 -22.827 -16.330  0.00  0.00    +0.026 C 
ATOM     15  C   UNL     1      38.575 -26.575 -14.381  0.00  0.00    +0.074 C 
ENDROOT
BRANCH   8  17
ATOM     16 CL   UNL     1      31.670 -23.071 -12.699  0.00  0.00    -0.082 Cl
ATOM     17  C   UNL     1      33.192 -23.282 -14.955  0.00  0.00    +0.028 C 
ATOM     18  C   UNL     1      31.920 -23.164 -14.406  0.00  0.00    +0.059 C 
ATOM     19  C   UNL     1      33.366 -23.355 -16.333  0.00  0.00    +0.002 C 
ATOM     20  C   UNL     1      30.807 -23.119 -15.246  0.00  0.00    +0.011 C 
ATOM     21  C   UNL     1      32.253 -23.311 -17.172  0.00  0.00    +0.000 C 
ATOM     22  C   UNL     1      30.974 -23.192 -16.629  0.00  0.00    +0.001 C 
ENDBRANCH   8  17
BRANCH  13  25
ATOM     23  O   UNL     1      37.707 -19.933 -17.292  0.00  0.00    -0.126 OA
ATOM     24  O   UNL     1      36.398 -21.138 -18.584  0.00  0.00    -0.126 OA
ATOM     25  N   UNL     1      37.029 -20.964 -17.514  0.00  0.00    +0.058 N 
ENDBRANCH  13  25
TORSDOF 2
ENDMDL
MODEL 5
REMARK VINA RESULT:      -8.0     11.706     14.043
REMARK  Name = 12317881
REMARK  2 active torsions:
REMARK  status: ('A' for Active; 'I' for Inactive)
REMARK    1  A    between atoms: C_8  and  C_17
REMARK    2  A    between atoms: C_13  and  N_25
REMARK                            x       y       z     vdW  Elec       q    Type
REMARK                         _______ _______ _______ _____ _____    ______ ____
ROOT
ATOM      1  N   UNL     1      32.939 -10.304 -22.954  0.00  0.00    -0.279 N 
ATOM      2  N   UNL     1      31.925 -12.755 -21.443  0.00  0.00    -0.262 NA
ATOM      3  N   UNL     1      32.077  -9.290 -21.199  0.00  0.00    -0.131 NA
ATOM      4  N   UNL     1      32.957  -8.425 -21.804  0.00  0.00    -0.133 NA
ATOM      5  C   UNL     1      33.187 -11.284 -23.941  0.00  0.00    +0.068 C 
ATOM      6  C   UNL     1      32.976 -12.655 -23.696  0.00  0.00    +0.035 C 
ATOM      7  C   UNL     1      32.051 -10.399 -21.906  0.00  0.00    +0.172 A 
ATOM      8  C   UNL     1      32.730 -13.231 -22.332  0.00  0.00    +0.079 C 
ATOM      9  C   UNL     1      31.154 -11.559 -21.723  0.00  0.00    +0.191 C 
ATOM     10  C   UNL     1      33.441  -9.031 -22.864  0.00  0.00    +0.147 A 
ATOM     11  C   UNL     1      33.622 -10.862 -25.209  0.00  0.00    +0.019 C 
ATOM     12  C   UNL     1      33.119 -13.565 -24.758  0.00  0.00    +0.027 C 
ATOM     13  C   UNL     1      33.517 -13.132 -26.022  0.00  0.00    +0.143 C 
ATOM     14  C   UNL     1      33.783 -11.785 -26.242  0.00  0.00    +0.026 C 
ATOM     15  C   UNL     1      34.513  -8.449 -23.699  0.00  0.00    +0.074 C 
ENDROOT
BRANCH   8  17
ATOM     16 CL   UNL     1      32.183 -14.443 -19.543  0.00  0.00    -0.082 Cl
ATOM     17  C   UNL     1      33.497 -14.449 -21.935  0.00  0.00    +0.028 C 
ATOM     18  C   UNL     1      33.310 -15.058 -20.699  0.00  0.00    +0.059 C 
ATOM     19  C   UNL     1      34.410 -14.964 -22.848  0.00  0.00    +0.002 C 
ATOM     20  C   UNL     1      34.046 -16.197 -20.371  0.00  0.00    +0.011 C 
ATOM     21  C   UNL     1      35.147 -16.102 -22.520  0.00  0.00    +0.000 C 
ATOM     22  C   UNL     1      34.965 -16.718 -21.282  0.00  0.00    +0.001 C 
ENDBRANCH   8  17
BRANCH  13  25
ATOM     23  O   UNL     1      33.291 -15.249 -26.899  0.00  0.00    -0.126 OA
ATOM     24  O   UNL     1      34.177 -13.678 -28.158  0.00  0.00    -0.126 OA
ATOM     25  N   UNL     1      33.669 -14.067 -27.079  0.00  0.00    +0.058 N 
ENDBRANCH  13  25
TORSDOF 2
ENDMDL
MODEL 6
REMARK VINA RESULT:      -7.8     15.380     17.971
REMARK  Name = 12317881
REMARK  2 active torsions:
REMARK  status: ('A' for Active; 'I' for Inactive)
REMARK    1  A    between atoms: C_8  and  C_17
REMARK    2  A    between atoms: C_13  and  N_25
REMARK                            x       y       z     vdW  Elec       q    Type
REMARK                         _______ _______ _______ _____ _____    ______ ____
ROOT
ATOM      1  N   UNL     1      32.083  -9.712 -21.139  0.00  0.00    -0.279 N 
ATOM      2  N   UNL     1      33.217  -6.917 -21.610  0.00  0.00    -0.262 NA
ATOM      3  N   UNL     1      31.565  -8.803 -19.200  0.00  0.00    -0.131 NA
ATOM      4  N   UNL     1      30.783  -9.919 -19.372  0.00  0.00    -0.133 NA
ATOM      5  C   UNL     1      32.730  -9.947 -22.373  0.00  0.00    +0.068 C 
ATOM      6  C   UNL     1      33.351  -8.909 -23.095  0.00  0.00    +0.035 C 
ATOM      7  C   UNL     1      32.358  -8.701 -20.246  0.00  0.00    +0.172 A 
ATOM      8  C   UNL     1      33.171  -7.451 -22.783  0.00  0.00    +0.079 C 
ATOM      9  C   UNL     1      33.465  -7.741 -20.442  0.00  0.00    +0.191 C 
ATOM     10  C   UNL     1      31.122 -10.467 -20.517  0.00  0.00    +0.147 A 
ATOM     11  C   UNL     1      32.780 -11.263 -22.862  0.00  0.00    +0.019 C 
ATOM     12  C   UNL     1      34.086  -9.229 -24.250  0.00  0.00    +0.027 C 
ATOM     13  C   UNL     1      34.158 -10.544 -24.708  0.00  0.00    +0.143 C 
ATOM     14  C   UNL     1      33.492 -11.556 -24.025  0.00  0.00    +0.026 C 
ATOM     15  C   UNL     1      30.405 -11.624 -21.094  0.00  0.00    +0.074 C 
ENDROOT
BRANCH   8  17
ATOM     16 CL   UNL     1      30.439  -6.009 -22.816  0.00  0.00    -0.082 Cl
ATOM     17  C   UNL     1      32.884  -6.521 -23.915  0.00  0.00    +0.028 C 
ATOM     18  C   UNL     1      31.680  -5.831 -24.004  0.00  0.00    +0.059 C 
ATOM     19  C   UNL     1      33.867  -6.360 -24.885  0.00  0.00    +0.002 C 
ATOM     20  C   UNL     1      31.456  -4.970 -25.079  0.00  0.00    +0.011 C 
ATOM     21  C   UNL     1      33.642  -5.499 -25.960  0.00  0.00    +0.000 C 
ATOM     22  C   UNL     1      32.437  -4.804 -26.056  0.00  0.00    +0.001 C 
ENDBRANCH   8  17
BRANCH  13  25
ATOM     23  O   UNL     1      35.927 -10.184 -26.137  0.00  0.00    -0.126 OA
ATOM     24  O   UNL     1      34.486 -11.771 -26.628  0.00  0.00    -0.126 OA
ATOM     25  N   UNL     1      34.894 -10.848 -25.884  0.00  0.00    +0.058 N 
ENDBRANCH  13  25
TORSDOF 2
ENDMDL
MODEL 7
REMARK VINA RESULT:      -7.6      2.267      5.252
REMARK  Name = 12317881
REMARK  2 active torsions:
REMARK  status: ('A' for Active; 'I' for Inactive)
REMARK    1  A    between atoms: C_8  and  C_17
REMARK    2  A    between atoms: C_13  and  N_25
REMARK                            x       y       z     vdW  Elec       q    Type
REMARK                         _______ _______ _______ _____ _____    ______ ____
ROOT
ATOM      1  N   UNL     1      35.271 -24.582 -13.110  0.00  0.00    -0.279 N 
ATOM      2  N   UNL     1      36.098 -25.007 -16.017  0.00  0.00    -0.262 NA
ATOM      3  N   UNL     1      37.112 -25.743 -12.773  0.00  0.00    -0.131 NA
ATOM      4  N   UNL     1      36.802 -25.086 -11.608  0.00  0.00    -0.133 NA
ATOM      5  C   UNL     1      34.122 -24.054 -13.740  0.00  0.00    +0.068 C 
ATOM      6  C   UNL     1      34.038 -23.923 -15.140  0.00  0.00    +0.035 C 
ATOM      7  C   UNL     1      36.179 -25.459 -13.656  0.00  0.00    +0.172 A 
ATOM      8  C   UNL     1      35.211 -24.072 -16.065  0.00  0.00    +0.079 C 
ATOM      9  C   UNL     1      36.014 -26.043 -15.005  0.00  0.00    +0.191 C 
ATOM     10  C   UNL     1      35.688 -24.421 -11.813  0.00  0.00    +0.147 A 
ATOM     11  C   UNL     1      33.028 -23.688 -12.939  0.00  0.00    +0.019 C 
ATOM     12  C   UNL     1      32.821 -23.511 -15.712  0.00  0.00    +0.027 C 
ATOM     13  C   UNL     1      31.729 -23.183 -14.910  0.00  0.00    +0.143 C 
ATOM     14  C   UNL     1      31.838 -23.256 -13.525  0.00  0.00    +0.026 C 
ATOM     15  C   UNL     1      35.112 -23.497 -10.814  0.00  0.00    +0.074 C 
ENDROOT
BRANCH   8  17
ATOM     16 CL   UNL     1      37.770 -22.344 -15.958  0.00  0.00    -0.082 Cl
ATOM     17  C   UNL     1      35.404 -23.040 -17.127  0.00  0.00    +0.028 C 
ATOM     18  C   UNL     1      36.528 -22.222 -17.152  0.00  0.00    +0.059 C 
ATOM     19  C   UNL     1      34.419 -22.922 -18.101  0.00  0.00    +0.002 C 
ATOM     20  C   UNL     1      36.669 -21.273 -18.165  0.00  0.00    +0.011 C 
ATOM     21  C   UNL     1      34.559 -21.972 -19.113  0.00  0.00    +0.000 C 
ATOM     22  C   UNL     1      35.684 -21.148 -19.145  0.00  0.00    +0.001 C 
ENDBRANCH   8  17
BRANCH  13  25
ATOM     23  O   UNL     1      29.538 -22.491 -14.760  0.00  0.00    -0.126 OA
ATOM     24  O   UNL     1      30.453 -22.659 -16.753  0.00  0.00    -0.126 OA
ATOM     25  N   UNL     1      30.513 -22.756 -15.504  0.00  0.00    +0.058 N 
ENDBRANCH  13  25
TORSDOF 2
ENDMDL
MODEL 8
REMARK VINA RESULT:      -7.5     11.379     14.191
REMARK  Name = 12317881
REMARK  2 active torsions:
REMARK  status: ('A' for Active; 'I' for Inactive)
REMARK    1  A    between atoms: C_8  and  C_17
REMARK    2  A    between atoms: C_13  and  N_25
REMARK                            x       y       z     vdW  Elec       q    Type
REMARK                         _______ _______ _______ _____ _____    ______ ____
ROOT
ATOM      1  N   UNL     1      33.780 -15.237 -23.913  0.00  0.00    -0.279 N 
ATOM      2  N   UNL     1      33.158 -12.895 -25.768  0.00  0.00    -0.262 NA
ATOM      3  N   UNL     1      34.220 -16.205 -25.842  0.00  0.00    -0.131 NA
ATOM      4  N   UNL     1      34.831 -16.932 -24.850  0.00  0.00    -0.133 NA
ATOM      5  C   UNL     1      33.244 -14.344 -22.959  0.00  0.00    +0.068 C 
ATOM      6  C   UNL     1      32.876 -13.027 -23.299  0.00  0.00    +0.035 C 
ATOM      7  C   UNL     1      33.572 -15.211 -25.273  0.00  0.00    +0.172 A 
ATOM      8  C   UNL     1      33.247 -12.365 -24.595  0.00  0.00    +0.079 C 
ATOM      9  C   UNL     1      32.658 -14.247 -25.922  0.00  0.00    +0.191 C 
ATOM     10  C   UNL     1      34.538 -16.361 -23.704  0.00  0.00    +0.147 A 
ATOM     11  C   UNL     1      33.042 -14.806 -21.648  0.00  0.00    +0.019 C 
ATOM     12  C   UNL     1      32.230 -12.231 -22.337  0.00  0.00    +0.027 C 
ATOM     13  C   UNL     1      32.003 -12.712 -21.048  0.00  0.00    +0.143 C 
ATOM     14  C   UNL     1      32.423 -13.991 -20.700  0.00  0.00    +0.026 C 
ATOM     15  C   UNL     1      35.122 -16.799 -22.419  0.00  0.00    +0.074 C 
ENDROOT
BRANCH   8  17
ATOM     16 CL   UNL     1      31.519 -10.167 -23.279  0.00  0.00    -0.082 Cl
ATOM     17  C   UNL     1      33.799 -10.979 -24.543  0.00  0.00    +0.028 C 
ATOM     18  C   UNL     1      33.087  -9.932 -23.967  0.00  0.00    +0.059 C 
ATOM     19  C   UNL     1      35.059 -10.763 -25.089  0.00  0.00    +0.002 C 
ATOM     20  C   UNL     1      33.643  -8.653 -23.937  0.00  0.00    +0.011 C 
ATOM     21  C   UNL     1      35.614  -9.484 -25.061  0.00  0.00    +0.000 C 
ATOM     22  C   UNL     1      34.906  -8.429 -24.485  0.00  0.00    +0.001 C 
ENDBRANCH   8  17
BRANCH  13  25
ATOM     23  O   UNL     1      31.830 -11.842 -18.923  0.00  0.00    -0.126 OA
ATOM     24  O   UNL     1      30.345 -11.239 -20.430  0.00  0.00    -0.126 OA
ATOM     25  N   UNL     1      31.361 -11.890 -20.085  0.00  0.00    +0.058 N 
ENDBRANCH  13  25
TORSDOF 2
ENDMDL
MODEL 9
REMARK VINA RESULT:      -6.6     12.528     14.853
REMARK  Name = 12317881
REMARK  2 active torsions:
REMARK  status: ('A' for Active; 'I' for Inactive)
REMARK    1  A    between atoms: C_8  and  C_17
REMARK    2  A    between atoms: C_13  and  N_25
REMARK                            x       y       z     vdW  Elec       q    Type
REMARK                         _______ _______ _______ _____ _____    ______ ____
ROOT
ATOM      1  N   UNL     1      32.266  -9.789 -21.333  0.00  0.00    -0.279 N 
ATOM      2  N   UNL     1      31.364 -12.700 -21.505  0.00  0.00    -0.262 NA
ATOM      3  N   UNL     1      30.787  -9.784 -19.700  0.00  0.00    -0.131 NA
ATOM      4  N   UNL     1      31.617  -8.703 -19.529  0.00  0.00    -0.133 NA
ATOM      5  C   UNL     1      32.953 -10.158 -22.511  0.00  0.00    +0.068 C 
ATOM      6  C   UNL     1      32.947 -11.482 -22.990  0.00  0.00    +0.035 C 
ATOM      7  C   UNL     1      31.163 -10.411 -20.794  0.00  0.00    +0.172 A 
ATOM      8  C   UNL     1      32.454 -12.656 -22.193  0.00  0.00    +0.079 C 
ATOM      9  C   UNL     1      30.486 -11.547 -21.455  0.00  0.00    +0.191 C 
ATOM     10  C   UNL     1      32.476  -8.702 -20.523  0.00  0.00    +0.147 A 
ATOM     11  C   UNL     1      33.626  -9.159 -23.234  0.00  0.00    +0.019 C 
ATOM     12  C   UNL     1      33.541 -11.759 -24.234  0.00  0.00    +0.027 C 
ATOM     13  C   UNL     1      34.176 -10.753 -24.961  0.00  0.00    +0.143 C 
ATOM     14  C   UNL     1      34.233  -9.459 -24.453  0.00  0.00    +0.026 C 
ATOM     15  C   UNL     1      33.603  -7.750 -20.605  0.00  0.00    +0.074 C 
ENDROOT
BRANCH   8  17
ATOM     16 CL   UNL     1      32.677 -14.340 -24.775  0.00  0.00    -0.082 Cl
ATOM     17  C   UNL     1      33.301 -13.886 -22.157  0.00  0.00    +0.028 C 
ATOM     18  C   UNL     1      33.456 -14.697 -23.275  0.00  0.00    +0.059 C 
ATOM     19  C   UNL     1      33.940 -14.196 -20.961  0.00  0.00    +0.002 C 
ATOM     20  C   UNL     1      34.259 -15.835 -23.196  0.00  0.00    +0.011 C 
ATOM     21  C   UNL     1      34.742 -15.334 -20.882  0.00  0.00    +0.000 C 
ATOM     22  C   UNL     1      34.902 -16.153 -22.000  0.00  0.00    +0.001 C 
ENDBRANCH   8  17
BRANCH  13  25
ATOM     23  O   UNL     1      35.769 -10.372 -26.579  0.00  0.00    -0.126 OA
ATOM     24  O   UNL     1      34.311 -11.987 -26.899  0.00  0.00    -0.126 OA
ATOM     25  N   UNL     1      34.783 -11.052 -26.209  0.00  0.00    +0.058 N 
ENDBRANCH  13  25
TORSDOF 2
ENDMDL
