MODEL 1
REMARK VINA RESULT:      -8.2      0.000      0.000
REMARK  Name = 36976
REMARK  7 active torsions:
REMARK  status: ('A' for Active; 'I' for Inactive)
REMARK    1  A    between atoms: C_1  and  C_16
REMARK    2  A    between atoms: C_4  and  N_8
REMARK    3  A    between atoms: C_6  and  O_14
REMARK    4  A    between atoms: C_16  and  O_17
REMARK    5  A    between atoms: C_16  and  C_19
REMARK    6  A    between atoms: C_19  and  N_20
REMARK    7  A    between atoms: N_20  and  C_23
REMARK                            x       y       z     vdW  Elec       q    Type
REMARK                         _______ _______ _______ _____ _____    ______ ____
ROOT
ATOM      1  C   UNL     1      34.828 -19.609 -21.141  0.00  0.00    +0.004 C 
ATOM      2  C   UNL     1      35.589 -20.364 -20.264  0.00  0.00    +0.016 C 
ATOM      3  C   UNL     1      33.452 -19.741 -21.205  0.00  0.00    +0.001 C 
ATOM      4  C   UNL     1      34.953 -21.279 -19.426  0.00  0.00    +0.085 C 
ATOM      5  C   UNL     1      32.815 -20.656 -20.365  0.00  0.00    +0.038 C 
ATOM      6  C   UNL     1      33.567 -21.425 -19.475  0.00  0.00    +0.147 C 
ENDROOT
BRANCH   4   8
ATOM      7  O   UNL     1      37.193 -20.473 -17.584  0.00  0.00    -0.253 OA
ATOM      8  N   UNL     1      35.718 -22.040 -18.539  0.00  0.00    -0.266 N 
ATOM      9  N   UNL     1      37.279 -22.668 -16.958  0.00  0.00    -0.313 N 
ATOM     10  C   UNL     1      36.757 -21.616 -17.697  0.00  0.00    +0.301 C 
ATOM     11  H   UNL     1      35.499 -23.000 -18.499  0.00  0.00    +0.156 HD
ATOM     12  H   UNL     1      38.017 -22.508 -16.326  0.00  0.00    +0.146 HD
ATOM     13  H   UNL     1      36.914 -23.576 -17.067  0.00  0.00    +0.146 HD
ENDBRANCH   4   8
BRANCH   6  14
ATOM     14  O   UNL     1      32.926 -22.313 -18.663  0.00  0.00    -0.504 OA
ATOM     15  H   UNL     1      32.785 -22.105 -17.761  0.00  0.00    +0.292 HD
ENDBRANCH   6  14
BRANCH   1  16
ATOM     16  C   UNL     1      35.517 -18.618 -22.052  0.00  0.00    +0.112 C 
BRANCH  16  17
ATOM     17  O   UNL     1      35.038 -18.825 -23.380  0.00  0.00    -0.382 OA
ATOM     18  H   UNL     1      34.411 -18.121 -23.613  0.00  0.00    +0.211 HD
ENDBRANCH  16  17
BRANCH  16  19
ATOM     19  C   UNL     1      35.254 -17.172 -21.612  0.00  0.00    -0.047 C 
BRANCH  19  20
ATOM     20  N   UNL     1      34.187 -16.578 -22.399  0.00  0.00    +0.388 N 
ATOM     21  H   UNL     1      34.576 -16.201 -23.262  0.00  0.00    -0.084 HD
ATOM     22  H   UNL     1      33.494 -17.298 -22.609  0.00  0.00    -0.084 HD
BRANCH  20  23
ATOM     23  C   UNL     1      33.535 -15.499 -21.650  0.00  0.00    -0.046 C 
ATOM     24  C   UNL     1      34.570 -14.850 -20.725  0.00  0.00    -0.022 C 
ATOM     25  C   UNL     1      33.001 -14.466 -22.648  0.00  0.00    -0.022 C 
ATOM     26  C   UNL     1      32.380 -16.079 -20.824  0.00  0.00    -0.022 C 
ENDBRANCH  20  23
ENDBRANCH  19  20
ENDBRANCH  16  19
ENDBRANCH   1  16
TORSDOF 7
ENDMDL
MODEL 2
REMARK VINA RESULT:      -8.0      7.006      8.528
REMARK  Name = 36976
REMARK  7 active torsions:
REMARK  status: ('A' for Active; 'I' for Inactive)
REMARK    1  A    between atoms: C_1  and  C_16
REMARK    2  A    between atoms: C_4  and  N_8
REMARK    3  A    between atoms: C_6  and  O_14
REMARK    4  A    between atoms: C_16  and  O_17
REMARK    5  A    between atoms: C_16  and  C_19
REMARK    6  A    between atoms: C_19  and  N_20
REMARK    7  A    between atoms: N_20  and  C_23
REMARK                            x       y       z     vdW  Elec       q    Type
REMARK                         _______ _______ _______ _____ _____    ______ ____
ROOT
ATOM      1  C   UNL     1      34.764 -24.073 -14.693  0.00  0.00    +0.004 C 
ATOM      2  C   UNL     1      35.826 -24.950 -14.553  0.00  0.00    +0.016 C 
ATOM      3  C   UNL     1      34.911 -22.851 -15.324  0.00  0.00    +0.001 C 
ATOM      4  C   UNL     1      37.074 -24.592 -15.062  0.00  0.00    +0.085 C 
ATOM      5  C   UNL     1      36.160 -22.493 -15.833  0.00  0.00    +0.038 C 
ATOM      6  C   UNL     1      37.242 -23.364 -15.702  0.00  0.00    +0.147 C 
ENDROOT
BRANCH   4   8
ATOM      7  O   UNL     1      39.367 -24.595 -13.111  0.00  0.00    -0.253 OA
ATOM      8  N   UNL     1      38.148 -25.475 -14.924  0.00  0.00    -0.266 N 
ATOM      9  N   UNL     1      40.080 -26.490 -14.169  0.00  0.00    -0.313 N 
ATOM     10  C   UNL     1      39.198 -25.433 -13.993  0.00  0.00    +0.301 C 
ATOM     11  H   UNL     1      38.171 -26.225 -15.562  0.00  0.00    +0.156 HD
ATOM     12  H   UNL     1      40.864 -26.580 -13.580  0.00  0.00    +0.146 HD
ATOM     13  H   UNL     1      39.923 -27.149 -14.883  0.00  0.00    +0.146 HD
ENDBRANCH   4   8
BRANCH   6  14
ATOM     14  O   UNL     1      38.454 -22.996 -16.206  0.00  0.00    -0.504 OA
ATOM     15  H   UNL     1      39.149 -23.622 -16.260  0.00  0.00    +0.292 HD
ENDBRANCH   6  14
BRANCH   1  16
ATOM     16  C   UNL     1      33.410 -24.460 -14.140  0.00  0.00    +0.112 C 
BRANCH  16  17
ATOM     17  O   UNL     1      33.565 -24.772 -12.756  0.00  0.00    -0.382 OA
ATOM     18  H   UNL     1      34.046 -25.610 -12.665  0.00  0.00    +0.211 HD
ENDBRANCH  16  17
BRANCH  16  19
ATOM     19  C   UNL     1      32.386 -23.332 -14.319  0.00  0.00    -0.047 C 
BRANCH  19  20
ATOM     20  N   UNL     1      31.030 -23.844 -14.214  0.00  0.00    +0.388 N 
ATOM     21  H   UNL     1      31.061 -24.855 -14.093  0.00  0.00    -0.084 HD
ATOM     22  H   UNL     1      30.575 -23.406 -13.411  0.00  0.00    -0.084 HD
BRANCH  20  23
ATOM     23  C   UNL     1      30.264 -23.525 -15.423  0.00  0.00    -0.046 C 
ATOM     24  C   UNL     1      29.566 -24.800 -15.910  0.00  0.00    -0.022 C 
ATOM     25  C   UNL     1      29.223 -22.456 -15.074  0.00  0.00    -0.022 C 
ATOM     26  C   UNL     1      31.217 -23.000 -16.504  0.00  0.00    -0.022 C 
ENDBRANCH  20  23
ENDBRANCH  19  20
ENDBRANCH  16  19
ENDBRANCH   1  16
TORSDOF 7
ENDMDL
MODEL 3
REMARK VINA RESULT:      -7.9      5.195      9.084
REMARK  Name = 36976
REMARK  7 active torsions:
REMARK  status: ('A' for Active; 'I' for Inactive)
REMARK    1  A    between atoms: C_1  and  C_16
REMARK    2  A    between atoms: C_4  and  N_8
REMARK    3  A    between atoms: C_6  and  O_14
REMARK    4  A    between atoms: C_16  and  O_17
REMARK    5  A    between atoms: C_16  and  C_19
REMARK    6  A    between atoms: C_19  and  N_20
REMARK    7  A    between atoms: N_20  and  C_23
REMARK                            x       y       z     vdW  Elec       q    Type
REMARK                         _______ _______ _______ _____ _____    ______ ____
ROOT
ATOM      1  C   UNL     1      32.540 -23.621 -14.516  0.00  0.00    +0.004 C 
ATOM      2  C   UNL     1      32.847 -23.240 -15.812  0.00  0.00    +0.016 C 
ATOM      3  C   UNL     1      31.236 -23.629 -14.053  0.00  0.00    +0.001 C 
ATOM      4  C   UNL     1      31.817 -22.857 -16.670  0.00  0.00    +0.085 C 
ATOM      5  C   UNL     1      30.205 -23.246 -14.912  0.00  0.00    +0.038 C 
ATOM      6  C   UNL     1      30.496 -22.860 -16.222  0.00  0.00    +0.147 C 
ENDROOT
BRANCH   4   8
ATOM      7  O   UNL     1      34.456 -22.766 -18.114  0.00  0.00    -0.253 OA
ATOM      8  N   UNL     1      32.123 -22.473 -17.978  0.00  0.00    -0.266 N 
ATOM      9  N   UNL     1      33.282 -22.007 -19.921  0.00  0.00    -0.313 N 
ATOM     10  C   UNL     1      33.377 -22.449 -18.609  0.00  0.00    +0.301 C 
ATOM     11  H   UNL     1      31.361 -22.184 -18.530  0.00  0.00    +0.156 HD
ATOM     12  H   UNL     1      34.090 -21.942 -20.479  0.00  0.00    +0.146 HD
ATOM     13  H   UNL     1      32.406 -21.759 -20.294  0.00  0.00    +0.146 HD
ENDBRANCH   4   8
BRANCH   6  14
ATOM     14  O   UNL     1      29.475 -22.488 -17.045  0.00  0.00    -0.504 OA
ATOM     15  H   UNL     1      28.626 -22.316 -16.689  0.00  0.00    +0.292 HD
ENDBRANCH   6  14
BRANCH   1  16
ATOM     16  C   UNL     1      33.656 -24.036 -13.584  0.00  0.00    +0.112 C 
BRANCH  16  17
ATOM     17  O   UNL     1      33.179 -25.101 -12.763  0.00  0.00    -0.382 OA
ATOM     18  H   UNL     1      33.927 -25.649 -12.476  0.00  0.00    +0.211 HD
ENDBRANCH  16  17
BRANCH  16  19
ATOM     19  C   UNL     1      34.902 -24.479 -14.361  0.00  0.00    -0.047 C 
BRANCH  19  20
ATOM     20  N   UNL     1      35.758 -25.312 -13.534  0.00  0.00    +0.388 N 
ATOM     21  H   UNL     1      35.904 -24.855 -12.635  0.00  0.00    -0.084 HD
ATOM     22  H   UNL     1      35.305 -26.218 -13.399  0.00  0.00    -0.084 HD
BRANCH  20  23
ATOM     23  C   UNL     1      37.054 -25.525 -14.184  0.00  0.00    -0.046 C 
ATOM     24  C   UNL     1      36.930 -26.711 -15.147  0.00  0.00    -0.022 C 
ATOM     25  C   UNL     1      37.427 -24.257 -14.958  0.00  0.00    -0.022 C 
ATOM     26  C   UNL     1      38.115 -25.823 -13.117  0.00  0.00    -0.022 C 
ENDBRANCH  20  23
ENDBRANCH  19  20
ENDBRANCH  16  19
ENDBRANCH   1  16
TORSDOF 7
ENDMDL
MODEL 4
REMARK VINA RESULT:      -7.8      3.647      8.181
REMARK  Name = 36976
REMARK  7 active torsions:
REMARK  status: ('A' for Active; 'I' for Inactive)
REMARK    1  A    between atoms: C_1  and  C_16
REMARK    2  A    between atoms: C_4  and  N_8
REMARK    3  A    between atoms: C_6  and  O_14
REMARK    4  A    between atoms: C_16  and  O_17
REMARK    5  A    between atoms: C_16  and  C_19
REMARK    6  A    between atoms: C_19  and  N_20
REMARK    7  A    between atoms: N_20  and  C_23
REMARK                            x       y       z     vdW  Elec       q    Type
REMARK                         _______ _______ _______ _____ _____    ______ ____
ROOT
ATOM      1  C   UNL     1      34.437 -15.346 -22.642  0.00  0.00    +0.004 C 
ATOM      2  C   UNL     1      34.108 -14.002 -22.584  0.00  0.00    +0.016 C 
ATOM      3  C   UNL     1      34.271 -16.083 -23.801  0.00  0.00    +0.001 C 
ATOM      4  C   UNL     1      33.597 -13.378 -23.721  0.00  0.00    +0.085 C 
ATOM      5  C   UNL     1      33.760 -15.458 -24.939  0.00  0.00    +0.038 C 
ATOM      6  C   UNL     1      33.423 -14.104 -24.898  0.00  0.00    +0.147 C 
ENDROOT
BRANCH   4   8
ATOM      7  O   UNL     1      34.753 -11.019 -25.191  0.00  0.00    -0.253 OA
ATOM      8  N   UNL     1      33.265 -12.022 -23.665  0.00  0.00    -0.266 N 
ATOM      9  N   UNL     1      33.237  -9.745 -24.052  0.00  0.00    -0.313 N 
ATOM     10  C   UNL     1      33.837 -10.954 -24.375  0.00  0.00    +0.301 C 
ATOM     11  H   UNL     1      32.535 -11.784 -23.049  0.00  0.00    +0.156 HD
ATOM     12  H   UNL     1      33.544  -8.913 -24.479  0.00  0.00    +0.146 HD
ATOM     13  H   UNL     1      32.505  -9.719 -23.394  0.00  0.00    +0.146 HD
ENDBRANCH   4   8
BRANCH   6  14
ATOM     14  O   UNL     1      32.925 -13.512 -26.021  0.00  0.00    -0.504 OA
ATOM     15  H   UNL     1      32.268 -12.848 -25.948  0.00  0.00    +0.292 HD
ENDBRANCH   6  14
BRANCH   1  16
ATOM     16  C   UNL     1      34.990 -16.025 -21.408  0.00  0.00    +0.112 C 
BRANCH  16  17
ATOM     17  O   UNL     1      34.861 -15.125 -20.308  0.00  0.00    -0.382 OA
ATOM     18  H   UNL     1      34.771 -15.630 -19.485  0.00  0.00    +0.211 HD
ENDBRANCH  16  17
BRANCH  16  19
ATOM     19  C   UNL     1      34.254 -17.338 -21.111  0.00  0.00    -0.047 C 
BRANCH  19  20
ATOM     20  N   UNL     1      35.177 -18.348 -20.624  0.00  0.00    +0.388 N 
ATOM     21  H   UNL     1      36.120 -18.123 -20.940  0.00  0.00    -0.084 HD
ATOM     22  H   UNL     1      35.142 -18.363 -19.604  0.00  0.00    -0.084 HD
BRANCH  20  23
ATOM     23  C   UNL     1      34.803 -19.674 -21.128  0.00  0.00    -0.046 C 
ATOM     24  C   UNL     1      33.362 -19.971 -20.698  0.00  0.00    -0.022 C 
ATOM     25  C   UNL     1      34.903 -19.661 -22.657  0.00  0.00    -0.022 C 
ATOM     26  C   UNL     1      35.755 -20.726 -20.546  0.00  0.00    -0.022 C 
ENDBRANCH  20  23
ENDBRANCH  19  20
ENDBRANCH  16  19
ENDBRANCH   1  16
TORSDOF 7
ENDMDL
MODEL 5
REMARK VINA RESULT:      -7.8      5.656      7.400
REMARK  Name = 36976
REMARK  7 active torsions:
REMARK  status: ('A' for Active; 'I' for Inactive)
REMARK    1  A    between atoms: C_1  and  C_16
REMARK    2  A    between atoms: C_4  and  N_8
REMARK    3  A    between atoms: C_6  and  O_14
REMARK    4  A    between atoms: C_16  and  O_17
REMARK    5  A    between atoms: C_16  and  C_19
REMARK    6  A    between atoms: C_19  and  N_20
REMARK    7  A    between atoms: N_20  and  C_23
REMARK                            x       y       z     vdW  Elec       q    Type
REMARK                         _______ _______ _______ _____ _____    ______ ____
ROOT
ATOM      1  C   UNL     1      34.788 -22.893 -16.985  0.00  0.00    +0.004 C 
ATOM      2  C   UNL     1      34.984 -23.886 -16.039  0.00  0.00    +0.016 C 
ATOM      3  C   UNL     1      35.812 -22.045 -17.368  0.00  0.00    +0.001 C 
ATOM      4  C   UNL     1      36.244 -24.033 -15.460  0.00  0.00    +0.085 C 
ATOM      5  C   UNL     1      37.072 -22.193 -16.789  0.00  0.00    +0.038 C 
ATOM      6  C   UNL     1      37.289 -23.189 -15.835  0.00  0.00    +0.147 C 
ENDROOT
BRANCH   4   8
ATOM      7  O   UNL     1      37.092 -26.903 -15.787  0.00  0.00    -0.253 OA
ATOM      8  N   UNL     1      36.445 -25.035 -14.507  0.00  0.00    -0.266 N 
ATOM      9  N   UNL     1      36.936 -27.061 -13.514  0.00  0.00    -0.313 N 
ATOM     10  C   UNL     1      36.843 -26.366 -14.711  0.00  0.00    +0.301 C 
ATOM     11  H   UNL     1      36.288 -24.773 -13.571  0.00  0.00    +0.156 HD
ATOM     12  H   UNL     1      37.206 -28.008 -13.513  0.00  0.00    +0.146 HD
ATOM     13  H   UNL     1      36.732 -26.608 -12.664  0.00  0.00    +0.146 HD
ENDBRANCH   4   8
BRANCH   6  14
ATOM     14  O   UNL     1      38.527 -23.317 -15.281  0.00  0.00    -0.504 OA
ATOM     15  H   UNL     1      39.277 -22.974 -15.726  0.00  0.00    +0.292 HD
ENDBRANCH   6  14
BRANCH   1  16
ATOM     16  C   UNL     1      33.421 -22.731 -17.613  0.00  0.00    +0.112 C 
BRANCH  16  17
ATOM     17  O   UNL     1      33.495 -23.181 -18.965  0.00  0.00    -0.382 OA
ATOM     18  H   UNL     1      34.388 -23.516 -19.147  0.00  0.00    +0.211 HD
ENDBRANCH  16  17
BRANCH  16  19
ATOM     19  C   UNL     1      32.353 -23.522 -16.847  0.00  0.00    -0.047 C 
BRANCH  19  20
ATOM     20  N   UNL     1      31.103 -22.784 -16.794  0.00  0.00    +0.388 N 
ATOM     21  H   UNL     1      31.303 -21.788 -16.716  0.00  0.00    -0.084 HD
ATOM     22  H   UNL     1      30.573 -22.972 -17.647  0.00  0.00    -0.084 HD
BRANCH  20  23
ATOM     23  C   UNL     1      30.303 -23.208 -15.640  0.00  0.00    -0.046 C 
ATOM     24  C   UNL     1      31.072 -22.863 -14.360  0.00  0.00    -0.022 C 
ATOM     25  C   UNL     1      28.967 -22.459 -15.670  0.00  0.00    -0.022 C 
ATOM     26  C   UNL     1      30.061 -24.721 -15.718  0.00  0.00    -0.022 C 
ENDBRANCH  20  23
ENDBRANCH  19  20
ENDBRANCH  16  19
ENDBRANCH   1  16
TORSDOF 7
ENDMDL
MODEL 6
REMARK VINA RESULT:      -7.8      2.925      4.700
REMARK  Name = 36976
REMARK  7 active torsions:
REMARK  status: ('A' for Active; 'I' for Inactive)
REMARK    1  A    between atoms: C_1  and  C_16
REMARK    2  A    between atoms: C_4  and  N_8
REMARK    3  A    between atoms: C_6  and  O_14
REMARK    4  A    between atoms: C_16  and  O_17
REMARK    5  A    between atoms: C_16  and  C_19
REMARK    6  A    between atoms: C_19  and  N_20
REMARK    7  A    between atoms: N_20  and  C_23
REMARK                            x       y       z     vdW  Elec       q    Type
REMARK                         _______ _______ _______ _____ _____    ______ ____
ROOT
ATOM      1  C   UNL     1      34.966 -22.214 -18.170  0.00  0.00    +0.004 C 
ATOM      2  C   UNL     1      34.293 -23.015 -17.263  0.00  0.00    +0.016 C 
ATOM      3  C   UNL     1      36.250 -21.761 -17.923  0.00  0.00    +0.001 C 
ATOM      4  C   UNL     1      34.924 -23.375 -16.073  0.00  0.00    +0.085 C 
ATOM      5  C   UNL     1      36.882 -22.121 -16.732  0.00  0.00    +0.038 C 
ATOM      6  C   UNL     1      36.218 -22.929 -15.807  0.00  0.00    +0.147 C 
ENDROOT
BRANCH   4   8
ATOM      7  O   UNL     1      32.369 -22.898 -14.555  0.00  0.00    -0.253 OA
ATOM      8  N   UNL     1      34.248 -24.184 -15.157  0.00  0.00    -0.266 N 
ATOM      9  N   UNL     1      32.690 -24.968 -13.643  0.00  0.00    -0.313 N 
ATOM     10  C   UNL     1      33.052 -23.916 -14.472  0.00  0.00    +0.301 C 
ATOM     11  H   UNL     1      34.663 -25.057 -14.969  0.00  0.00    +0.156 HD
ATOM     12  H   UNL     1      31.869 -24.909 -13.103  0.00  0.00    +0.146 HD
ATOM     13  H   UNL     1      33.254 -25.773 -13.595  0.00  0.00    +0.146 HD
ENDBRANCH   4   8
BRANCH   6  14
ATOM     14  O   UNL     1      36.853 -23.268 -14.649  0.00  0.00    -0.504 OA
ATOM     15  H   UNL     1      37.169 -24.142 -14.528  0.00  0.00    +0.292 HD
ENDBRANCH   6  14
BRANCH   1  16
ATOM     16  C   UNL     1      34.281 -21.823 -19.461  0.00  0.00    +0.112 C 
BRANCH  16  17
ATOM     17  O   UNL     1      32.954 -21.398 -19.151  0.00  0.00    -0.382 OA
ATOM     18  H   UNL     1      32.518 -21.083 -19.958  0.00  0.00    +0.211 HD
ENDBRANCH  16  17
BRANCH  16  19
ATOM     19  C   UNL     1      35.042 -20.705 -20.185  0.00  0.00    -0.047 C 
BRANCH  19  20
ATOM     20  N   UNL     1      34.133 -19.886 -20.969  0.00  0.00    +0.388 N 
ATOM     21  H   UNL     1      33.657 -20.473 -21.653  0.00  0.00    -0.084 HD
ATOM     22  H   UNL     1      33.454 -19.454 -20.341  0.00  0.00    -0.084 HD
BRANCH  20  23
ATOM     23  C   UNL     1      34.868 -18.828 -21.670  0.00  0.00    -0.046 C 
ATOM     24  C   UNL     1      36.317 -18.825 -21.170  0.00  0.00    -0.022 C 
ATOM     25  C   UNL     1      34.831 -19.121 -23.174  0.00  0.00    -0.022 C 
ATOM     26  C   UNL     1      34.208 -17.474 -21.380  0.00  0.00    -0.022 C 
ENDBRANCH  20  23
ENDBRANCH  19  20
ENDBRANCH  16  19
ENDBRANCH   1  16
TORSDOF 7
ENDMDL
MODEL 7
REMARK VINA RESULT:      -7.7      7.558      9.124
REMARK  Name = 36976
REMARK  7 active torsions:
REMARK  status: ('A' for Active; 'I' for Inactive)
REMARK    1  A    between atoms: C_1  and  C_16
REMARK    2  A    between atoms: C_4  and  N_8
REMARK    3  A    between atoms: C_6  and  O_14
REMARK    4  A    between atoms: C_16  and  O_17
REMARK    5  A    between atoms: C_16  and  C_19
REMARK    6  A    between atoms: C_19  and  N_20
REMARK    7  A    between atoms: N_20  and  C_23
REMARK                            x       y       z     vdW  Elec       q    Type
REMARK                         _______ _______ _______ _____ _____    ______ ____
ROOT
ATOM      1  C   UNL     1      34.848 -24.300 -13.461  0.00  0.00    +0.004 C 
ATOM      2  C   UNL     1      35.980 -24.509 -14.231  0.00  0.00    +0.016 C 
ATOM      3  C   UNL     1      34.934 -23.855 -12.153  0.00  0.00    +0.001 C 
ATOM      4  C   UNL     1      37.235 -24.265 -13.675  0.00  0.00    +0.085 C 
ATOM      5  C   UNL     1      36.190 -23.611 -11.597  0.00  0.00    +0.038 C 
ATOM      6  C   UNL     1      37.341 -23.815 -12.359  0.00  0.00    +0.147 C 
ENDROOT
BRANCH   4   8
ATOM      7  O   UNL     1      38.633 -26.814 -14.454  0.00  0.00    -0.253 OA
ATOM      8  N   UNL     1      38.378 -24.473 -14.451  0.00  0.00    -0.266 N 
ATOM      9  N   UNL     1      40.117 -25.491 -15.580  0.00  0.00    -0.313 N 
ATOM     10  C   UNL     1      38.995 -25.688 -14.788  0.00  0.00    +0.301 C 
ATOM     11  H   UNL     1      38.808 -23.662 -14.808  0.00  0.00    +0.156 HD
ATOM     12  H   UNL     1      40.645 -26.263 -15.888  0.00  0.00    +0.146 HD
ATOM     13  H   UNL     1      40.387 -24.579 -15.833  0.00  0.00    +0.146 HD
ENDBRANCH   4   8
BRANCH   6  14
ATOM     14  O   UNL     1      38.559 -23.571 -11.798  0.00  0.00    -0.504 OA
ATOM     15  H   UNL     1      38.890 -22.695 -11.760  0.00  0.00    +0.292 HD
ENDBRANCH   6  14
BRANCH   1  16
ATOM     16  C   UNL     1      33.486 -24.566 -14.062  0.00  0.00    +0.112 C 
BRANCH  16  17
ATOM     17  O   UNL     1      32.665 -25.163 -13.060  0.00  0.00    -0.382 OA
ATOM     18  H   UNL     1      33.010 -26.042 -12.838  0.00  0.00    +0.211 HD
ENDBRANCH  16  17
BRANCH  16  19
ATOM     19  C   UNL     1      32.838 -23.276 -14.581  0.00  0.00    -0.047 C 
BRANCH  19  20
ATOM     20  N   UNL     1      31.437 -23.212 -14.202  0.00  0.00    +0.388 N 
ATOM     21  H   UNL     1      31.232 -23.966 -13.547  0.00  0.00    -0.084 HD
ATOM     22  H   UNL     1      31.255 -22.307 -13.767  0.00  0.00    -0.084 HD
BRANCH  20  23
ATOM     23  C   UNL     1      30.578 -23.350 -15.382  0.00  0.00    -0.046 C 
ATOM     24  C   UNL     1      30.142 -24.815 -15.501  0.00  0.00    -0.022 C 
ATOM     25  C   UNL     1      29.352 -22.449 -15.202  0.00  0.00    -0.022 C 
ATOM     26  C   UNL     1      31.361 -22.930 -16.633  0.00  0.00    -0.022 C 
ENDBRANCH  20  23
ENDBRANCH  19  20
ENDBRANCH  16  19
ENDBRANCH   1  16
TORSDOF 7
ENDMDL
MODEL 8
REMARK VINA RESULT:      -7.7      6.088      9.493
REMARK  Name = 36976
REMARK  7 active torsions:
REMARK  status: ('A' for Active; 'I' for Inactive)
REMARK    1  A    between atoms: C_1  and  C_16
REMARK    2  A    between atoms: C_4  and  N_8
REMARK    3  A    between atoms: C_6  and  O_14
REMARK    4  A    between atoms: C_16  and  O_17
REMARK    5  A    between atoms: C_16  and  C_19
REMARK    6  A    between atoms: C_19  and  N_20
REMARK    7  A    between atoms: N_20  and  C_23
REMARK                            x       y       z     vdW  Elec       q    Type
REMARK                         _______ _______ _______ _____ _____    ______ ____
ROOT
ATOM      1  C   UNL     1      33.424 -23.495 -14.928  0.00  0.00    +0.004 C 
ATOM      2  C   UNL     1      32.108 -23.232 -15.268  0.00  0.00    +0.016 C 
ATOM      3  C   UNL     1      34.443 -23.413 -15.861  0.00  0.00    +0.001 C 
ATOM      4  C   UNL     1      31.802 -22.877 -16.581  0.00  0.00    +0.085 C 
ATOM      5  C   UNL     1      34.137 -23.057 -17.175  0.00  0.00    +0.038 C 
ATOM      6  C   UNL     1      32.815 -22.789 -17.535  0.00  0.00    +0.147 C 
ENDROOT
BRANCH   4   8
ATOM      7  O   UNL     1      29.303 -24.496 -16.140  0.00  0.00    -0.253 OA
ATOM      8  N   UNL     1      30.474 -22.610 -16.926  0.00  0.00    -0.266 N 
ATOM      9  N   UNL     1      28.187 -22.798 -17.185  0.00  0.00    -0.313 N 
ATOM     10  C   UNL     1      29.337 -23.402 -16.697  0.00  0.00    +0.301 C 
ATOM     11  H   UNL     1      30.315 -21.756 -17.389  0.00  0.00    +0.156 HD
ATOM     12  H   UNL     1      27.317 -23.248 -17.090  0.00  0.00    +0.146 HD
ATOM     13  H   UNL     1      28.241 -21.921 -17.628  0.00  0.00    +0.146 HD
ENDBRANCH   4   8
BRANCH   6  14
ATOM     14  O   UNL     1      32.537 -22.443 -18.824  0.00  0.00    -0.504 OA
ATOM     15  H   UNL     1      33.079 -21.822 -19.270  0.00  0.00    +0.292 HD
ENDBRANCH   6  14
BRANCH   1  16
ATOM     16  C   UNL     1      33.757 -23.881 -13.504  0.00  0.00    +0.112 C 
BRANCH  16  17
ATOM     17  O   UNL     1      33.079 -25.100 -13.203  0.00  0.00    -0.382 OA
ATOM     18  H   UNL     1      32.120 -24.962 -13.265  0.00  0.00    +0.211 HD
ENDBRANCH  16  17
BRANCH  16  19
ATOM     19  C   UNL     1      35.268 -24.050 -13.306  0.00  0.00    -0.047 C 
BRANCH  19  20
ATOM     20  N   UNL     1      35.658 -25.441 -13.463  0.00  0.00    +0.388 N 
ATOM     21  H   UNL     1      35.440 -25.950 -12.607  0.00  0.00    -0.084 HD
ATOM     22  H   UNL     1      35.144 -25.839 -14.251  0.00  0.00    -0.084 HD
BRANCH  20  23
ATOM     23  C   UNL     1      37.095 -25.546 -13.736  0.00  0.00    -0.046 C 
ATOM     24  C   UNL     1      37.827 -25.791 -12.412  0.00  0.00    -0.022 C 
ATOM     25  C   UNL     1      37.326 -26.722 -14.691  0.00  0.00    -0.022 C 
ATOM     26  C   UNL     1      37.586 -24.242 -14.377  0.00  0.00    -0.022 C 
ENDBRANCH  20  23
ENDBRANCH  19  20
ENDBRANCH  16  19
ENDBRANCH   1  16
TORSDOF 7
ENDMDL
MODEL 9
REMARK VINA RESULT:      -7.7      2.619      7.125
REMARK  Name = 36976
REMARK  7 active torsions:
REMARK  status: ('A' for Active; 'I' for Inactive)
REMARK    1  A    between atoms: C_1  and  C_16
REMARK    2  A    between atoms: C_4  and  N_8
REMARK    3  A    between atoms: C_6  and  O_14
REMARK    4  A    between atoms: C_16  and  O_17
REMARK    5  A    between atoms: C_16  and  C_19
REMARK    6  A    between atoms: C_19  and  N_20
REMARK    7  A    between atoms: N_20  and  C_23
REMARK                            x       y       z     vdW  Elec       q    Type
REMARK                         _______ _______ _______ _____ _____    ______ ____
ROOT
ATOM      1  C   UNL     1      35.261 -17.940 -22.792  0.00  0.00    +0.004 C 
ATOM      2  C   UNL     1      34.989 -16.583 -22.749  0.00  0.00    +0.016 C 
ATOM      3  C   UNL     1      35.033 -18.689 -23.934  0.00  0.00    +0.001 C 
ATOM      4  C   UNL     1      34.473 -15.956 -23.883  0.00  0.00    +0.085 C 
ATOM      5  C   UNL     1      34.517 -18.061 -25.068  0.00  0.00    +0.038 C 
ATOM      6  C   UNL     1      34.238 -16.694 -25.043  0.00  0.00    +0.147 C 
ENDROOT
BRANCH   4   8
ATOM      7  O   UNL     1      32.278 -14.441 -22.489  0.00  0.00    -0.253 OA
ATOM      8  N   UNL     1      34.199 -14.587 -23.843  0.00  0.00    -0.266 N 
ATOM      9  N   UNL     1      33.215 -12.552 -23.369  0.00  0.00    -0.313 N 
ATOM     10  C   UNL     1      33.157 -13.925 -23.174  0.00  0.00    +0.301 C 
ATOM     11  H   UNL     1      34.818 -14.011 -24.348  0.00  0.00    +0.156 HD
ATOM     12  H   UNL     1      32.540 -11.967 -22.955  0.00  0.00    +0.146 HD
ATOM     13  H   UNL     1      33.930 -12.163 -23.923  0.00  0.00    +0.146 HD
ENDBRANCH   4   8
BRANCH   6  14
ATOM     14  O   UNL     1      33.734 -16.100 -26.162  0.00  0.00    -0.504 OA
ATOM     15  H   UNL     1      33.601 -16.605 -26.940  0.00  0.00    +0.292 HD
ENDBRANCH   6  14
BRANCH   1  16
ATOM     16  C   UNL     1      35.819 -18.621 -21.562  0.00  0.00    +0.112 C 
BRANCH  16  17
ATOM     17  O   UNL     1      35.667 -17.734 -20.454  0.00  0.00    -0.382 OA
ATOM     18  H   UNL     1      36.528 -17.597 -20.029  0.00  0.00    +0.211 HD
ENDBRANCH  16  17
BRANCH  16  19
ATOM     19  C   UNL     1      35.105 -19.950 -21.282  0.00  0.00    -0.047 C 
BRANCH  19  20
ATOM     20  N   UNL     1      34.959 -20.166 -19.853  0.00  0.00    +0.388 N 
ATOM     21  H   UNL     1      35.507 -19.469 -19.350  0.00  0.00    -0.084 HD
ATOM     22  H   UNL     1      33.972 -20.084 -19.606  0.00  0.00    -0.084 HD
BRANCH  20  23
ATOM     23  C   UNL     1      35.428 -21.506 -19.485  0.00  0.00    -0.046 C 
ATOM     24  C   UNL     1      34.227 -22.329 -19.005  0.00  0.00    -0.022 C 
ATOM     25  C   UNL     1      36.055 -22.161 -20.719  0.00  0.00    -0.022 C 
ATOM     26  C   UNL     1      36.468 -21.390 -18.363  0.00  0.00    -0.022 C 
ENDBRANCH  20  23
ENDBRANCH  19  20
ENDBRANCH  16  19
ENDBRANCH   1  16
TORSDOF 7
ENDMDL
