MODEL 1
REMARK VINA RESULT:     -11.9      0.000      0.000
REMARK  Name = 46851313
REMARK  4 active torsions:
REMARK  status: ('A' for Active; 'I' for Inactive)
REMARK    1  A    between atoms: C_3  and  C_19
REMARK    2  A    between atoms: C_6  and  S_21
REMARK    3  A    between atoms: S_21  and  N_24
REMARK    4  A    between atoms: N_24  and  C_27
REMARK                            x       y       z     vdW  Elec       q    Type
REMARK                         _______ _______ _______ _____ _____    ______ ____
ROOT
ATOM      1 CL   UNL     1      35.988 -10.682 -26.485  0.00  0.00    -0.082 Cl
ATOM      2  F   UNL     1      34.544  -7.298 -23.026  0.00  0.00    -0.203 F 
ATOM      3  C   UNL     1      33.871 -10.972 -24.789  0.00  0.00    +0.066 C 
ATOM      4  C   UNL     1      33.036 -10.533 -23.762  0.00  0.00    +0.028 C 
ATOM      5  C   UNL     1      34.930 -10.172 -25.219  0.00  0.00    +0.064 C 
ATOM      6  C   UNL     1      33.260  -9.292 -23.165  0.00  0.00    +0.153 C 
ATOM      7  C   UNL     1      35.154  -8.932 -24.621  0.00  0.00    +0.043 C 
ATOM      8  C   UNL     1      34.319  -8.491 -23.594  0.00  0.00    +0.160 C 
ENDROOT
BRANCH   3  19
ATOM      9  O   UNL     1      33.473 -12.309 -26.613  0.00  0.00    -0.270 OA
ATOM     10  N   UNL     1      33.953 -15.748 -23.040  0.00  0.00    +0.391 N 
ATOM     11  N   UNL     1      33.490 -13.389 -24.539  0.00  0.00    -0.280 N 
ATOM     12  C   UNL     1      34.423 -14.454 -22.539  0.00  0.00    -0.038 C 
ATOM     13  C   UNL     1      34.379 -14.687 -21.039  0.00  0.00    -0.021 C 
ATOM     14  C   UNL     1      34.727 -16.742 -22.307  0.00  0.00    -0.077 C 
ATOM     15  C   UNL     1      33.537 -13.334 -23.064  0.00  0.00    +0.073 C 
ATOM     16  C   UNL     1      34.781 -16.159 -20.893  0.00  0.00    -0.025 C 
ATOM     17  C   UNL     1      34.072 -15.817 -24.492  0.00  0.00    -0.055 C 
ATOM     18  C   UNL     1      33.207 -14.713 -25.112  0.00  0.00    +0.071 C 
ATOM     19  C   UNL     1      33.596 -12.284 -25.389  0.00  0.00    +0.250 C 
ATOM     20  H   UNL     1      32.961 -15.914 -22.880  0.00  0.00    -0.079 HD
ENDBRANCH   3  19
BRANCH   6  21
ATOM     21  S   UNL     1      32.213  -8.745 -21.878  0.00  0.00    +0.076 S 
ATOM     22  O   UNL     1      31.640  -9.923 -21.239  0.00  0.00    -0.150 OA
ATOM     23  O   UNL     1      32.945  -7.788 -21.058  0.00  0.00    -0.150 OA
BRANCH  21  24
ATOM     24  N   UNL     1      30.955  -7.932 -22.730  0.00  0.00    -0.213 N 
ATOM     25  H   UNL     1      30.083  -8.366 -22.880  0.00  0.00    +0.174 HD
BRANCH  24  27
ATOM     26  F   UNL     1      30.544  -5.672 -21.134  0.00  0.00    -0.203 F 
ATOM     27  C   UNL     1      31.214  -6.603 -23.213  0.00  0.00    +0.092 C 
ATOM     28  C   UNL     1      30.997  -5.502 -22.385  0.00  0.00    +0.155 C 
ATOM     29  C   UNL     1      31.683  -6.415 -24.514  0.00  0.00    +0.018 C 
ATOM     30  C   UNL     1      31.248  -4.214 -22.856  0.00  0.00    +0.031 C 
ATOM     31  C   UNL     1      31.935  -5.126 -24.984  0.00  0.00    +0.001 C 
ATOM     32  C   UNL     1      31.717  -4.026 -24.156  0.00  0.00    +0.002 C 
ENDBRANCH  24  27
ENDBRANCH  21  24
ENDBRANCH   6  21
TORSDOF 4
ENDMDL
MODEL 2
REMARK VINA RESULT:     -11.0      5.149     10.189
REMARK  Name = 46851313
REMARK  4 active torsions:
REMARK  status: ('A' for Active; 'I' for Inactive)
REMARK    1  A    between atoms: C_3  and  C_19
REMARK    2  A    between atoms: C_6  and  S_21
REMARK    3  A    between atoms: S_21  and  N_24
REMARK    4  A    between atoms: N_24  and  C_27
REMARK                            x       y       z     vdW  Elec       q    Type
REMARK                         _______ _______ _______ _____ _____    ______ ____
ROOT
ATOM      1 CL   UNL     1      32.596 -14.255 -25.790  0.00  0.00    -0.082 Cl
ATOM      2  F   UNL     1      35.541 -18.223 -24.748  0.00  0.00    -0.203 F 
ATOM      3  C   UNL     1      33.361 -15.032 -23.289  0.00  0.00    +0.066 C 
ATOM      4  C   UNL     1      34.037 -15.872 -22.405  0.00  0.00    +0.028 C 
ATOM      5  C   UNL     1      33.422 -15.270 -24.662  0.00  0.00    +0.064 C 
ATOM      6  C   UNL     1      34.775 -16.950 -22.894  0.00  0.00    +0.153 C 
ATOM      7  C   UNL     1      34.159 -16.348 -25.151  0.00  0.00    +0.043 C 
ATOM      8  C   UNL     1      34.836 -17.189 -24.267  0.00  0.00    +0.160 C 
ENDROOT
BRANCH   3  19
ATOM      9  O   UNL     1      31.849 -14.175 -21.790  0.00  0.00    -0.270 OA
ATOM     10  N   UNL     1      33.553  -9.982 -23.872  0.00  0.00    +0.391 N 
ATOM     11  N   UNL     1      32.772 -12.644 -23.297  0.00  0.00    -0.280 N 
ATOM     12  C   UNL     1      34.424 -11.101 -24.242  0.00  0.00    -0.038 C 
ATOM     13  C   UNL     1      35.137 -10.529 -25.455  0.00  0.00    -0.021 C 
ATOM     14  C   UNL     1      34.418  -8.809 -23.881  0.00  0.00    -0.077 C 
ATOM     15  C   UNL     1      33.595 -12.353 -24.487  0.00  0.00    +0.073 C 
ATOM     16  C   UNL     1      35.303  -9.046 -25.106  0.00  0.00    -0.025 C 
ATOM     17  C   UNL     1      32.878 -10.246 -22.607  0.00  0.00    -0.055 C 
ATOM     18  C   UNL     1      32.014 -11.504 -22.760  0.00  0.00    +0.071 C 
ATOM     19  C   UNL     1      32.598 -13.909 -22.729  0.00  0.00    +0.250 C 
ATOM     20  H   UNL     1      32.781  -9.832 -24.520  0.00  0.00    -0.079 HD
ENDBRANCH   3  19
BRANCH   6  21
ATOM     21  S   UNL     1      35.620 -18.001 -21.783  0.00  0.00    +0.076 S 
ATOM     22  O   UNL     1      36.961 -18.219 -22.312  0.00  0.00    -0.150 OA
ATOM     23  O   UNL     1      35.476 -17.465 -20.435  0.00  0.00    -0.150 OA
BRANCH  21  24
ATOM     24  N   UNL     1      34.745 -19.478 -21.914  0.00  0.00    -0.213 N 
ATOM     25  H   UNL     1      34.256 -19.706 -22.739  0.00  0.00    +0.174 HD
BRANCH  24  27
ATOM     26  F   UNL     1      32.374 -20.389 -20.742  0.00  0.00    -0.203 F 
ATOM     27  C   UNL     1      34.749 -20.369 -20.786  0.00  0.00    +0.092 C 
ATOM     28  C   UNL     1      33.544 -20.801 -20.231  0.00  0.00    +0.155 C 
ATOM     29  C   UNL     1      35.960 -20.803 -20.246  0.00  0.00    +0.018 C 
ATOM     30  C   UNL     1      33.550 -21.665 -19.136  0.00  0.00    +0.031 C 
ATOM     31  C   UNL     1      35.966 -21.668 -19.152  0.00  0.00    +0.001 C 
ATOM     32  C   UNL     1      34.761 -22.098 -18.596  0.00  0.00    +0.002 C 
ENDBRANCH  24  27
ENDBRANCH  21  24
ENDBRANCH   6  21
TORSDOF 4
ENDMDL
MODEL 3
REMARK VINA RESULT:     -10.1     10.900     14.354
REMARK  Name = 46851313
REMARK  4 active torsions:
REMARK  status: ('A' for Active; 'I' for Inactive)
REMARK    1  A    between atoms: C_3  and  C_19
REMARK    2  A    between atoms: C_6  and  S_21
REMARK    3  A    between atoms: S_21  and  N_24
REMARK    4  A    between atoms: N_24  and  C_27
REMARK                            x       y       z     vdW  Elec       q    Type
REMARK                         _______ _______ _______ _____ _____    ______ ____
ROOT
ATOM      1 CL   UNL     1      36.950 -23.193 -13.662  0.00  0.00    -0.082 Cl
ATOM      2  F   UNL     1      37.246 -21.264 -18.319  0.00  0.00    -0.203 F 
ATOM      3  C   UNL     1      34.991 -23.345 -15.554  0.00  0.00    +0.066 C 
ATOM      4  C   UNL     1      34.470 -23.089 -16.822  0.00  0.00    +0.028 C 
ATOM      5  C   UNL     1      36.270 -22.899 -15.222  0.00  0.00    +0.064 C 
ATOM      6  C   UNL     1      35.229 -22.387 -17.759  0.00  0.00    +0.153 C 
ATOM      7  C   UNL     1      37.029 -22.197 -16.159  0.00  0.00    +0.043 C 
ATOM      8  C   UNL     1      36.509 -21.941 -17.428  0.00  0.00    +0.160 C 
ENDROOT
BRANCH   3  19
ATOM      9  O   UNL     1      34.739 -24.582 -13.638  0.00  0.00    -0.270 OA
ATOM     10  N   UNL     1      29.973 -23.844 -14.888  0.00  0.00    +0.391 N 
ATOM     11  N   UNL     1      32.785 -24.182 -14.860  0.00  0.00    -0.280 N 
ATOM     12  C   UNL     1      30.829 -22.955 -15.678  0.00  0.00    -0.038 C 
ATOM     13  C   UNL     1      29.897 -22.589 -16.820  0.00  0.00    -0.021 C 
ATOM     14  C   UNL     1      28.704 -23.136 -14.763  0.00  0.00    -0.077 C 
ATOM     15  C   UNL     1      32.111 -23.674 -16.071  0.00  0.00    +0.073 C 
ATOM     16  C   UNL     1      28.520 -22.517 -16.150  0.00  0.00    -0.025 C 
ATOM     17  C   UNL     1      30.613 -24.195 -13.627  0.00  0.00    -0.055 C 
ATOM     18  C   UNL     1      31.928 -24.927 -13.927  0.00  0.00    +0.071 C 
ATOM     19  C   UNL     1      34.156 -24.088 -14.602  0.00  0.00    +0.250 C 
ATOM     20  H   UNL     1      29.808 -24.749 -15.325  0.00  0.00    -0.079 HD
ENDBRANCH   3  19
BRANCH   6  21
ATOM     21  S   UNL     1      34.574 -22.067 -19.346  0.00  0.00    +0.076 S 
ATOM     22  O   UNL     1      35.519 -22.581 -20.329  0.00  0.00    -0.150 OA
ATOM     23  O   UNL     1      33.195 -22.541 -19.384  0.00  0.00    -0.150 OA
BRANCH  21  24
ATOM     24  N   UNL     1      34.596 -20.347 -19.429  0.00  0.00    -0.213 N 
ATOM     25  H   UNL     1      34.361 -19.799 -18.645  0.00  0.00    +0.174 HD
BRANCH  24  27
ATOM     26  F   UNL     1      32.805 -20.141 -21.568  0.00  0.00    -0.203 F 
ATOM     27  C   UNL     1      34.968 -19.734 -20.675  0.00  0.00    +0.092 C 
ATOM     28  C   UNL     1      34.044 -19.651 -21.717  0.00  0.00    +0.155 C 
ATOM     29  C   UNL     1      36.255 -19.223 -20.843  0.00  0.00    +0.018 C 
ATOM     30  C   UNL     1      34.407 -19.057 -22.926  0.00  0.00    +0.031 C 
ATOM     31  C   UNL     1      36.617 -18.628 -22.051  0.00  0.00    +0.001 C 
ATOM     32  C   UNL     1      35.693 -18.546 -23.093  0.00  0.00    +0.002 C 
ENDBRANCH  24  27
ENDBRANCH  21  24
ENDBRANCH   6  21
TORSDOF 4
ENDMDL
MODEL 4
REMARK VINA RESULT:     -10.0     11.414     15.328
REMARK  Name = 46851313
REMARK  4 active torsions:
REMARK  status: ('A' for Active; 'I' for Inactive)
REMARK    1  A    between atoms: C_3  and  C_19
REMARK    2  A    between atoms: C_6  and  S_21
REMARK    3  A    between atoms: S_21  and  N_24
REMARK    4  A    between atoms: N_24  and  C_27
REMARK                            x       y       z     vdW  Elec       q    Type
REMARK                         _______ _______ _______ _____ _____    ______ ____
ROOT
ATOM      1 CL   UNL     1      30.800 -23.712 -13.189  0.00  0.00    -0.082 Cl
ATOM      2  F   UNL     1      31.237 -22.209 -17.990  0.00  0.00    -0.203 F 
ATOM      3  C   UNL     1      33.082 -23.846 -14.677  0.00  0.00    +0.066 C 
ATOM      4  C   UNL     1      33.809 -23.654 -15.851  0.00  0.00    +0.028 C 
ATOM      5  C   UNL     1      31.735 -23.486 -14.623  0.00  0.00    +0.064 C 
ATOM      6  C   UNL     1      33.190 -23.101 -16.971  0.00  0.00    +0.153 C 
ATOM      7  C   UNL     1      31.116 -22.933 -15.743  0.00  0.00    +0.043 C 
ATOM      8  C   UNL     1      31.843 -22.740 -16.918  0.00  0.00    +0.160 C 
ENDROOT
BRANCH   3  19
ATOM      9  O   UNL     1      33.065 -24.969 -12.674  0.00  0.00    -0.270 OA
ATOM     10  N   UNL     1      37.958 -24.810 -13.596  0.00  0.00    +0.391 N 
ATOM     11  N   UNL     1      35.170 -24.330 -13.469  0.00  0.00    -0.280 N 
ATOM     12  C   UNL     1      37.221 -24.432 -14.805  0.00  0.00    -0.038 C 
ATOM     13  C   UNL     1      38.303 -23.722 -15.599  0.00  0.00    -0.021 C 
ATOM     14  C   UNL     1      39.197 -25.407 -14.079  0.00  0.00    -0.077 C 
ATOM     15  C   UNL     1      36.006 -23.594 -14.438  0.00  0.00    +0.073 C 
ATOM     16  C   UNL     1      39.573 -24.510 -15.260  0.00  0.00    -0.025 C 
ATOM     17  C   UNL     1      37.149 -25.667 -12.740  0.00  0.00    -0.055 C 
ATOM     18  C   UNL     1      35.889 -24.899 -12.320  0.00  0.00    +0.071 C 
ATOM     19  C   UNL     1      33.776 -24.431 -13.522  0.00  0.00    +0.250 C 
ATOM     20  H   UNL     1      38.183 -24.021 -12.991  0.00  0.00    -0.079 HD
ENDBRANCH   3  19
BRANCH   6  21
ATOM     21  S   UNL     1      34.104 -22.861 -18.441  0.00  0.00    +0.076 S 
ATOM     22  O   UNL     1      35.459 -22.480 -18.064  0.00  0.00    -0.150 OA
ATOM     23  O   UNL     1      33.915 -24.023 -19.301  0.00  0.00    -0.150 OA
BRANCH  21  24
ATOM     24  N   UNL     1      33.338 -21.489 -19.147  0.00  0.00    -0.213 N 
ATOM     25  H   UNL     1      32.401 -21.269 -18.938  0.00  0.00    +0.174 HD
BRANCH  24  27
ATOM     26  F   UNL     1      32.132 -19.994 -21.180  0.00  0.00    -0.203 F 
ATOM     27  C   UNL     1      34.106 -20.675 -20.049  0.00  0.00    +0.092 C 
ATOM     28  C   UNL     1      33.466 -19.944 -21.050  0.00  0.00    +0.155 C 
ATOM     29  C   UNL     1      35.494 -20.617 -19.924  0.00  0.00    +0.018 C 
ATOM     30  C   UNL     1      34.213 -19.155 -21.925  0.00  0.00    +0.031 C 
ATOM     31  C   UNL     1      36.241 -19.828 -20.798  0.00  0.00    +0.001 C 
ATOM     32  C   UNL     1      35.601 -19.097 -21.799  0.00  0.00    +0.002 C 
ENDBRANCH  24  27
ENDBRANCH  21  24
ENDBRANCH   6  21
TORSDOF 4
ENDMDL
MODEL 5
REMARK VINA RESULT:      -9.9      8.175     12.943
REMARK  Name = 46851313
REMARK  4 active torsions:
REMARK  status: ('A' for Active; 'I' for Inactive)
REMARK    1  A    between atoms: C_3  and  C_19
REMARK    2  A    between atoms: C_6  and  S_21
REMARK    3  A    between atoms: S_21  and  N_24
REMARK    4  A    between atoms: N_24  and  C_27
REMARK                            x       y       z     vdW  Elec       q    Type
REMARK                         _______ _______ _______ _____ _____    ______ ____
ROOT
ATOM      1 CL   UNL     1      38.113 -18.660 -21.774  0.00  0.00    -0.082 Cl
ATOM      2  F   UNL     1      36.575 -21.820 -18.148  0.00  0.00    -0.203 F 
ATOM      3  C   UNL     1      35.619 -19.750 -21.592  0.00  0.00    +0.066 C 
ATOM      4  C   UNL     1      34.661 -20.556 -20.979  0.00  0.00    +0.028 C 
ATOM      5  C   UNL     1      36.897 -19.644 -21.043  0.00  0.00    +0.064 C 
ATOM      6  C   UNL     1      34.980 -21.256 -19.816  0.00  0.00    +0.153 C 
ATOM      7  C   UNL     1      37.216 -20.344 -19.879  0.00  0.00    +0.043 C 
ATOM      8  C   UNL     1      36.257 -21.151 -19.265  0.00  0.00    +0.160 C 
ENDROOT
BRANCH   3  19
ATOM      9  O   UNL     1      35.222 -19.694 -23.853  0.00  0.00    -0.270 OA
ATOM     10  N   UNL     1      33.634 -15.161 -22.527  0.00  0.00    +0.391 N 
ATOM     11  N   UNL     1      34.933 -17.672 -22.714  0.00  0.00    -0.280 N 
ATOM     12  C   UNL     1      33.824 -15.983 -21.328  0.00  0.00    -0.038 C 
ATOM     13  C   UNL     1      33.904 -14.915 -20.251  0.00  0.00    -0.021 C 
ATOM     14  C   UNL     1      32.579 -14.218 -22.177  0.00  0.00    -0.077 C 
ATOM     15  C   UNL     1      35.055 -16.863 -21.485  0.00  0.00    +0.073 C 
ATOM     16  C   UNL     1      32.918 -13.845 -20.733  0.00  0.00    -0.025 C 
ATOM     17  C   UNL     1      33.360 -15.995 -23.690  0.00  0.00    -0.055 C 
ATOM     18  C   UNL     1      34.557 -16.927 -23.924  0.00  0.00    +0.071 C 
ATOM     19  C   UNL     1      35.238 -19.032 -22.815  0.00  0.00    +0.250 C 
ATOM     20  H   UNL     1      34.467 -14.642 -22.804  0.00  0.00    -0.079 HD
ENDBRANCH   3  19
BRANCH   6  21
ATOM     21  S   UNL     1      33.776 -22.265 -19.050  0.00  0.00    +0.076 S 
ATOM     22  O   UNL     1      32.545 -21.492 -18.951  0.00  0.00    -0.150 OA
ATOM     23  O   UNL     1      33.744 -23.552 -19.736  0.00  0.00    -0.150 OA
BRANCH  21  24
ATOM     24  N   UNL     1      34.408 -22.473 -17.461  0.00  0.00    -0.213 N 
ATOM     25  H   UNL     1      35.315 -22.165 -17.232  0.00  0.00    +0.174 HD
BRANCH  24  27
ATOM     26  F   UNL     1      35.469 -23.648 -15.155  0.00  0.00    -0.203 F 
ATOM     27  C   UNL     1      33.572 -23.108 -16.479  0.00  0.00    +0.092 C 
ATOM     28  C   UNL     1      34.141 -23.682 -15.342  0.00  0.00    +0.155 C 
ATOM     29  C   UNL     1      32.190 -23.152 -16.664  0.00  0.00    +0.018 C 
ATOM     30  C   UNL     1      33.329 -24.299 -14.390  0.00  0.00    +0.031 C 
ATOM     31  C   UNL     1      31.378 -23.767 -15.712  0.00  0.00    +0.001 C 
ATOM     32  C   UNL     1      31.947 -24.341 -14.575  0.00  0.00    +0.002 C 
ENDBRANCH  24  27
ENDBRANCH  21  24
ENDBRANCH   6  21
TORSDOF 4
ENDMDL
MODEL 6
REMARK VINA RESULT:      -9.8      4.727      9.332
REMARK  Name = 46851313
REMARK  4 active torsions:
REMARK  status: ('A' for Active; 'I' for Inactive)
REMARK    1  A    between atoms: C_3  and  C_19
REMARK    2  A    between atoms: C_6  and  S_21
REMARK    3  A    between atoms: S_21  and  N_24
REMARK    4  A    between atoms: N_24  and  C_27
REMARK                            x       y       z     vdW  Elec       q    Type
REMARK                         _______ _______ _______ _____ _____    ______ ____
ROOT
ATOM      1 CL   UNL     1      32.728 -13.992 -27.361  0.00  0.00    -0.082 Cl
ATOM      2  F   UNL     1      34.037 -18.086 -24.711  0.00  0.00    -0.203 F 
ATOM      3  C   UNL     1      33.792 -13.965 -24.849  0.00  0.00    +0.066 C 
ATOM      4  C   UNL     1      34.301 -14.592 -23.712  0.00  0.00    +0.028 C 
ATOM      5  C   UNL     1      33.367 -14.729 -25.937  0.00  0.00    +0.064 C 
ATOM      6  C   UNL     1      34.386 -15.983 -23.662  0.00  0.00    +0.153 C 
ATOM      7  C   UNL     1      33.452 -16.121 -25.887  0.00  0.00    +0.043 C 
ATOM      8  C   UNL     1      33.962 -16.748 -24.749  0.00  0.00    +0.160 C 
ENDROOT
BRANCH   3  19
ATOM      9  O   UNL     1      33.948 -11.948 -25.934  0.00  0.00    -0.270 OA
ATOM     10  N   UNL     1      32.135 -10.485 -21.530  0.00  0.00    +0.391 N 
ATOM     11  N   UNL     1      33.416 -11.846 -23.659  0.00  0.00    -0.280 N 
ATOM     12  C   UNL     1      32.024 -11.942 -21.645  0.00  0.00    -0.038 C 
ATOM     13  C   UNL     1      31.853 -12.339 -20.189  0.00  0.00    -0.021 C 
ATOM     14  C   UNL     1      31.036 -10.088 -20.658  0.00  0.00    -0.077 C 
ATOM     15  C   UNL     1      33.247 -12.508 -22.350  0.00  0.00    +0.073 C 
ATOM     16  C   UNL     1      31.023 -11.193 -19.600  0.00  0.00    -0.025 C 
ATOM     17  C   UNL     1      32.139  -9.859 -22.846  0.00  0.00    -0.055 C 
ATOM     18  C   UNL     1      33.348 -10.378 -23.636  0.00  0.00    +0.071 C 
ATOM     19  C   UNL     1      33.722 -12.498 -24.857  0.00  0.00    +0.250 C 
ATOM     20  H   UNL     1      33.014 -10.173 -21.121  0.00  0.00    -0.079 HD
ENDBRANCH   3  19
BRANCH   6  21
ATOM     21  S   UNL     1      35.023 -16.765 -22.236  0.00  0.00    +0.076 S 
ATOM     22  O   UNL     1      36.263 -17.433 -22.612  0.00  0.00    -0.150 OA
ATOM     23  O   UNL     1      35.051 -15.796 -21.147  0.00  0.00    -0.150 OA
BRANCH  21  24
ATOM     24  N   UNL     1      33.842 -17.974 -21.904  0.00  0.00    -0.213 N 
ATOM     25  H   UNL     1      32.917 -17.881 -22.227  0.00  0.00    +0.174 HD
BRANCH  24  27
ATOM     26  F   UNL     1      31.982 -19.660 -20.671  0.00  0.00    -0.203 F 
ATOM     27  C   UNL     1      34.247 -19.124 -21.141  0.00  0.00    +0.092 C 
ATOM     28  C   UNL     1      33.287 -19.940 -20.543  0.00  0.00    +0.155 C 
ATOM     29  C   UNL     1      35.603 -19.423 -20.999  0.00  0.00    +0.018 C 
ATOM     30  C   UNL     1      33.682 -21.054 -19.802  0.00  0.00    +0.031 C 
ATOM     31  C   UNL     1      35.997 -20.538 -20.260  0.00  0.00    +0.001 C 
ATOM     32  C   UNL     1      35.037 -21.353 -19.661  0.00  0.00    +0.002 C 
ENDBRANCH  24  27
ENDBRANCH  21  24
ENDBRANCH   6  21
TORSDOF 4
ENDMDL
MODEL 7
REMARK VINA RESULT:      -9.5      3.042      4.547
REMARK  Name = 46851313
REMARK  4 active torsions:
REMARK  status: ('A' for Active; 'I' for Inactive)
REMARK    1  A    between atoms: C_3  and  C_19
REMARK    2  A    between atoms: C_6  and  S_21
REMARK    3  A    between atoms: S_21  and  N_24
REMARK    4  A    between atoms: N_24  and  C_27
REMARK                            x       y       z     vdW  Elec       q    Type
REMARK                         _______ _______ _______ _____ _____    ______ ____
ROOT
ATOM      1 CL   UNL     1      32.523 -10.362 -19.090  0.00  0.00    -0.082 Cl
ATOM      2  F   UNL     1      32.000  -5.658 -20.851  0.00  0.00    -0.203 F 
ATOM      3  C   UNL     1      31.747  -9.708 -21.623  0.00  0.00    +0.066 C 
ATOM      4  C   UNL     1      31.441  -8.790 -22.627  0.00  0.00    +0.028 C 
ATOM      5  C   UNL     1      32.138  -9.258 -20.361  0.00  0.00    +0.064 C 
ATOM      6  C   UNL     1      31.525  -7.422 -22.370  0.00  0.00    +0.153 C 
ATOM      7  C   UNL     1      32.223  -7.889 -20.105  0.00  0.00    +0.043 C 
ATOM      8  C   UNL     1      31.917  -6.971 -21.109  0.00  0.00    +0.160 C 
ENDROOT
BRANCH   3  19
ATOM      9  O   UNL     1      30.778 -11.768 -21.334  0.00  0.00    -0.270 OA
ATOM     10  N   UNL     1      33.742 -12.686 -25.232  0.00  0.00    +0.391 N 
ATOM     11  N   UNL     1      32.528 -11.671 -22.882  0.00  0.00    -0.280 N 
ATOM     12  C   UNL     1      33.652 -11.239 -25.016  0.00  0.00    -0.038 C 
ATOM     13  C   UNL     1      34.872 -10.752 -25.777  0.00  0.00    -0.021 C 
ATOM     14  C   UNL     1      33.977 -12.842 -26.662  0.00  0.00    -0.077 C 
ATOM     15  C   UNL     1      33.630 -10.930 -23.527  0.00  0.00    +0.073 C 
ATOM     16  C   UNL     1      34.951 -11.705 -26.975  0.00  0.00    -0.025 C 
ATOM     17  C   UNL     1      32.557 -13.362 -24.719  0.00  0.00    -0.055 C 
ATOM     18  C   UNL     1      32.452 -13.101 -23.211  0.00  0.00    +0.071 C 
ATOM     19  C   UNL     1      31.644 -11.138 -21.939  0.00  0.00    +0.250 C 
ATOM     20  H   UNL     1      34.503 -13.129 -24.719  0.00  0.00    -0.079 HD
ENDBRANCH   3  19
BRANCH   6  21
ATOM     21  S   UNL     1      31.141  -6.275 -23.630  0.00  0.00    +0.076 S 
ATOM     22  O   UNL     1      30.562  -7.016 -24.744  0.00  0.00    -0.150 OA
ATOM     23  O   UNL     1      30.378  -5.179 -23.045  0.00  0.00    -0.150 OA
BRANCH  21  24
ATOM     24  N   UNL     1      32.692  -5.705 -24.115  0.00  0.00    -0.213 N 
ATOM     25  H   UNL     1      33.481  -5.830 -23.538  0.00  0.00    +0.174 HD
BRANCH  24  27
ATOM     26  F   UNL     1      34.756  -6.289 -25.911  0.00  0.00    -0.203 F 
ATOM     27  C   UNL     1      32.803  -5.043 -25.386  0.00  0.00    +0.092 C 
ATOM     28  C   UNL     1      33.848  -5.363 -26.253  0.00  0.00    +0.155 C 
ATOM     29  C   UNL     1      31.865  -4.077 -25.752  0.00  0.00    +0.018 C 
ATOM     30  C   UNL     1      33.955  -4.719 -27.486  0.00  0.00    +0.031 C 
ATOM     31  C   UNL     1      31.971  -3.433 -26.984  0.00  0.00    +0.001 C 
ATOM     32  C   UNL     1      33.016  -3.753 -27.851  0.00  0.00    +0.002 C 
ENDBRANCH  24  27
ENDBRANCH  21  24
ENDBRANCH   6  21
TORSDOF 4
ENDMDL
MODEL 8
REMARK VINA RESULT:      -9.2     11.049     14.910
REMARK  Name = 46851313
REMARK  4 active torsions:
REMARK  status: ('A' for Active; 'I' for Inactive)
REMARK    1  A    between atoms: C_3  and  C_19
REMARK    2  A    between atoms: C_6  and  S_21
REMARK    3  A    between atoms: S_21  and  N_24
REMARK    4  A    between atoms: N_24  and  C_27
REMARK                            x       y       z     vdW  Elec       q    Type
REMARK                         _______ _______ _______ _____ _____    ______ ____
ROOT
ATOM      1 CL   UNL     1      31.640 -24.363 -14.641  0.00  0.00    -0.082 Cl
ATOM      2  F   UNL     1      32.770 -22.548 -19.215  0.00  0.00    -0.203 F 
ATOM      3  C   UNL     1      34.075 -23.386 -15.387  0.00  0.00    +0.066 C 
ATOM      4  C   UNL     1      34.955 -22.824 -16.312  0.00  0.00    +0.028 C 
ATOM      5  C   UNL     1      32.759 -23.664 -15.755  0.00  0.00    +0.064 C 
ATOM      6  C   UNL     1      34.517 -22.539 -17.606  0.00  0.00    +0.153 C 
ATOM      7  C   UNL     1      32.321 -23.379 -17.049  0.00  0.00    +0.043 C 
ATOM      8  C   UNL     1      33.201 -22.816 -17.975  0.00  0.00    +0.160 C 
ENDROOT
BRANCH   3  19
ATOM      9  O   UNL     1      33.735 -23.761 -13.148  0.00  0.00    -0.270 OA
ATOM     10  N   UNL     1      38.597 -24.781 -13.520  0.00  0.00    +0.391 N 
ATOM     11  N   UNL     1      35.961 -23.802 -13.864  0.00  0.00    -0.280 N 
ATOM     12  C   UNL     1      38.010 -24.702 -14.861  0.00  0.00    -0.038 C 
ATOM     13  C   UNL     1      39.250 -24.496 -15.712  0.00  0.00    -0.021 C 
ATOM     14  C   UNL     1      39.710 -25.713 -13.648  0.00  0.00    -0.077 C 
ATOM     15  C   UNL     1      36.974 -23.589 -14.916  0.00  0.00    +0.073 C 
ATOM     16  C   UNL     1      40.316 -25.339 -15.003  0.00  0.00    -0.025 C 
ATOM     17  C   UNL     1      37.589 -25.150 -12.534  0.00  0.00    -0.055 C 
ATOM     18  C   UNL     1      36.493 -24.077 -12.521  0.00  0.00    +0.071 C 
ATOM     19  C   UNL     1      34.580 -23.668 -14.037  0.00  0.00    +0.250 C 
ATOM     20  H   UNL     1      38.947 -23.889 -13.173  0.00  0.00    -0.079 HD
ENDBRANCH   3  19
BRANCH   6  21
ATOM     21  S   UNL     1      35.621 -21.835 -18.762  0.00  0.00    +0.076 S 
ATOM     22  O   UNL     1      36.826 -21.441 -18.043  0.00  0.00    -0.150 OA
ATOM     23  O   UNL     1      35.747 -22.741 -19.897  0.00  0.00    -0.150 OA
BRANCH  21  24
ATOM     24  N   UNL     1      34.798 -20.404 -19.253  0.00  0.00    -0.213 N 
ATOM     25  H   UNL     1      34.096 -20.005 -18.690  0.00  0.00    +0.174 HD
BRANCH  24  27
ATOM     26  F   UNL     1      32.962 -20.105 -21.342  0.00  0.00    -0.203 F 
ATOM     27  C   UNL     1      35.167 -19.809 -20.509  0.00  0.00    +0.092 C 
ATOM     28  C   UNL     1      34.220 -19.677 -21.525  0.00  0.00    +0.155 C 
ATOM     29  C   UNL     1      36.473 -19.363 -20.711  0.00  0.00    +0.018 C 
ATOM     30  C   UNL     1      34.580 -19.101 -22.744  0.00  0.00    +0.031 C 
ATOM     31  C   UNL     1      36.832 -18.785 -21.929  0.00  0.00    +0.001 C 
ATOM     32  C   UNL     1      35.886 -18.654 -22.945  0.00  0.00    +0.002 C 
ENDBRANCH  24  27
ENDBRANCH  21  24
ENDBRANCH   6  21
TORSDOF 4
ENDMDL
