MODEL 1
REMARK VINA RESULT:      -9.0      0.000      0.000
REMARK  Name = 9895264
REMARK  9 active torsions:
REMARK  status: ('A' for Active; 'I' for Inactive)
REMARK    1  A    between atoms: C_1  and  C_2
REMARK    2  A    between atoms: C_1  and  O_14
REMARK    3  A    between atoms: C_1  and  C_16
REMARK    4  A    between atoms: C_5  and  O_8
REMARK    5  A    between atoms: C_6  and  O_10
REMARK    6  A    between atoms: C_7  and  O_12
REMARK    7  A    between atoms: C_16  and  C_17
REMARK    8  A    between atoms: C_20  and  O_25
REMARK    9  A    between atoms: C_22  and  O_23
REMARK                            x       y       z     vdW  Elec       q    Type
REMARK                         _______ _______ _______ _____ _____    ______ ____
ROOT
ATOM      1  C   UNL     1      33.689 -22.867 -18.847  0.00  0.00    +0.137 C 
ENDROOT
BRANCH   1   2
ATOM      2  C   UNL     1      33.245 -23.105 -17.422  0.00  0.00    +0.011 C 
ATOM      3  C   UNL     1      31.919 -22.893 -17.083  0.00  0.00    +0.038 C 
ATOM      4  C   UNL     1      34.173 -23.529 -16.485  0.00  0.00    +0.038 C 
ATOM      5  C   UNL     1      33.763 -23.747 -15.171  0.00  0.00    +0.175 C 
ATOM      6  C   UNL     1      31.510 -23.111 -15.767  0.00  0.00    +0.175 C 
ATOM      7  C   UNL     1      32.432 -23.538 -14.811  0.00  0.00    +0.206 C 
BRANCH   5   8
ATOM      8  O   UNL     1      34.673 -24.165 -14.246  0.00  0.00    -0.468 OA
ATOM      9  C   UNL     1      35.695 -25.053 -14.697  0.00  0.00    +0.253 C 
ENDBRANCH   5   8
BRANCH   6  10
ATOM     10  O   UNL     1      30.207 -22.902 -15.428  0.00  0.00    -0.468 OA
ATOM     11  C   UNL     1      29.262 -22.850 -16.495  0.00  0.00    +0.253 C 
ENDBRANCH   6  10
BRANCH   7  12
ATOM     12  O   UNL     1      32.032 -23.751 -13.525  0.00  0.00    -0.465 OA
ATOM     13  C   UNL     1      31.389 -24.992 -13.244  0.00  0.00    +0.253 C 
ENDBRANCH   7  12
ENDBRANCH   1   2
BRANCH   1  14
ATOM     14  O   UNL     1      33.912 -24.136 -19.467  0.00  0.00    -0.380 OA
ATOM     15  H   UNL     1      34.037 -24.014 -20.421  0.00  0.00    +0.211 HD
ENDBRANCH   1  14
BRANCH   1  16
ATOM     16  C   UNL     1      34.970 -22.011 -18.948  0.00  0.00    +0.060 C 
BRANCH  16  17
ATOM     17  C   UNL     1      34.855 -20.851 -19.879  0.00  0.00    -0.016 C 
ATOM     18  C   UNL     1      36.006 -20.242 -20.379  0.00  0.00    +0.036 C 
ATOM     19  C   UNL     1      33.597 -20.377 -20.248  0.00  0.00    -0.001 C 
ATOM     20  C   UNL     1      35.898 -19.158 -21.249  0.00  0.00    +0.167 C 
ATOM     21  C   UNL     1      33.489 -19.292 -21.119  0.00  0.00    +0.040 C 
ATOM     22  C   UNL     1      34.639 -18.682 -21.619  0.00  0.00    +0.172 C 
BRANCH  22  23
ATOM     23  O   UNL     1      34.521 -17.624 -22.469  0.00  0.00    -0.468 OA
ATOM     24  C   UNL     1      34.373 -16.334 -21.880  0.00  0.00    +0.253 C 
ENDBRANCH  22  23
BRANCH  20  25
ATOM     25  O   UNL     1      37.029 -18.571 -21.732  0.00  0.00    -0.503 OA
ATOM     26  H   UNL     1      36.991 -17.708 -22.094  0.00  0.00    +0.292 HD
ENDBRANCH  20  25
ENDBRANCH  16  17
ENDBRANCH   1  16
TORSDOF 9
ENDMDL
MODEL 2
REMARK VINA RESULT:      -8.9      0.532      2.714
REMARK  Name = 9895264
REMARK  9 active torsions:
REMARK  status: ('A' for Active; 'I' for Inactive)
REMARK    1  A    between atoms: C_1  and  C_2
REMARK    2  A    between atoms: C_1  and  O_14
REMARK    3  A    between atoms: C_1  and  C_16
REMARK    4  A    between atoms: C_5  and  O_8
REMARK    5  A    between atoms: C_6  and  O_10
REMARK    6  A    between atoms: C_7  and  O_12
REMARK    7  A    between atoms: C_16  and  C_17
REMARK    8  A    between atoms: C_20  and  O_25
REMARK    9  A    between atoms: C_22  and  O_23
REMARK                            x       y       z     vdW  Elec       q    Type
REMARK                         _______ _______ _______ _____ _____    ______ ____
ROOT
ATOM      1  C   UNL     1      33.702 -22.836 -18.789  0.00  0.00    +0.137 C 
ENDROOT
BRANCH   1   2
ATOM      2  C   UNL     1      33.240 -23.088 -17.372  0.00  0.00    +0.011 C 
ATOM      3  C   UNL     1      34.157 -23.516 -16.428  0.00  0.00    +0.038 C 
ATOM      4  C   UNL     1      31.908 -22.887 -17.048  0.00  0.00    +0.038 C 
ATOM      5  C   UNL     1      31.482 -23.120 -15.742  0.00  0.00    +0.175 C 
ATOM      6  C   UNL     1      33.731 -23.750 -15.120  0.00  0.00    +0.175 C 
ATOM      7  C   UNL     1      32.393 -23.552 -14.777  0.00  0.00    +0.206 C 
BRANCH   5   8
ATOM      8  O   UNL     1      30.173 -22.922 -15.419  0.00  0.00    -0.468 OA
ATOM      9  C   UNL     1      29.248 -22.810 -16.500  0.00  0.00    +0.253 C 
ENDBRANCH   5   8
BRANCH   6  10
ATOM     10  O   UNL     1      34.629 -24.173 -14.188  0.00  0.00    -0.468 OA
ATOM     11  C   UNL     1      35.703 -24.990 -14.649  0.00  0.00    +0.253 C 
ENDBRANCH   6  10
BRANCH   7  12
ATOM     12  O   UNL     1      31.976 -23.781 -13.500  0.00  0.00    -0.465 OA
ATOM     13  C   UNL     1      31.315 -25.019 -13.247  0.00  0.00    +0.253 C 
ENDBRANCH   7  12
ENDBRANCH   1   2
BRANCH   1  14
ATOM     14  O   UNL     1      33.904 -24.099 -19.428  0.00  0.00    -0.380 OA
ATOM     15  H   UNL     1      34.559 -24.613 -18.931  0.00  0.00    +0.211 HD
ENDBRANCH   1  14
BRANCH   1  16
ATOM     16  C   UNL     1      35.002 -22.007 -18.864  0.00  0.00    +0.060 C 
BRANCH  16  17
ATOM     17  C   UNL     1      34.955 -20.886 -19.847  0.00  0.00    -0.016 C 
ATOM     18  C   UNL     1      36.139 -20.305 -20.300  0.00  0.00    +0.036 C 
ATOM     19  C   UNL     1      33.725 -20.422 -20.313  0.00  0.00    -0.001 C 
ATOM     20  C   UNL     1      36.093 -19.257 -21.219  0.00  0.00    +0.167 C 
ATOM     21  C   UNL     1      33.680 -19.374 -21.233  0.00  0.00    +0.040 C 
ATOM     22  C   UNL     1      34.864 -18.792 -21.687  0.00  0.00    +0.172 C 
BRANCH  22  23
ATOM     23  O   UNL     1      34.807 -17.770 -22.586  0.00  0.00    -0.468 OA
ATOM     24  C   UNL     1      34.773 -18.123 -23.967  0.00  0.00    +0.253 C 
ENDBRANCH  22  23
BRANCH  20  25
ATOM     25  O   UNL     1      37.257 -18.698 -21.655  0.00  0.00    -0.503 OA
ATOM     26  H   UNL     1      38.072 -19.131 -21.498  0.00  0.00    +0.292 HD
ENDBRANCH  20  25
ENDBRANCH  16  17
ENDBRANCH   1  16
TORSDOF 9
ENDMDL
MODEL 3
REMARK VINA RESULT:      -8.9      3.075      9.560
REMARK  Name = 9895264
REMARK  9 active torsions:
REMARK  status: ('A' for Active; 'I' for Inactive)
REMARK    1  A    between atoms: C_1  and  C_2
REMARK    2  A    between atoms: C_1  and  O_14
REMARK    3  A    between atoms: C_1  and  C_16
REMARK    4  A    between atoms: C_5  and  O_8
REMARK    5  A    between atoms: C_6  and  O_10
REMARK    6  A    between atoms: C_7  and  O_12
REMARK    7  A    between atoms: C_16  and  C_17
REMARK    8  A    between atoms: C_20  and  O_25
REMARK    9  A    between atoms: C_22  and  O_23
REMARK                            x       y       z     vdW  Elec       q    Type
REMARK                         _______ _______ _______ _____ _____    ______ ____
ROOT
ATOM      1  C   UNL     1      35.514 -18.090 -21.999  0.00  0.00    +0.137 C 
ENDROOT
BRANCH   1   2
ATOM      2  C   UNL     1      34.839 -16.895 -22.633  0.00  0.00    +0.011 C 
ATOM      3  C   UNL     1      34.336 -15.893 -21.819  0.00  0.00    +0.038 C 
ATOM      4  C   UNL     1      34.738 -16.825 -24.012  0.00  0.00    +0.038 C 
ATOM      5  C   UNL     1      34.115 -15.723 -24.595  0.00  0.00    +0.175 C 
ATOM      6  C   UNL     1      33.712 -14.790 -22.403  0.00  0.00    +0.175 C 
ATOM      7  C   UNL     1      33.602 -14.705 -23.791  0.00  0.00    +0.206 C 
BRANCH   5   8
ATOM      8  O   UNL     1      34.015 -15.650 -25.952  0.00  0.00    -0.468 OA
ATOM      9  C   UNL     1      32.716 -15.830 -26.516  0.00  0.00    +0.253 C 
ENDBRANCH   5   8
BRANCH   6  10
ATOM     10  O   UNL     1      33.213 -13.804 -21.607  0.00  0.00    -0.468 OA
ATOM     11  C   UNL     1      32.564 -14.210 -20.403  0.00  0.00    +0.253 C 
ENDBRANCH   6  10
BRANCH   7  12
ATOM     12  O   UNL     1      32.992 -13.628 -24.361  0.00  0.00    -0.465 OA
ATOM     13  C   UNL     1      33.798 -12.475 -24.592  0.00  0.00    +0.253 C 
ENDBRANCH   7  12
ENDBRANCH   1   2
BRANCH   1  14
ATOM     14  O   UNL     1      36.771 -18.293 -22.648  0.00  0.00    -0.380 OA
ATOM     15  H   UNL     1      37.481 -17.917 -22.105  0.00  0.00    +0.211 HD
ENDBRANCH   1  14
BRANCH   1  16
ATOM     16  C   UNL     1      34.671 -19.380 -22.091  0.00  0.00    +0.060 C 
BRANCH  16  17
ATOM     17  C   UNL     1      34.791 -20.273 -20.903  0.00  0.00    -0.016 C 
ATOM     18  C   UNL     1      33.647 -20.816 -20.319  0.00  0.00    +0.036 C 
ATOM     19  C   UNL     1      36.050 -20.565 -20.377  0.00  0.00    -0.001 C 
ATOM     20  C   UNL     1      33.761 -21.650 -19.207  0.00  0.00    +0.167 C 
ATOM     21  C   UNL     1      36.163 -21.401 -19.265  0.00  0.00    +0.040 C 
ATOM     22  C   UNL     1      35.019 -21.943 -18.680  0.00  0.00    +0.172 C 
BRANCH  22  23
ATOM     23  O   UNL     1      35.143 -22.758 -17.595  0.00  0.00    -0.468 OA
ATOM     24  C   UNL     1      36.162 -22.431 -16.653  0.00  0.00    +0.253 C 
ENDBRANCH  22  23
BRANCH  20  25
ATOM     25  O   UNL     1      32.635 -22.174 -18.645  0.00  0.00    -0.503 OA
ATOM     26  H   UNL     1      31.854 -21.661 -18.596  0.00  0.00    +0.292 HD
ENDBRANCH  20  25
ENDBRANCH  16  17
ENDBRANCH   1  16
TORSDOF 9
ENDMDL
MODEL 4
REMARK VINA RESULT:      -8.8      3.066      9.487
REMARK  Name = 9895264
REMARK  9 active torsions:
REMARK  status: ('A' for Active; 'I' for Inactive)
REMARK    1  A    between atoms: C_1  and  C_2
REMARK    2  A    between atoms: C_1  and  O_14
REMARK    3  A    between atoms: C_1  and  C_16
REMARK    4  A    between atoms: C_5  and  O_8
REMARK    5  A    between atoms: C_6  and  O_10
REMARK    6  A    between atoms: C_7  and  O_12
REMARK    7  A    between atoms: C_16  and  C_17
REMARK    8  A    between atoms: C_20  and  O_25
REMARK    9  A    between atoms: C_22  and  O_23
REMARK                            x       y       z     vdW  Elec       q    Type
REMARK                         _______ _______ _______ _____ _____    ______ ____
ROOT
ATOM      1  C   UNL     1      35.556 -18.094 -21.939  0.00  0.00    +0.137 C 
ENDROOT
BRANCH   1   2
ATOM      2  C   UNL     1      34.867 -16.885 -22.530  0.00  0.00    +0.011 C 
ATOM      3  C   UNL     1      34.787 -16.759 -23.907  0.00  0.00    +0.038 C 
ATOM      4  C   UNL     1      34.331 -15.929 -21.683  0.00  0.00    +0.038 C 
ATOM      5  C   UNL     1      33.696 -14.815 -22.229  0.00  0.00    +0.175 C 
ATOM      6  C   UNL     1      34.152 -15.643 -24.453  0.00  0.00    +0.175 C 
ATOM      7  C   UNL     1      33.607 -14.671 -23.614  0.00  0.00    +0.206 C 
BRANCH   5   8
ATOM      8  O   UNL     1      33.167 -13.872 -21.399  0.00  0.00    -0.468 OA
ATOM      9  C   UNL     1      32.432 -14.342 -20.269  0.00  0.00    +0.253 C 
ENDBRANCH   5   8
BRANCH   6  10
ATOM     10  O   UNL     1      34.072 -15.513 -25.806  0.00  0.00    -0.468 OA
ATOM     11  C   UNL     1      32.784 -15.674 -26.396  0.00  0.00    +0.253 C 
ENDBRANCH   6  10
BRANCH   7  12
ATOM     12  O   UNL     1      32.987 -13.580 -24.147  0.00  0.00    -0.465 OA
ATOM     13  C   UNL     1      33.794 -12.429 -24.386  0.00  0.00    +0.253 C 
ENDBRANCH   7  12
ENDBRANCH   1   2
BRANCH   1  14
ATOM     14  O   UNL     1      36.794 -18.288 -22.628  0.00  0.00    -0.380 OA
ATOM     15  H   UNL     1      36.677 -18.082 -23.568  0.00  0.00    +0.211 HD
ENDBRANCH   1  14
BRANCH   1  16
ATOM     16  C   UNL     1      34.708 -19.380 -22.031  0.00  0.00    +0.060 C 
BRANCH  16  17
ATOM     17  C   UNL     1      34.835 -20.279 -20.847  0.00  0.00    -0.016 C 
ATOM     18  C   UNL     1      33.693 -20.830 -20.264  0.00  0.00    +0.036 C 
ATOM     19  C   UNL     1      36.095 -20.570 -20.326  0.00  0.00    -0.001 C 
ATOM     20  C   UNL     1      33.813 -21.670 -19.158  0.00  0.00    +0.167 C 
ATOM     21  C   UNL     1      36.214 -21.411 -19.219  0.00  0.00    +0.040 C 
ATOM     22  C   UNL     1      35.074 -21.962 -18.635  0.00  0.00    +0.172 C 
BRANCH  22  23
ATOM     23  O   UNL     1      35.203 -22.782 -17.555  0.00  0.00    -0.468 OA
ATOM     24  C   UNL     1      36.187 -22.426 -16.586  0.00  0.00    +0.253 C 
ENDBRANCH  22  23
BRANCH  20  25
ATOM     25  O   UNL     1      32.691 -22.202 -18.596  0.00  0.00    -0.503 OA
ATOM     26  H   UNL     1      32.179 -22.824 -19.074  0.00  0.00    +0.292 HD
ENDBRANCH  20  25
ENDBRANCH  16  17
ENDBRANCH   1  16
TORSDOF 9
ENDMDL
MODEL 5
REMARK VINA RESULT:      -8.8      1.472      2.301
REMARK  Name = 9895264
REMARK  9 active torsions:
REMARK  status: ('A' for Active; 'I' for Inactive)
REMARK    1  A    between atoms: C_1  and  C_2
REMARK    2  A    between atoms: C_1  and  O_14
REMARK    3  A    between atoms: C_1  and  C_16
REMARK    4  A    between atoms: C_5  and  O_8
REMARK    5  A    between atoms: C_6  and  O_10
REMARK    6  A    between atoms: C_7  and  O_12
REMARK    7  A    between atoms: C_16  and  C_17
REMARK    8  A    between atoms: C_20  and  O_25
REMARK    9  A    between atoms: C_22  and  O_23
REMARK                            x       y       z     vdW  Elec       q    Type
REMARK                         _______ _______ _______ _____ _____    ______ ____
ROOT
ATOM      1  C   UNL     1      32.961 -22.515 -17.526  0.00  0.00    +0.137 C 
ENDROOT
BRANCH   1   2
ATOM      2  C   UNL     1      33.593 -23.121 -16.293  0.00  0.00    +0.011 C 
ATOM      3  C   UNL     1      32.778 -23.638 -15.301  0.00  0.00    +0.038 C 
ATOM      4  C   UNL     1      34.973 -23.145 -16.182  0.00  0.00    +0.038 C 
ATOM      5  C   UNL     1      35.555 -23.703 -15.044  0.00  0.00    +0.175 C 
ATOM      6  C   UNL     1      33.360 -24.196 -14.162  0.00  0.00    +0.175 C 
ATOM      7  C   UNL     1      34.749 -24.228 -14.034  0.00  0.00    +0.206 C 
BRANCH   5   8
ATOM      8  O   UNL     1      36.913 -23.730 -14.931  0.00  0.00    -0.468 OA
ATOM      9  C   UNL     1      37.654 -22.888 -15.814  0.00  0.00    +0.253 C 
ENDBRANCH   5   8
BRANCH   6  10
ATOM     10  O   UNL     1      32.563 -24.704 -13.182  0.00  0.00    -0.468 OA
ATOM     11  C   UNL     1      31.220 -25.025 -13.543  0.00  0.00    +0.253 C 
ENDBRANCH   6  10
BRANCH   7  12
ATOM     12  O   UNL     1      35.319 -24.773 -12.922  0.00  0.00    -0.465 OA
ATOM     13  C   UNL     1      35.596 -23.889 -11.838  0.00  0.00    +0.253 C 
ENDBRANCH   7  12
ENDBRANCH   1   2
BRANCH   1  14
ATOM     14  O   UNL     1      31.649 -23.062 -17.673  0.00  0.00    -0.380 OA
ATOM     15  H   UNL     1      31.602 -23.919 -17.221  0.00  0.00    +0.211 HD
ENDBRANCH   1  14
BRANCH   1  16
ATOM     16  C   UNL     1      33.775 -22.772 -18.812  0.00  0.00    +0.060 C 
BRANCH  16  17
ATOM     17  C   UNL     1      34.097 -21.538 -19.585  0.00  0.00    -0.016 C 
ATOM     18  C   UNL     1      35.426 -21.151 -19.760  0.00  0.00    +0.036 C 
ATOM     19  C   UNL     1      33.069 -20.772 -20.135  0.00  0.00    -0.001 C 
ATOM     20  C   UNL     1      35.727 -19.997 -20.483  0.00  0.00    +0.167 C 
ATOM     21  C   UNL     1      33.370 -19.618 -20.859  0.00  0.00    +0.040 C 
ATOM     22  C   UNL     1      34.699 -19.230 -21.033  0.00  0.00    +0.172 C 
BRANCH  22  23
ATOM     23  O   UNL     1      34.980 -18.102 -21.743  0.00  0.00    -0.468 OA
ATOM     24  C   UNL     1      34.934 -16.864 -21.036  0.00  0.00    +0.253 C 
ENDBRANCH  22  23
BRANCH  20  25
ATOM     25  O   UNL     1      37.029 -19.629 -20.646  0.00  0.00    -0.503 OA
ATOM     26  H   UNL     1      37.659 -20.256 -20.938  0.00  0.00    +0.292 HD
ENDBRANCH  20  25
ENDBRANCH  16  17
ENDBRANCH   1  16
TORSDOF 9
ENDMDL
MODEL 6
REMARK VINA RESULT:      -8.7      1.542      3.201
REMARK  Name = 9895264
REMARK  9 active torsions:
REMARK  status: ('A' for Active; 'I' for Inactive)
REMARK    1  A    between atoms: C_1  and  C_2
REMARK    2  A    between atoms: C_1  and  O_14
REMARK    3  A    between atoms: C_1  and  C_16
REMARK    4  A    between atoms: C_5  and  O_8
REMARK    5  A    between atoms: C_6  and  O_10
REMARK    6  A    between atoms: C_7  and  O_12
REMARK    7  A    between atoms: C_16  and  C_17
REMARK    8  A    between atoms: C_20  and  O_25
REMARK    9  A    between atoms: C_22  and  O_23
REMARK                            x       y       z     vdW  Elec       q    Type
REMARK                         _______ _______ _______ _____ _____    ______ ____
ROOT
ATOM      1  C   UNL     1      32.911 -22.523 -17.530  0.00  0.00    +0.137 C 
ENDROOT
BRANCH   1   2
ATOM      2  C   UNL     1      33.565 -23.133 -16.312  0.00  0.00    +0.011 C 
ATOM      3  C   UNL     1      34.947 -23.142 -16.219  0.00  0.00    +0.038 C 
ATOM      4  C   UNL     1      32.770 -23.671 -15.314  0.00  0.00    +0.038 C 
ATOM      5  C   UNL     1      33.374 -24.234 -14.190  0.00  0.00    +0.175 C 
ATOM      6  C   UNL     1      35.551 -23.706 -15.095  0.00  0.00    +0.175 C 
ATOM      7  C   UNL     1      34.764 -24.252 -14.081  0.00  0.00    +0.206 C 
BRANCH   5   8
ATOM      8  O   UNL     1      32.594 -24.763 -13.205  0.00  0.00    -0.468 OA
ATOM      9  C   UNL     1      31.240 -25.062 -13.540  0.00  0.00    +0.253 C 
ENDBRANCH   5   8
BRANCH   6  10
ATOM     10  O   UNL     1      36.910 -23.718 -15.001  0.00  0.00    -0.468 OA
ATOM     11  C   UNL     1      37.625 -22.816 -15.843  0.00  0.00    +0.253 C 
ENDBRANCH   6  10
BRANCH   7  12
ATOM     12  O   UNL     1      35.354 -24.803 -12.983  0.00  0.00    -0.465 OA
ATOM     13  C   UNL     1      35.645 -23.928 -11.896  0.00  0.00    +0.253 C 
ENDBRANCH   7  12
ENDBRANCH   1   2
BRANCH   1  14
ATOM     14  O   UNL     1      31.591 -23.059 -17.648  0.00  0.00    -0.380 OA
ATOM     15  H   UNL     1      31.484 -23.469 -18.521  0.00  0.00    +0.211 HD
ENDBRANCH   1  14
BRANCH   1  16
ATOM     16  C   UNL     1      33.694 -22.788 -18.834  0.00  0.00    +0.060 C 
BRANCH  16  17
ATOM     17  C   UNL     1      34.057 -21.553 -19.588  0.00  0.00    -0.016 C 
ATOM     18  C   UNL     1      35.397 -21.192 -19.731  0.00  0.00    +0.036 C 
ATOM     19  C   UNL     1      33.056 -20.761 -20.150  0.00  0.00    -0.001 C 
ATOM     20  C   UNL     1      35.735 -20.037 -20.435  0.00  0.00    +0.167 C 
ATOM     21  C   UNL     1      33.395 -19.606 -20.856  0.00  0.00    +0.040 C 
ATOM     22  C   UNL     1      34.735 -19.244 -20.998  0.00  0.00    +0.172 C 
BRANCH  22  23
ATOM     23  O   UNL     1      35.053 -18.114 -21.690  0.00  0.00    -0.468 OA
ATOM     24  C   UNL     1      35.140 -18.226 -23.109  0.00  0.00    +0.253 C 
ENDBRANCH  22  23
BRANCH  20  25
ATOM     25  O   UNL     1      37.048 -19.694 -20.568  0.00  0.00    -0.503 OA
ATOM     26  H   UNL     1      37.577 -20.112 -21.217  0.00  0.00    +0.292 HD
ENDBRANCH  20  25
ENDBRANCH  16  17
ENDBRANCH   1  16
TORSDOF 9
ENDMDL
MODEL 7
REMARK VINA RESULT:      -8.7      3.100      9.829
REMARK  Name = 9895264
REMARK  9 active torsions:
REMARK  status: ('A' for Active; 'I' for Inactive)
REMARK    1  A    between atoms: C_1  and  C_2
REMARK    2  A    between atoms: C_1  and  O_14
REMARK    3  A    between atoms: C_1  and  C_16
REMARK    4  A    between atoms: C_5  and  O_8
REMARK    5  A    between atoms: C_6  and  O_10
REMARK    6  A    between atoms: C_7  and  O_12
REMARK    7  A    between atoms: C_16  and  C_17
REMARK    8  A    between atoms: C_20  and  O_25
REMARK    9  A    between atoms: C_22  and  O_23
REMARK                            x       y       z     vdW  Elec       q    Type
REMARK                         _______ _______ _______ _____ _____    ______ ____
ROOT
ATOM      1  C   UNL     1      34.035 -16.861 -21.057  0.00  0.00    +0.137 C 
ENDROOT
BRANCH   1   2
ATOM      2  C   UNL     1      33.699 -15.688 -21.950  0.00  0.00    +0.011 C 
ATOM      3  C   UNL     1      33.092 -14.572 -21.400  0.00  0.00    +0.038 C 
ATOM      4  C   UNL     1      34.005 -15.754 -23.299  0.00  0.00    +0.038 C 
ATOM      5  C   UNL     1      33.695 -14.672 -24.122  0.00  0.00    +0.175 C 
ATOM      6  C   UNL     1      32.781 -13.489 -22.223  0.00  0.00    +0.175 C 
ATOM      7  C   UNL     1      33.082 -13.540 -23.584  0.00  0.00    +0.206 C 
BRANCH   5   8
ATOM      8  O   UNL     1      33.994 -14.733 -25.450  0.00  0.00    -0.468 OA
ATOM      9  C   UNL     1      33.001 -15.283 -26.314  0.00  0.00    +0.253 C 
ENDBRANCH   5   8
BRANCH   6  10
ATOM     10  O   UNL     1      32.183 -12.390 -21.687  0.00  0.00    -0.468 OA
ATOM     11  C   UNL     1      31.914 -12.419 -20.286  0.00  0.00    +0.253 C 
ENDBRANCH   6  10
BRANCH   7  12
ATOM     12  O   UNL     1      32.778 -12.483 -24.390  0.00  0.00    -0.465 OA
ATOM     13  C   UNL     1      33.809 -11.524 -24.616  0.00  0.00    +0.253 C 
ENDBRANCH   7  12
ENDBRANCH   1   2
BRANCH   1  14
ATOM     14  O   UNL     1      35.144 -16.496 -20.233  0.00  0.00    -0.380 OA
ATOM     15  H   UNL     1      35.352 -17.226 -19.628  0.00  0.00    +0.211 HD
ENDBRANCH   1  14
BRANCH   1  16
ATOM     16  C   UNL     1      34.377 -18.144 -21.845  0.00  0.00    +0.060 C 
BRANCH  16  17
ATOM     17  C   UNL     1      34.394 -19.382 -21.015  0.00  0.00    -0.016 C 
ATOM     18  C   UNL     1      35.610 -19.953 -20.639  0.00  0.00    +0.036 C 
ATOM     19  C   UNL     1      33.194 -19.968 -20.613  0.00  0.00    -0.001 C 
ATOM     20  C   UNL     1      35.625 -21.112 -19.862  0.00  0.00    +0.167 C 
ATOM     21  C   UNL     1      33.210 -21.127 -19.835  0.00  0.00    +0.040 C 
ATOM     22  C   UNL     1      34.425 -21.698 -19.460  0.00  0.00    +0.172 C 
BRANCH  22  23
ATOM     23  O   UNL     1      34.427 -22.829 -18.700  0.00  0.00    -0.468 OA
ATOM     24  C   UNL     1      33.348 -22.995 -17.783  0.00  0.00    +0.253 C 
ENDBRANCH  22  23
BRANCH  20  25
ATOM     25  O   UNL     1      36.820 -21.660 -19.501  0.00  0.00    -0.503 OA
ATOM     26  H   UNL     1      37.446 -21.149 -19.029  0.00  0.00    +0.292 HD
ENDBRANCH  20  25
ENDBRANCH  16  17
ENDBRANCH   1  16
TORSDOF 9
ENDMDL
MODEL 8
REMARK VINA RESULT:      -8.7      3.108      9.859
REMARK  Name = 9895264
REMARK  9 active torsions:
REMARK  status: ('A' for Active; 'I' for Inactive)
REMARK    1  A    between atoms: C_1  and  C_2
REMARK    2  A    between atoms: C_1  and  O_14
REMARK    3  A    between atoms: C_1  and  C_16
REMARK    4  A    between atoms: C_5  and  O_8
REMARK    5  A    between atoms: C_6  and  O_10
REMARK    6  A    between atoms: C_7  and  O_12
REMARK    7  A    between atoms: C_16  and  C_17
REMARK    8  A    between atoms: C_20  and  O_25
REMARK    9  A    between atoms: C_22  and  O_23
REMARK                            x       y       z     vdW  Elec       q    Type
REMARK                         _______ _______ _______ _____ _____    ______ ____
ROOT
ATOM      1  C   UNL     1      34.002 -16.856 -21.004  0.00  0.00    +0.137 C 
ENDROOT
BRANCH   1   2
ATOM      2  C   UNL     1      33.646 -15.676 -21.880  0.00  0.00    +0.011 C 
ATOM      3  C   UNL     1      33.998 -15.698 -23.219  0.00  0.00    +0.038 C 
ATOM      4  C   UNL     1      32.977 -14.599 -21.325  0.00  0.00    +0.038 C 
ATOM      5  C   UNL     1      32.649 -13.511 -22.133  0.00  0.00    +0.175 C 
ATOM      6  C   UNL     1      33.671 -14.609 -24.027  0.00  0.00    +0.175 C 
ATOM      7  C   UNL     1      32.996 -13.516 -23.484  0.00  0.00    +0.206 C 
BRANCH   5   8
ATOM      8  O   UNL     1      31.989 -12.448 -21.591  0.00  0.00    -0.468 OA
ATOM      9  C   UNL     1      31.977 -12.350 -20.168  0.00  0.00    +0.253 C 
ENDBRANCH   5   8
BRANCH   6  10
ATOM     10  O   UNL     1      34.016 -14.626 -25.345  0.00  0.00    -0.468 OA
ATOM     11  C   UNL     1      33.077 -15.199 -26.252  0.00  0.00    +0.253 C 
ENDBRANCH   6  10
BRANCH   7  12
ATOM     12  O   UNL     1      32.677 -12.451 -24.274  0.00  0.00    -0.465 OA
ATOM     13  C   UNL     1      33.662 -11.430 -24.414  0.00  0.00    +0.253 C 
ENDBRANCH   7  12
ENDBRANCH   1   2
BRANCH   1  14
ATOM     14  O   UNL     1      35.130 -16.497 -20.202  0.00  0.00    -0.380 OA
ATOM     15  H   UNL     1      35.836 -16.152 -20.770  0.00  0.00    +0.211 HD
ENDBRANCH   1  14
BRANCH   1  16
ATOM     16  C   UNL     1      34.328 -18.132 -21.810  0.00  0.00    +0.060 C 
BRANCH  16  17
ATOM     17  C   UNL     1      34.359 -19.378 -20.991  0.00  0.00    -0.016 C 
ATOM     18  C   UNL     1      35.581 -19.938 -20.619  0.00  0.00    +0.036 C 
ATOM     19  C   UNL     1      33.165 -19.981 -20.596  0.00  0.00    -0.001 C 
ATOM     20  C   UNL     1      35.609 -21.104 -19.853  0.00  0.00    +0.167 C 
ATOM     21  C   UNL     1      33.193 -21.147 -19.830  0.00  0.00    +0.040 C 
ATOM     22  C   UNL     1      34.415 -21.708 -19.458  0.00  0.00    +0.172 C 
BRANCH  22  23
ATOM     23  O   UNL     1      34.429 -22.846 -18.709  0.00  0.00    -0.468 OA
ATOM     24  C   UNL     1      33.365 -23.020 -17.776  0.00  0.00    +0.253 C 
ENDBRANCH  22  23
BRANCH  20  25
ATOM     25  O   UNL     1      36.809 -21.641 -19.496  0.00  0.00    -0.503 OA
ATOM     26  H   UNL     1      37.549 -21.554 -20.063  0.00  0.00    +0.292 HD
ENDBRANCH  20  25
ENDBRANCH  16  17
ENDBRANCH   1  16
TORSDOF 9
ENDMDL
MODEL 9
REMARK VINA RESULT:      -8.7      4.206     10.405
REMARK  Name = 9895264
REMARK  9 active torsions:
REMARK  status: ('A' for Active; 'I' for Inactive)
REMARK    1  A    between atoms: C_1  and  C_2
REMARK    2  A    between atoms: C_1  and  O_14
REMARK    3  A    between atoms: C_1  and  C_16
REMARK    4  A    between atoms: C_5  and  O_8
REMARK    5  A    between atoms: C_6  and  O_10
REMARK    6  A    between atoms: C_7  and  O_12
REMARK    7  A    between atoms: C_16  and  C_17
REMARK    8  A    between atoms: C_20  and  O_25
REMARK    9  A    between atoms: C_22  and  O_23
REMARK                            x       y       z     vdW  Elec       q    Type
REMARK                         _______ _______ _______ _____ _____    ______ ____
ROOT
ATOM      1  C   UNL     1      33.822 -15.750 -20.919  0.00  0.00    +0.137 C 
ENDROOT
BRANCH   1   2
ATOM      2  C   UNL     1      33.347 -14.461 -21.552  0.00  0.00    +0.011 C 
ATOM      3  C   UNL     1      33.828 -14.104 -22.800  0.00  0.00    +0.038 C 
ATOM      4  C   UNL     1      32.442 -13.665 -20.871  0.00  0.00    +0.038 C 
ATOM      5  C   UNL     1      32.004 -12.477 -21.455  0.00  0.00    +0.175 C 
ATOM      6  C   UNL     1      33.392 -12.915 -23.384  0.00  0.00    +0.175 C 
ATOM      7  C   UNL     1      32.480 -12.101 -22.712  0.00  0.00    +0.206 C 
BRANCH   5   8
ATOM      8  O   UNL     1      31.113 -11.691 -20.788  0.00  0.00    -0.468 OA
ATOM      9  C   UNL     1      31.523 -11.176 -19.522  0.00  0.00    +0.253 C 
ENDBRANCH   5   8
BRANCH   6  10
ATOM     10  O   UNL     1      33.864 -12.558 -24.611  0.00  0.00    -0.468 OA
ATOM     11  C   UNL     1      33.345 -13.268 -25.735  0.00  0.00    +0.253 C 
ENDBRANCH   6  10
BRANCH   7  12
ATOM     12  O   UNL     1      32.053 -10.939 -23.282  0.00  0.00    -0.465 OA
ATOM     13  C   UNL     1      32.845  -9.776 -23.051  0.00  0.00    +0.253 C 
ENDBRANCH   7  12
ENDBRANCH   1   2
BRANCH   1  14
ATOM     14  O   UNL     1      34.921 -15.449 -20.056  0.00  0.00    -0.380 OA
ATOM     15  H   UNL     1      35.047 -16.176 -19.426  0.00  0.00    +0.211 HD
ENDBRANCH   1  14
BRANCH   1  16
ATOM     16  C   UNL     1      34.254 -16.810 -21.955  0.00  0.00    +0.060 C 
BRANCH  16  17
ATOM     17  C   UNL     1      34.601 -18.134 -21.363  0.00  0.00    -0.016 C 
ATOM     18  C   UNL     1      33.589 -19.016 -20.986  0.00  0.00    +0.036 C 
ATOM     19  C   UNL     1      35.939 -18.489 -21.188  0.00  0.00    -0.001 C 
ATOM     20  C   UNL     1      33.914 -20.254 -20.432  0.00  0.00    +0.167 C 
ATOM     21  C   UNL     1      36.264 -19.728 -20.634  0.00  0.00    +0.040 C 
ATOM     22  C   UNL     1      35.252 -20.610 -20.256  0.00  0.00    +0.172 C 
BRANCH  22  23
ATOM     23  O   UNL     1      35.582 -21.817 -19.717  0.00  0.00    -0.468 OA
ATOM     24  C   UNL     1      36.255 -21.803 -18.460  0.00  0.00    +0.253 C 
ENDBRANCH  22  23
BRANCH  20  25
ATOM     25  O   UNL     1      32.917 -21.108 -20.067  0.00  0.00    -0.503 OA
ATOM     26  H   UNL     1      32.171 -20.785 -19.602  0.00  0.00    +0.292 HD
ENDBRANCH  20  25
ENDBRANCH  16  17
ENDBRANCH   1  16
TORSDOF 9
ENDMDL
