MODEL 1
REMARK VINA RESULT:     -10.4      0.000      0.000
REMARK  Name = 60652
REMARK  3 active torsions:
REMARK  status: ('A' for Active; 'I' for Inactive)
REMARK    1  A    between atoms: C_1  and  C_4
REMARK    2  A    between atoms: C_1  and  C_14
REMARK    3  A    between atoms: C_1  and  N_20
REMARK                            x       y       z     vdW  Elec       q    Type
REMARK                         _______ _______ _______ _____ _____    ______ ____
ROOT
ATOM      1  C   UNL     1      35.062 -17.314 -22.258  0.00  0.00    +0.124 C 
ENDROOT
BRANCH   1   4
ATOM      2  N   UNL     1      32.946 -21.138 -19.801  0.00  0.00    -0.315 N 
ATOM      3  N   UNL     1      34.875 -21.966 -19.070  0.00  0.00    -0.315 N 
ATOM      4  C   UNL     1      35.065 -18.544 -21.411  0.00  0.00    +0.001 C 
ATOM      5  C   UNL     1      33.850 -19.156 -21.090  0.00  0.00    +0.013 C 
ATOM      6  C   UNL     1      36.280 -19.060 -20.954  0.00  0.00    -0.001 C 
ATOM      7  C   UNL     1      33.914 -20.302 -20.296  0.00  0.00    +0.059 C 
ATOM      8  C   UNL     1      35.109 -20.840 -19.826  0.00  0.00    +0.059 C 
ATOM      9  C   UNL     1      36.321 -20.211 -20.157  0.00  0.00    +0.015 C 
ATOM     10  C   UNL     1      33.569 -22.115 -19.076  0.00  0.00    +0.182 C 
ATOM     11  H   UNL     1      31.976 -21.049 -19.943  0.00  0.00    +0.148 HD
ATOM     12  H   UNL     1      35.541 -22.536 -18.622  0.00  0.00    +0.148 HD
ENDBRANCH   1   4
BRANCH   1  14
ATOM     13 CL   UNL     1      33.139 -12.566 -23.155  0.00  0.00    -0.082 Cl
ATOM     14  C   UNL     1      34.211 -16.126 -21.775  0.00  0.00    +0.001 C 
ATOM     15  C   UNL     1      34.091 -15.034 -22.598  0.00  0.00    +0.009 C 
ATOM     16  C   UNL     1      33.612 -16.214 -20.544  0.00  0.00    -0.002 C 
ATOM     17  C   UNL     1      33.318 -13.958 -22.160  0.00  0.00    +0.057 C 
ATOM     18  C   UNL     1      32.839 -15.138 -20.106  0.00  0.00    +0.001 C 
ATOM     19  C   UNL     1      32.693 -14.010 -20.914  0.00  0.00    +0.011 C 
ENDBRANCH   1  14
BRANCH   1  20
ATOM     20  N   UNL     1      34.845 -17.586 -23.714  0.00  0.00    -0.262 N 
ATOM     21  N   UNL     1      34.696 -17.212 -25.845  0.00  0.00    -0.225 NA
ATOM     22  C   UNL     1      34.530 -18.782 -24.218  0.00  0.00    +0.088 C 
ATOM     23  C   UNL     1      34.941 -16.665 -24.676  0.00  0.00    +0.168 C 
ATOM     24  C   UNL     1      34.439 -18.531 -25.568  0.00  0.00    +0.117 C 
ENDBRANCH   1  20
TORSDOF 3
ENDMDL
MODEL 2
REMARK VINA RESULT:     -10.1      2.843      4.658
REMARK  Name = 60652
REMARK  3 active torsions:
REMARK  status: ('A' for Active; 'I' for Inactive)
REMARK    1  A    between atoms: C_1  and  C_4
REMARK    2  A    between atoms: C_1  and  C_14
REMARK    3  A    between atoms: C_1  and  N_20
REMARK                            x       y       z     vdW  Elec       q    Type
REMARK                         _______ _______ _______ _____ _____    ______ ____
ROOT
ATOM      1  C   UNL     1      33.883 -13.139 -23.645  0.00  0.00    +0.124 C 
ENDROOT
BRANCH   1   4
ATOM      2  N   UNL     1      35.752 -17.750 -23.024  0.00  0.00    -0.315 N 
ATOM      3  N   UNL     1      35.382 -17.797 -20.833  0.00  0.00    -0.315 N 
ATOM      4  C   UNL     1      34.262 -14.350 -22.856  0.00  0.00    +0.001 C 
ATOM      5  C   UNL     1      34.846 -15.437 -23.512  0.00  0.00    +0.013 C 
ATOM      6  C   UNL     1      34.027 -14.373 -21.479  0.00  0.00    -0.001 C 
ATOM      7  C   UNL     1      35.179 -16.541 -22.724  0.00  0.00    +0.059 C 
ATOM      8  C   UNL     1      34.958 -16.594 -21.351  0.00  0.00    +0.059 C 
ATOM      9  C   UNL     1      34.369 -15.492 -20.708  0.00  0.00    +0.015 C 
ATOM     10  C   UNL     1      35.852 -18.464 -21.862  0.00  0.00    +0.182 C 
ATOM     11  H   UNL     1      36.040 -18.050 -23.917  0.00  0.00    +0.148 HD
ATOM     12  H   UNL     1      35.341 -18.092 -19.895  0.00  0.00    +0.148 HD
ENDBRANCH   1   4
BRANCH   1  14
ATOM     13 CL   UNL     1      32.350  -8.211 -23.010  0.00  0.00    -0.082 Cl
ATOM     14  C   UNL     1      32.926 -12.134 -22.980  0.00  0.00    +0.001 C 
ATOM     15  C   UNL     1      33.073 -10.802 -23.275  0.00  0.00    +0.009 C 
ATOM     16  C   UNL     1      31.969 -12.617 -22.124  0.00  0.00    -0.002 C 
ATOM     17  C   UNL     1      32.204  -9.892 -22.673  0.00  0.00    +0.057 C 
ATOM     18  C   UNL     1      31.100 -11.707 -21.522  0.00  0.00    +0.001 C 
ATOM     19  C   UNL     1      31.218 -10.345 -21.796  0.00  0.00    +0.011 C 
ENDBRANCH   1  14
BRANCH   1  20
ATOM     20  N   UNL     1      33.468 -13.443 -25.051  0.00  0.00    -0.262 N 
ATOM     21  N   UNL     1      32.572 -14.509 -26.714  0.00  0.00    -0.225 NA
ATOM     22  C   UNL     1      33.738 -12.664 -26.101  0.00  0.00    +0.088 C 
ATOM     23  C   UNL     1      32.782 -14.529 -25.416  0.00  0.00    +0.168 C 
ATOM     24  C   UNL     1      33.165 -13.350 -27.147  0.00  0.00    +0.117 C 
ENDBRANCH   1  20
TORSDOF 3
ENDMDL
MODEL 3
REMARK VINA RESULT:      -9.9      4.500      8.683
REMARK  Name = 60652
REMARK  3 active torsions:
REMARK  status: ('A' for Active; 'I' for Inactive)
REMARK    1  A    between atoms: C_1  and  C_4
REMARK    2  A    between atoms: C_1  and  C_14
REMARK    3  A    between atoms: C_1  and  N_20
REMARK                            x       y       z     vdW  Elec       q    Type
REMARK                         _______ _______ _______ _____ _____    ______ ____
ROOT
ATOM      1  C   UNL     1      33.901 -23.518 -16.708  0.00  0.00    +0.124 C 
ENDROOT
BRANCH   1   4
ATOM      2  N   UNL     1      32.752 -20.505 -20.547  0.00  0.00    -0.315 N 
ATOM      3  N   UNL     1      34.864 -19.981 -20.998  0.00  0.00    -0.315 N 
ATOM      4  C   UNL     1      34.208 -22.586 -17.834  0.00  0.00    +0.001 C 
ATOM      5  C   UNL     1      33.157 -22.056 -18.589  0.00  0.00    +0.013 C 
ATOM      6  C   UNL     1      35.537 -22.260 -18.113  0.00  0.00    -0.001 C 
ATOM      7  C   UNL     1      33.503 -21.191 -19.628  0.00  0.00    +0.059 C 
ATOM      8  C   UNL     1      34.818 -20.847 -19.930  0.00  0.00    +0.059 C 
ATOM      9  C   UNL     1      35.862 -21.389 -19.161  0.00  0.00    +0.015 C 
ATOM     10  C   UNL     1      33.610 -19.797 -21.343  0.00  0.00    +0.182 C 
ATOM     11  H   UNL     1      31.770 -20.520 -20.621  0.00  0.00    +0.148 HD
ATOM     12  H   UNL     1      35.664 -19.585 -21.413  0.00  0.00    +0.148 HD
ENDBRANCH   1   4
BRANCH   1  14
ATOM     13 CL   UNL     1      28.738 -22.926 -16.919  0.00  0.00    -0.082 Cl
ATOM     14  C   UNL     1      32.568 -23.314 -15.966  0.00  0.00    +0.001 C 
ATOM     15  C   UNL     1      31.417 -23.227 -16.707  0.00  0.00    +0.009 C 
ATOM     16  C   UNL     1      32.594 -23.228 -14.597  0.00  0.00    -0.002 C 
ATOM     17  C   UNL     1      30.209 -23.043 -16.033  0.00  0.00    +0.057 C 
ATOM     18  C   UNL     1      31.386 -23.045 -13.923  0.00  0.00    +0.001 C 
ATOM     19  C   UNL     1      30.194 -22.951 -14.641  0.00  0.00    +0.011 C 
ENDBRANCH   1  14
BRANCH   1  20
ATOM     20  N   UNL     1      35.037 -23.702 -15.752  0.00  0.00    -0.262 N 
ATOM     21  N   UNL     1      36.526 -24.718 -14.545  0.00  0.00    -0.225 NA
ATOM     22  C   UNL     1      35.682 -22.702 -15.146  0.00  0.00    +0.088 C 
ATOM     23  C   UNL     1      35.537 -24.887 -15.394  0.00  0.00    +0.168 C 
ATOM     24  C   UNL     1      36.621 -23.359 -14.385  0.00  0.00    +0.117 C 
ENDBRANCH   1  20
TORSDOF 3
ENDMDL
MODEL 4
REMARK VINA RESULT:      -9.8      7.001      9.784
REMARK  Name = 60652
REMARK  3 active torsions:
REMARK  status: ('A' for Active; 'I' for Inactive)
REMARK    1  A    between atoms: C_1  and  C_4
REMARK    2  A    between atoms: C_1  and  C_14
REMARK    3  A    between atoms: C_1  and  N_20
REMARK                            x       y       z     vdW  Elec       q    Type
REMARK                         _______ _______ _______ _____ _____    ______ ____
ROOT
ATOM      1  C   UNL     1      34.755 -23.533 -14.809  0.00  0.00    +0.124 C 
ENDROOT
BRANCH   1   4
ATOM      2  N   UNL     1      29.962 -23.292 -16.260  0.00  0.00    -0.315 N 
ATOM      3  N   UNL     1      29.242 -24.739 -14.733  0.00  0.00    -0.315 N 
ATOM      4  C   UNL     1      33.305 -23.884 -14.748  0.00  0.00    +0.001 C 
ATOM      5  C   UNL     1      32.420 -23.296 -15.657  0.00  0.00    +0.013 C 
ATOM      6  C   UNL     1      32.858 -24.794 -13.787  0.00  0.00    -0.001 C 
ATOM      7  C   UNL     1      31.077 -23.662 -15.553  0.00  0.00    +0.059 C 
ATOM      8  C   UNL     1      30.602 -24.565 -14.606  0.00  0.00    +0.059 C 
ATOM      9  C   UNL     1      31.505 -25.147 -13.700  0.00  0.00    +0.015 C 
ATOM     10  C   UNL     1      28.892 -23.962 -15.733  0.00  0.00    +0.182 C 
ATOM     11  H   UNL     1      29.936 -22.658 -17.013  0.00  0.00    +0.148 HD
ATOM     12  H   UNL     1      28.660 -25.319 -14.192  0.00  0.00    +0.148 HD
ENDBRANCH   1   4
BRANCH   1  14
ATOM     13 CL   UNL     1      33.913 -22.230 -19.773  0.00  0.00    -0.082 Cl
ATOM     14  C   UNL     1      35.268 -22.873 -16.102  0.00  0.00    +0.001 C 
ATOM     15  C   UNL     1      34.444 -22.864 -17.199  0.00  0.00    +0.009 C 
ATOM     16  C   UNL     1      36.526 -22.326 -16.097  0.00  0.00    -0.002 C 
ATOM     17  C   UNL     1      34.909 -22.265 -18.370  0.00  0.00    +0.057 C 
ATOM     18  C   UNL     1      36.991 -21.727 -17.268  0.00  0.00    +0.001 C 
ATOM     19  C   UNL     1      36.183 -21.697 -18.404  0.00  0.00    +0.011 C 
ENDBRANCH   1  14
BRANCH   1  20
ATOM     20  N   UNL     1      35.661 -24.636 -14.360  0.00  0.00    -0.262 N 
ATOM     21  N   UNL     1      36.795 -26.483 -14.435  0.00  0.00    -0.225 NA
ATOM     22  C   UNL     1      36.248 -24.689 -13.163  0.00  0.00    +0.088 C 
ATOM     23  C   UNL     1      35.986 -25.695 -15.106  0.00  0.00    +0.168 C 
ATOM     24  C   UNL     1      36.963 -25.863 -13.223  0.00  0.00    +0.117 C 
ENDBRANCH   1  20
TORSDOF 3
ENDMDL
MODEL 5
REMARK VINA RESULT:      -9.7      6.744      9.590
REMARK  Name = 60652
REMARK  3 active torsions:
REMARK  status: ('A' for Active; 'I' for Inactive)
REMARK    1  A    between atoms: C_1  and  C_4
REMARK    2  A    between atoms: C_1  and  C_14
REMARK    3  A    between atoms: C_1  and  N_20
REMARK                            x       y       z     vdW  Elec       q    Type
REMARK                         _______ _______ _______ _____ _____    ______ ____
ROOT
ATOM      1  C   UNL     1      34.233 -22.969 -15.394  0.00  0.00    +0.124 C 
ENDROOT
BRANCH   1   4
ATOM      2  N   UNL     1      38.329 -25.854 -15.227  0.00  0.00    -0.315 N 
ATOM      3  N   UNL     1      38.898 -25.235 -13.169  0.00  0.00    -0.315 N 
ATOM      4  C   UNL     1      35.459 -23.541 -14.761  0.00  0.00    +0.001 C 
ATOM      5  C   UNL     1      36.233 -24.459 -15.477  0.00  0.00    +0.013 C 
ATOM      6  C   UNL     1      35.811 -23.148 -13.468  0.00  0.00    -0.001 C 
ATOM      7  C   UNL     1      37.366 -24.960 -14.835  0.00  0.00    +0.059 C 
ATOM      8  C   UNL     1      37.743 -24.588 -13.548  0.00  0.00    +0.059 C 
ATOM      9  C   UNL     1      36.954 -23.664 -12.843  0.00  0.00    +0.015 C 
ATOM     10  C   UNL     1      39.221 -25.985 -14.198  0.00  0.00    +0.182 C 
ATOM     11  H   UNL     1      38.371 -26.319 -16.094  0.00  0.00    +0.148 HD
ATOM     12  H   UNL     1      39.376 -25.153 -12.313  0.00  0.00    +0.148 HD
ENDBRANCH   1   4
BRANCH   1  14
ATOM     13 CL   UNL     1      29.062 -22.451 -15.205  0.00  0.00    -0.082 Cl
ATOM     14  C   UNL     1      32.873 -23.505 -14.911  0.00  0.00    +0.001 C 
ATOM     15  C   UNL     1      31.741 -22.806 -15.247  0.00  0.00    +0.009 C 
ATOM     16  C   UNL     1      32.857 -24.657 -14.166  0.00  0.00    -0.002 C 
ATOM     17  C   UNL     1      30.509 -23.293 -14.810  0.00  0.00    +0.057 C 
ATOM     18  C   UNL     1      31.625 -25.144 -13.728  0.00  0.00    +0.001 C 
ATOM     19  C   UNL     1      30.451 -24.462 -14.050  0.00  0.00    +0.011 C 
ENDBRANCH   1  14
BRANCH   1  20
ATOM     20  N   UNL     1      34.298 -22.911 -16.888  0.00  0.00    -0.262 N 
ATOM     21  N   UNL     1      33.785 -23.316 -18.956  0.00  0.00    -0.225 NA
ATOM     22  C   UNL     1      35.189 -22.193 -17.576  0.00  0.00    +0.088 C 
ATOM     23  C   UNL     1      33.474 -23.571 -17.705  0.00  0.00    +0.168 C 
ATOM     24  C   UNL     1      34.853 -22.458 -18.884  0.00  0.00    +0.117 C 
ENDBRANCH   1  20
TORSDOF 3
ENDMDL
MODEL 6
REMARK VINA RESULT:      -9.6      6.658      9.655
REMARK  Name = 60652
REMARK  3 active torsions:
REMARK  status: ('A' for Active; 'I' for Inactive)
REMARK    1  A    between atoms: C_1  and  C_4
REMARK    2  A    between atoms: C_1  and  C_14
REMARK    3  A    between atoms: C_1  and  N_20
REMARK                            x       y       z     vdW  Elec       q    Type
REMARK                         _______ _______ _______ _____ _____    ______ ____
ROOT
ATOM      1  C   UNL     1      34.049 -23.204 -15.456  0.00  0.00    +0.124 C 
ENDROOT
BRANCH   1   4
ATOM      2  N   UNL     1      37.793 -23.987 -12.215  0.00  0.00    -0.315 N 
ATOM      3  N   UNL     1      38.337 -25.974 -13.050  0.00  0.00    -0.315 N 
ATOM      4  C   UNL     1      35.177 -23.976 -14.854  0.00  0.00    +0.001 C 
ATOM      5  C   UNL     1      35.875 -23.435 -13.770  0.00  0.00    +0.013 C 
ATOM      6  C   UNL     1      35.514 -25.224 -15.383  0.00  0.00    -0.001 C 
ATOM      7  C   UNL     1      36.919 -24.201 -13.249  0.00  0.00    +0.059 C 
ATOM      8  C   UNL     1      37.278 -25.447 -13.754  0.00  0.00    +0.059 C 
ATOM      9  C   UNL     1      36.566 -25.976 -14.844  0.00  0.00    +0.015 C 
ATOM     10  C   UNL     1      38.620 -25.074 -12.136  0.00  0.00    +0.182 C 
ATOM     11  H   UNL     1      37.821 -23.193 -11.633  0.00  0.00    +0.148 HD
ATOM     12  H   UNL     1      38.785 -26.837 -13.200  0.00  0.00    +0.148 HD
ENDBRANCH   1   4
BRANCH   1  14
ATOM     13 CL   UNL     1      28.921 -22.491 -15.939  0.00  0.00    -0.082 Cl
ATOM     14  C   UNL     1      32.620 -23.623 -15.068  0.00  0.00    +0.001 C 
ATOM     15  C   UNL     1      31.568 -22.939 -15.622  0.00  0.00    +0.009 C 
ATOM     16  C   UNL     1      32.465 -24.662 -14.186  0.00  0.00    -0.002 C 
ATOM     17  C   UNL     1      30.273 -23.320 -15.272  0.00  0.00    +0.057 C 
ATOM     18  C   UNL     1      31.170 -25.043 -13.835  0.00  0.00    +0.001 C 
ATOM     19  C   UNL     1      30.074 -24.372 -14.378  0.00  0.00    +0.011 C 
ENDBRANCH   1  14
BRANCH   1  20
ATOM     20  N   UNL     1      34.179 -23.002 -16.933  0.00  0.00    -0.262 N 
ATOM     21  N   UNL     1      33.740 -23.184 -19.049  0.00  0.00    -0.225 NA
ATOM     22  C   UNL     1      35.121 -22.254 -17.512  0.00  0.00    +0.088 C 
ATOM     23  C   UNL     1      33.368 -23.548 -17.843  0.00  0.00    +0.168 C 
ATOM     24  C   UNL     1      34.831 -22.377 -18.851  0.00  0.00    +0.117 C 
ENDBRANCH   1  20
TORSDOF 3
ENDMDL
MODEL 7
REMARK VINA RESULT:      -9.6      5.360      8.433
REMARK  Name = 60652
REMARK  3 active torsions:
REMARK  status: ('A' for Active; 'I' for Inactive)
REMARK    1  A    between atoms: C_1  and  C_4
REMARK    2  A    between atoms: C_1  and  C_14
REMARK    3  A    between atoms: C_1  and  N_20
REMARK                            x       y       z     vdW  Elec       q    Type
REMARK                         _______ _______ _______ _____ _____    ______ ____
ROOT
ATOM      1  C   UNL     1      31.897 -10.073 -22.589  0.00  0.00    +0.124 C 
ENDROOT
BRANCH   1   4
ATOM      2  N   UNL     1      32.939 -14.968 -22.288  0.00  0.00    -0.315 N 
ATOM      3  N   UNL     1      34.212 -14.990 -24.110  0.00  0.00    -0.315 N 
ATOM      4  C   UNL     1      32.532 -11.350 -23.032  0.00  0.00    +0.001 C 
ATOM      5  C   UNL     1      32.314 -12.515 -22.291  0.00  0.00    +0.013 C 
ATOM      6  C   UNL     1      33.331 -11.357 -24.179  0.00  0.00    -0.001 C 
ATOM      7  C   UNL     1      32.933 -13.678 -22.753  0.00  0.00    +0.059 C 
ATOM      8  C   UNL     1      33.734 -13.717 -23.891  0.00  0.00    +0.059 C 
ATOM      9  C   UNL     1      33.942 -12.537 -24.624  0.00  0.00    +0.015 C 
ATOM     10  C   UNL     1      33.716 -15.712 -23.131  0.00  0.00    +0.182 C 
ATOM     11  H   UNL     1      32.468 -15.298 -21.488  0.00  0.00    +0.148 HD
ATOM     12  H   UNL     1      34.797 -15.291 -24.841  0.00  0.00    +0.148 HD
ENDBRANCH   1   4
BRANCH   1  14
ATOM     13 CL   UNL     1      30.941  -5.419 -24.702  0.00  0.00    -0.082 Cl
ATOM     14  C   UNL     1      32.439  -8.766 -23.195  0.00  0.00    +0.001 C 
ATOM     15  C   UNL     1      31.539  -7.820 -23.613  0.00  0.00    +0.009 C 
ATOM     16  C   UNL     1      33.799  -8.609 -23.288  0.00  0.00    -0.002 C 
ATOM     17  C   UNL     1      32.031  -6.635 -24.161  0.00  0.00    +0.057 C 
ATOM     18  C   UNL     1      34.291  -7.424 -23.836  0.00  0.00    +0.001 C 
ATOM     19  C   UNL     1      33.408  -6.438 -24.273  0.00  0.00    +0.011 C 
ENDBRANCH   1  14
BRANCH   1  20
ATOM     20  N   UNL     1      31.739  -9.964 -21.104  0.00  0.00    -0.262 N 
ATOM     21  N   UNL     1      31.995  -9.202 -19.090  0.00  0.00    -0.225 NA
ATOM     22  C   UNL     1      30.990 -10.785 -20.364  0.00  0.00    +0.088 C 
ATOM     23  C   UNL     1      32.329  -9.033 -20.350  0.00  0.00    +0.168 C 
ATOM     24  C   UNL     1      31.161 -10.291 -19.091  0.00  0.00    +0.117 C 
ENDBRANCH   1  20
TORSDOF 3
ENDMDL
MODEL 8
REMARK VINA RESULT:      -9.5      6.510     10.644
REMARK  Name = 60652
REMARK  3 active torsions:
REMARK  status: ('A' for Active; 'I' for Inactive)
REMARK    1  A    between atoms: C_1  and  C_4
REMARK    2  A    between atoms: C_1  and  C_14
REMARK    3  A    between atoms: C_1  and  N_20
REMARK                            x       y       z     vdW  Elec       q    Type
REMARK                         _______ _______ _______ _____ _____    ______ ____
ROOT
ATOM      1  C   UNL     1      34.119 -23.319 -14.455  0.00  0.00    +0.124 C 
ENDROOT
BRANCH   1   4
ATOM      2  N   UNL     1      36.771 -21.514 -18.308  0.00  0.00    -0.315 N 
ATOM      3  N   UNL     1      35.216 -21.980 -19.827  0.00  0.00    -0.315 N 
ATOM      4  C   UNL     1      34.362 -22.984 -15.891  0.00  0.00    +0.001 C 
ATOM      5  C   UNL     1      35.569 -22.381 -16.257  0.00  0.00    +0.013 C 
ATOM      6  C   UNL     1      33.381 -23.279 -16.840  0.00  0.00    -0.001 C 
ATOM      7  C   UNL     1      35.740 -22.090 -17.611  0.00  0.00    +0.059 C 
ATOM      8  C   UNL     1      34.782 -22.372 -18.580  0.00  0.00    +0.059 C 
ATOM      9  C   UNL     1      33.575 -22.978 -18.195  0.00  0.00    +0.015 C 
ATOM     10  C   UNL     1      36.411 -21.470 -19.626  0.00  0.00    +0.182 C 
ATOM     11  H   UNL     1      37.619 -21.190 -17.927  0.00  0.00    +0.148 HD
ATOM     12  H   UNL     1      34.736 -22.063 -20.681  0.00  0.00    +0.148 HD
ENDBRANCH   1   4
BRANCH   1  14
ATOM     13 CL   UNL     1      37.761 -27.017 -14.778  0.00  0.00    -0.082 Cl
ATOM     14  C   UNL     1      35.164 -24.202 -13.750  0.00  0.00    +0.001 C 
ATOM     15  C   UNL     1      35.885 -25.089 -14.509  0.00  0.00    +0.009 C 
ATOM     16  C   UNL     1      35.325 -24.062 -12.395  0.00  0.00    -0.002 C 
ATOM     17  C   UNL     1      36.833 -25.889 -13.869  0.00  0.00    +0.057 C 
ATOM     18  C   UNL     1      36.272 -24.861 -11.755  0.00  0.00    +0.001 C 
ATOM     19  C   UNL     1      37.026 -25.774 -12.492  0.00  0.00    +0.011 C 
ENDBRANCH   1  14
BRANCH   1  20
ATOM     20  N   UNL     1      32.726 -23.789 -14.175  0.00  0.00    -0.262 N 
ATOM     21  N   UNL     1      30.593 -23.691 -13.793  0.00  0.00    -0.225 NA
ATOM     22  C   UNL     1      32.376 -25.069 -14.034  0.00  0.00    +0.088 C 
ATOM     23  C   UNL     1      31.673 -22.980 -14.031  0.00  0.00    +0.168 C 
ATOM     24  C   UNL     1      31.023 -24.993 -13.793  0.00  0.00    +0.117 C 
ENDBRANCH   1  20
TORSDOF 3
ENDMDL
MODEL 9
REMARK VINA RESULT:      -9.5      5.738      8.672
REMARK  Name = 60652
REMARK  3 active torsions:
REMARK  status: ('A' for Active; 'I' for Inactive)
REMARK    1  A    between atoms: C_1  and  C_4
REMARK    2  A    between atoms: C_1  and  C_14
REMARK    3  A    between atoms: C_1  and  N_20
REMARK                            x       y       z     vdW  Elec       q    Type
REMARK                         _______ _______ _______ _____ _____    ______ ____
ROOT
ATOM      1  C   UNL     1      34.118 -23.559 -16.670  0.00  0.00    +0.124 C 
ENDROOT
BRANCH   1   4
ATOM      2  N   UNL     1      36.817 -26.436 -13.575  0.00  0.00    -0.315 N 
ATOM      3  N   UNL     1      37.897 -24.730 -12.645  0.00  0.00    -0.315 N 
ATOM      4  C   UNL     1      35.128 -23.818 -15.600  0.00  0.00    +0.001 C 
ATOM      5  C   UNL     1      35.379 -25.134 -15.200  0.00  0.00    +0.013 C 
ATOM      6  C   UNL     1      35.804 -22.742 -15.019  0.00  0.00    -0.001 C 
ATOM      7  C   UNL     1      36.332 -25.314 -14.196  0.00  0.00    +0.059 C 
ATOM      8  C   UNL     1      37.022 -24.263 -13.599  0.00  0.00    +0.059 C 
ATOM      9  C   UNL     1      36.757 -22.947 -14.013  0.00  0.00    +0.015 C 
ATOM     10  C   UNL     1      37.749 -26.036 -12.658  0.00  0.00    +0.182 C 
ATOM     11  H   UNL     1      36.543 -27.364 -13.758  0.00  0.00    +0.148 HD
ATOM     12  H   UNL     1      38.503 -24.202 -12.078  0.00  0.00    +0.148 HD
ENDBRANCH   1   4
BRANCH   1  14
ATOM     13 CL   UNL     1      32.694 -20.582 -20.688  0.00  0.00    -0.082 Cl
ATOM     14  C   UNL     1      34.519 -22.598 -17.802  0.00  0.00    +0.001 C 
ATOM     15  C   UNL     1      33.532 -22.102 -18.616  0.00  0.00    +0.009 C 
ATOM     16  C   UNL     1      35.846 -22.280 -17.945  0.00  0.00    -0.002 C 
ATOM     17  C   UNL     1      33.896 -21.229 -19.641  0.00  0.00    +0.057 C 
ATOM     18  C   UNL     1      36.211 -21.408 -18.971  0.00  0.00    +0.001 C 
ATOM     19  C   UNL     1      35.236 -20.882 -19.819  0.00  0.00    +0.011 C 
ENDBRANCH   1  14
BRANCH   1  20
ATOM     20  N   UNL     1      32.752 -23.247 -16.145  0.00  0.00    -0.262 N 
ATOM     21  N   UNL     1      31.194 -22.745 -14.721  0.00  0.00    -0.225 NA
ATOM     22  C   UNL     1      31.648 -23.206 -16.894  0.00  0.00    +0.088 C 
ATOM     23  C   UNL     1      32.480 -22.976 -14.865  0.00  0.00    +0.168 C 
ATOM     24  C   UNL     1      30.669 -22.886 -15.981  0.00  0.00    +0.117 C 
ENDBRANCH   1  20
TORSDOF 3
ENDMDL
