MODEL 1
REMARK VINA RESULT:      -9.1      0.000      0.000
REMARK  Name = 9838712
REMARK  5 active torsions:
REMARK  status: ('A' for Active; 'I' for Inactive)
REMARK    1  A    between atoms: C_1  and  C_4
REMARK    2  A    between atoms: C_1  and  C_15
REMARK    3  A    between atoms: C_3  and  C_9
REMARK    4  A    between atoms: C_9  and  C_10
REMARK    5  A    between atoms: N_14  and  S_17
REMARK                            x       y       z     vdW  Elec       q    Type
REMARK                         _______ _______ _______ _____ _____    ______ ____
ROOT
ATOM      1  C   UNL     1      35.649 -18.597 -21.786  0.00  0.00    +0.100 C 
ATOM      2  C   UNL     1      35.408 -18.816 -23.280  0.00  0.00    +0.014 C 
ENDROOT
BRANCH   1   4
ATOM      3  C   UNL     1      34.123 -21.839 -19.444  0.00  0.00    -0.022 C 
ATOM      4  C   UNL     1      35.109 -19.745 -20.956  0.00  0.00    -0.014 C 
ATOM      5  C   UNL     1      33.243 -20.961 -20.077  0.00  0.00    -0.005 C 
ATOM      6  C   UNL     1      35.500 -21.661 -19.573  0.00  0.00    -0.005 C 
ATOM      7  C   UNL     1      33.740 -19.905 -20.839  0.00  0.00    -0.004 C 
ATOM      8  C   UNL     1      35.997 -20.604 -20.337  0.00  0.00    -0.004 C 
BRANCH   3   9
ATOM      9  C   UNL     1      33.591 -22.968 -18.628  0.00  0.00    +0.026 C 
BRANCH   9  10
ATOM     10  C   UNL     1      33.437 -22.652 -17.119  0.00  0.00    +0.004 C 
ATOM     11  C   UNL     1      32.157 -23.256 -16.539  0.00  0.00    +0.000 C 
ATOM     12  C   UNL     1      34.650 -23.168 -16.340  0.00  0.00    +0.000 C 
ENDBRANCH   9  10
ENDBRANCH   3   9
ENDBRANCH   1   4
BRANCH   1  15
ATOM     13  O   UNL     1      35.253 -16.808 -20.198  0.00  0.00    -0.273 OA
ATOM     14  N   UNL     1      34.302 -16.595 -22.331  0.00  0.00    -0.188 N 
ATOM     15  C   UNL     1      35.067 -17.266 -21.321  0.00  0.00    +0.244 C 
ATOM     16  H   UNL     1      34.221 -17.038 -23.207  0.00  0.00    +0.176 HD
BRANCH  14  17
ATOM     17  S   UNL     1      33.517 -15.091 -22.136  0.00  0.00    +0.058 S 
ATOM     18  O   UNL     1      32.220 -15.318 -21.528  0.00  0.00    -0.154 OA
ATOM     19  O   UNL     1      34.438 -14.115 -21.586  0.00  0.00    -0.154 OA
ATOM     20  C   UNL     1      33.243 -14.683 -23.842  0.00  0.00    +0.200 C 
ENDBRANCH  14  17
ENDBRANCH   1  15
TORSDOF 5
ENDMDL
MODEL 2
REMARK VINA RESULT:      -9.0      6.645      9.420
REMARK  Name = 9838712
REMARK  5 active torsions:
REMARK  status: ('A' for Active; 'I' for Inactive)
REMARK    1  A    between atoms: C_1  and  C_4
REMARK    2  A    between atoms: C_1  and  C_15
REMARK    3  A    between atoms: C_3  and  C_9
REMARK    4  A    between atoms: C_9  and  C_10
REMARK    5  A    between atoms: N_14  and  S_17
REMARK                            x       y       z     vdW  Elec       q    Type
REMARK                         _______ _______ _______ _____ _____    ______ ____
ROOT
ATOM      1  C   UNL     1      34.839 -23.483 -15.105  0.00  0.00    +0.100 C 
ATOM      2  C   UNL     1      33.346 -23.718 -14.871  0.00  0.00    +0.014 C 
ENDROOT
BRANCH   1   4
ATOM      3  C   UNL     1      35.593 -21.789 -18.964  0.00  0.00    -0.022 C 
ATOM      4  C   UNL     1      35.105 -22.883 -16.472  0.00  0.00    -0.014 C 
ATOM      5  C   UNL     1      36.585 -21.759 -17.983  0.00  0.00    -0.005 C 
ATOM      6  C   UNL     1      34.356 -22.371 -18.688  0.00  0.00    -0.005 C 
ATOM      7  C   UNL     1      36.338 -22.310 -16.726  0.00  0.00    -0.004 C 
ATOM      8  C   UNL     1      34.111 -22.923 -17.431  0.00  0.00    -0.004 C 
BRANCH   3   9
ATOM      9  C   UNL     1      35.856 -21.199 -20.308  0.00  0.00    +0.026 C 
BRANCH   9  10
ATOM     10  C   UNL     1      35.295 -19.768 -20.500  0.00  0.00    +0.004 C 
ATOM     11  C   UNL     1      36.317 -18.842 -21.163  0.00  0.00    +0.000 C 
ATOM     12  C   UNL     1      34.014 -19.806 -21.338  0.00  0.00    +0.000 C 
ENDBRANCH   9  10
ENDBRANCH   3   9
ENDBRANCH   1   4
BRANCH   1  15
ATOM     13  O   UNL     1      35.653 -25.681 -15.726  0.00  0.00    -0.273 OA
ATOM     14  N   UNL     1      36.391 -24.787 -13.687  0.00  0.00    -0.188 N 
ATOM     15  C   UNL     1      35.639 -24.766 -14.908  0.00  0.00    +0.244 C 
ATOM     16  H   UNL     1      36.327 -23.997 -13.102  0.00  0.00    +0.176 HD
BRANCH  14  17
ATOM     17  S   UNL     1      37.388 -26.072 -13.166  0.00  0.00    +0.058 S 
ATOM     18  O   UNL     1      37.047 -26.398 -11.795  0.00  0.00    -0.154 OA
ATOM     19  O   UNL     1      37.450 -27.101 -14.185  0.00  0.00    -0.154 OA
ATOM     20  C   UNL     1      38.953 -25.232 -13.140  0.00  0.00    +0.200 C 
ENDBRANCH  14  17
ENDBRANCH   1  15
TORSDOF 5
ENDMDL
MODEL 3
REMARK VINA RESULT:      -8.4      7.338      9.028
REMARK  Name = 9838712
REMARK  5 active torsions:
REMARK  status: ('A' for Active; 'I' for Inactive)
REMARK    1  A    between atoms: C_1  and  C_4
REMARK    2  A    between atoms: C_1  and  C_15
REMARK    3  A    between atoms: C_3  and  C_9
REMARK    4  A    between atoms: C_9  and  C_10
REMARK    5  A    between atoms: N_14  and  S_17
REMARK                            x       y       z     vdW  Elec       q    Type
REMARK                         _______ _______ _______ _____ _____    ______ ____
ROOT
ATOM      1  C   UNL     1      36.408 -23.036 -16.386  0.00  0.00    +0.100 C 
ATOM      2  C   UNL     1      36.847 -21.630 -16.799  0.00  0.00    +0.014 C 
ENDROOT
BRANCH   1   4
ATOM      3  C   UNL     1      32.209 -23.212 -15.572  0.00  0.00    -0.022 C 
ATOM      4  C   UNL     1      34.921 -23.098 -16.097  0.00  0.00    -0.014 C 
ATOM      5  C   UNL     1      32.661 -23.118 -16.889  0.00  0.00    -0.005 C 
ATOM      6  C   UNL     1      33.125 -23.249 -14.521  0.00  0.00    -0.005 C 
ATOM      7  C   UNL     1      34.029 -23.060 -17.153  0.00  0.00    -0.004 C 
ATOM      8  C   UNL     1      34.493 -23.192 -14.786  0.00  0.00    -0.004 C 
BRANCH   3   9
ATOM      9  C   UNL     1      30.746 -23.273 -15.289  0.00  0.00    +0.026 C 
BRANCH   9  10
ATOM     10  C   UNL     1      30.029 -24.513 -15.881  0.00  0.00    +0.004 C 
ATOM     11  C   UNL     1      29.886 -25.633 -14.849  0.00  0.00    +0.000 C 
ATOM     12  C   UNL     1      28.648 -24.124 -16.416  0.00  0.00    +0.000 C 
ENDBRANCH   9  10
ENDBRANCH   3   9
ENDBRANCH   1   4
BRANCH   1  15
ATOM     13  O   UNL     1      37.544 -22.826 -14.254  0.00  0.00    -0.273 OA
ATOM     14  N   UNL     1      37.533 -24.938 -15.275  0.00  0.00    -0.188 N 
ATOM     15  C   UNL     1      37.216 -23.541 -15.196  0.00  0.00    +0.244 C 
ATOM     16  H   UNL     1      37.212 -25.431 -16.064  0.00  0.00    +0.176 HD
BRANCH  14  17
ATOM     17  S   UNL     1      38.423 -25.814 -14.109  0.00  0.00    +0.058 S 
ATOM     18  O   UNL     1      38.729 -27.125 -14.648  0.00  0.00    -0.154 OA
ATOM     19  O   UNL     1      39.463 -24.978 -13.543  0.00  0.00    -0.154 OA
ATOM     20  C   UNL     1      37.160 -26.024 -12.878  0.00  0.00    +0.200 C 
ENDBRANCH  14  17
ENDBRANCH   1  15
TORSDOF 5
ENDMDL
MODEL 4
REMARK VINA RESULT:      -8.3      8.048      9.514
REMARK  Name = 9838712
REMARK  5 active torsions:
REMARK  status: ('A' for Active; 'I' for Inactive)
REMARK    1  A    between atoms: C_1  and  C_4
REMARK    2  A    between atoms: C_1  and  C_15
REMARK    3  A    between atoms: C_3  and  C_9
REMARK    4  A    between atoms: C_9  and  C_10
REMARK    5  A    between atoms: N_14  and  S_17
REMARK                            x       y       z     vdW  Elec       q    Type
REMARK                         _______ _______ _______ _____ _____    ______ ____
ROOT
ATOM      1  C   UNL     1      35.397 -23.757 -16.026  0.00  0.00    +0.100 C 
ATOM      2  C   UNL     1      36.232 -22.485 -15.872  0.00  0.00    +0.014 C 
ENDROOT
BRANCH   1   4
ATOM      3  C   UNL     1      31.249 -23.031 -15.251  0.00  0.00    -0.022 C 
ATOM      4  C   UNL     1      33.928 -23.501 -15.752  0.00  0.00    -0.014 C 
ATOM      5  C   UNL     1      32.120 -23.302 -14.194  0.00  0.00    -0.005 C 
ATOM      6  C   UNL     1      31.730 -22.998 -16.560  0.00  0.00    -0.005 C 
ATOM      7  C   UNL     1      33.471 -23.539 -14.448  0.00  0.00    -0.004 C 
ATOM      8  C   UNL     1      33.081 -23.234 -16.812  0.00  0.00    -0.004 C 
BRANCH   3   9
ATOM      9  C   UNL     1      29.805 -22.780 -14.980  0.00  0.00    +0.026 C 
BRANCH   9  10
ATOM     10  C   UNL     1      28.870 -23.052 -16.185  0.00  0.00    +0.004 C 
ATOM     11  C   UNL     1      28.627 -24.548 -16.389  0.00  0.00    +0.000 C 
ATOM     12  C   UNL     1      27.531 -22.334 -15.992  0.00  0.00    +0.000 C 
ENDBRANCH   9  10
ENDBRANCH   3   9
ENDBRANCH   1   4
BRANCH   1  15
ATOM     13  O   UNL     1      35.698 -26.066 -15.351  0.00  0.00    -0.273 OA
ATOM     14  N   UNL     1      36.743 -24.412 -14.057  0.00  0.00    -0.188 N 
ATOM     15  C   UNL     1      35.929 -24.879 -15.141  0.00  0.00    +0.244 C 
ATOM     16  H   UNL     1      36.882 -23.440 -13.981  0.00  0.00    +0.176 HD
BRANCH  14  17
ATOM     17  S   UNL     1      37.489 -25.407 -12.886  0.00  0.00    +0.058 S 
ATOM     18  O   UNL     1      36.476 -25.874 -11.959  0.00  0.00    -0.154 OA
ATOM     19  O   UNL     1      38.400 -26.336 -13.527  0.00  0.00    -0.154 OA
ATOM     20  C   UNL     1      38.460 -24.183 -12.042  0.00  0.00    +0.200 C 
ENDBRANCH  14  17
ENDBRANCH   1  15
TORSDOF 5
ENDMDL
MODEL 5
REMARK VINA RESULT:      -8.1      5.172      7.853
REMARK  Name = 9838712
REMARK  5 active torsions:
REMARK  status: ('A' for Active; 'I' for Inactive)
REMARK    1  A    between atoms: C_1  and  C_4
REMARK    2  A    between atoms: C_1  and  C_15
REMARK    3  A    between atoms: C_3  and  C_9
REMARK    4  A    between atoms: C_9  and  C_10
REMARK    5  A    between atoms: N_14  and  S_17
REMARK                            x       y       z     vdW  Elec       q    Type
REMARK                         _______ _______ _______ _____ _____    ______ ____
ROOT
ATOM      1  C   UNL     1      33.761 -23.345 -17.325  0.00  0.00    +0.100 C 
ATOM      2  C   UNL     1      34.643 -23.346 -16.076  0.00  0.00    +0.014 C 
ENDROOT
BRANCH   1   4
ATOM      3  C   UNL     1      35.136 -20.522 -20.235  0.00  0.00    -0.022 C 
ATOM      4  C   UNL     1      34.249 -22.346 -18.356  0.00  0.00    -0.014 C 
ATOM      5  C   UNL     1      33.779 -20.833 -20.153  0.00  0.00    -0.005 C 
ATOM      6  C   UNL     1      36.046 -21.130 -19.370  0.00  0.00    -0.005 C 
ATOM      7  C   UNL     1      33.331 -21.754 -19.205  0.00  0.00    -0.004 C 
ATOM      8  C   UNL     1      35.597 -22.049 -18.421  0.00  0.00    -0.004 C 
BRANCH   3   9
ATOM      9  C   UNL     1      35.615 -19.539 -21.249  0.00  0.00    +0.026 C 
BRANCH   9  10
ATOM     10  C   UNL     1      34.485 -18.789 -21.999  0.00  0.00    +0.004 C 
ATOM     11  C   UNL     1      34.367 -17.334 -21.540  0.00  0.00    +0.000 C 
ATOM     12  C   UNL     1      34.727 -18.836 -23.510  0.00  0.00    +0.000 C 
ENDBRANCH   9  10
ENDBRANCH   3   9
ENDBRANCH   1   4
BRANCH   1  15
ATOM     13  O   UNL     1      31.574 -22.336 -17.609  0.00  0.00    -0.273 OA
ATOM     14  N   UNL     1      31.852 -23.842 -15.833  0.00  0.00    -0.188 N 
ATOM     15  C   UNL     1      32.299 -23.092 -16.970  0.00  0.00    +0.244 C 
ATOM     16  H   UNL     1      32.506 -24.435 -15.395  0.00  0.00    +0.176 HD
BRANCH  14  17
ATOM     17  S   UNL     1      30.276 -23.790 -15.177  0.00  0.00    +0.058 S 
ATOM     18  O   UNL     1      29.982 -22.426 -14.780  0.00  0.00    -0.154 OA
ATOM     19  O   UNL     1      29.360 -24.537 -16.016  0.00  0.00    -0.154 OA
ATOM     20  C   UNL     1      30.548 -24.729 -13.694  0.00  0.00    +0.200 C 
ENDBRANCH  14  17
ENDBRANCH   1  15
TORSDOF 5
ENDMDL
MODEL 6
REMARK VINA RESULT:      -7.9      2.924      5.050
REMARK  Name = 9838712
REMARK  5 active torsions:
REMARK  status: ('A' for Active; 'I' for Inactive)
REMARK    1  A    between atoms: C_1  and  C_4
REMARK    2  A    between atoms: C_1  and  C_15
REMARK    3  A    between atoms: C_3  and  C_9
REMARK    4  A    between atoms: C_9  and  C_10
REMARK    5  A    between atoms: N_14  and  S_17
REMARK                            x       y       z     vdW  Elec       q    Type
REMARK                         _______ _______ _______ _____ _____    ______ ____
ROOT
ATOM      1  C   UNL     1      33.828 -13.886 -23.479  0.00  0.00    +0.100 C 
ATOM      2  C   UNL     1      33.427 -13.774 -24.950  0.00  0.00    +0.014 C 
ENDROOT
BRANCH   1   4
ATOM      3  C   UNL     1      34.962 -17.883 -22.444  0.00  0.00    -0.022 C 
ATOM      4  C   UNL     1      34.230 -15.302 -23.113  0.00  0.00    -0.014 C 
ATOM      5  C   UNL     1      34.903 -16.897 -21.458  0.00  0.00    -0.005 C 
ATOM      6  C   UNL     1      34.652 -17.567 -23.767  0.00  0.00    -0.005 C 
ATOM      7  C   UNL     1      34.534 -15.596 -21.796  0.00  0.00    -0.004 C 
ATOM      8  C   UNL     1      34.282 -16.265 -24.104  0.00  0.00    -0.004 C 
BRANCH   3   9
ATOM      9  C   UNL     1      35.357 -19.275 -22.084  0.00  0.00    +0.026 C 
BRANCH   9  10
ATOM     10  C   UNL     1      34.857 -19.744 -20.694  0.00  0.00    +0.004 C 
ATOM     11  C   UNL     1      33.383 -20.150 -20.729  0.00  0.00    +0.000 C 
ATOM     12  C   UNL     1      35.704 -20.917 -20.192  0.00  0.00    +0.000 C 
ENDBRANCH   9  10
ENDBRANCH   3   9
ENDBRANCH   1   4
BRANCH   1  15
ATOM     13  O   UNL     1      31.946 -14.127 -21.969  0.00  0.00    -0.273 OA
ATOM     14  N   UNL     1      32.683 -11.953 -22.445  0.00  0.00    -0.188 N 
ATOM     15  C   UNL     1      32.718 -13.381 -22.562  0.00  0.00    +0.244 C 
ATOM     16  H   UNL     1      33.356 -11.440 -22.950  0.00  0.00    +0.176 HD
BRANCH  14  17
ATOM     17  S   UNL     1      31.568 -11.069 -21.501  0.00  0.00    +0.058 S 
ATOM     18  O   UNL     1      30.264 -11.139 -22.134  0.00  0.00    -0.154 OA
ATOM     19  O   UNL     1      31.734 -11.393 -20.098  0.00  0.00    -0.154 OA
ATOM     20  C   UNL     1      32.200  -9.430 -21.763  0.00  0.00    +0.200 C 
ENDBRANCH  14  17
ENDBRANCH   1  15
TORSDOF 5
ENDMDL
MODEL 7
REMARK VINA RESULT:      -7.7      4.138      6.964
REMARK  Name = 9838712
REMARK  5 active torsions:
REMARK  status: ('A' for Active; 'I' for Inactive)
REMARK    1  A    between atoms: C_1  and  C_4
REMARK    2  A    between atoms: C_1  and  C_15
REMARK    3  A    between atoms: C_3  and  C_9
REMARK    4  A    between atoms: C_9  and  C_10
REMARK    5  A    between atoms: N_14  and  S_17
REMARK                            x       y       z     vdW  Elec       q    Type
REMARK                         _______ _______ _______ _____ _____    ______ ____
ROOT
ATOM      1  C   UNL     1      31.826 -12.503 -21.742  0.00  0.00    +0.100 C 
ATOM      2  C   UNL     1      31.610 -12.048 -20.298  0.00  0.00    +0.014 C 
ENDROOT
BRANCH   1   4
ATOM      3  C   UNL     1      34.346 -15.958 -21.952  0.00  0.00    -0.022 C 
ATOM      4  C   UNL     1      32.719 -13.726 -21.817  0.00  0.00    -0.014 C 
ATOM      5  C   UNL     1      34.090 -15.355 -20.720  0.00  0.00    -0.005 C 
ATOM      6  C   UNL     1      33.781 -15.436 -23.115  0.00  0.00    -0.005 C 
ATOM      7  C   UNL     1      33.270 -14.229 -20.652  0.00  0.00    -0.004 C 
ATOM      8  C   UNL     1      32.960 -14.310 -23.046  0.00  0.00    -0.004 C 
BRANCH   3   9
ATOM      9  C   UNL     1      35.223 -17.161 -22.024  0.00  0.00    +0.026 C 
BRANCH   9  10
ATOM     10  C   UNL     1      34.472 -18.488 -22.298  0.00  0.00    +0.004 C 
ATOM     11  C   UNL     1      34.872 -19.101 -23.641  0.00  0.00    +0.000 C 
ATOM     12  C   UNL     1      34.739 -19.492 -21.173  0.00  0.00    +0.000 C 
ENDBRANCH   9  10
ENDBRANCH   3   9
ENDBRANCH   1   4
BRANCH   1  15
ATOM     13  O   UNL     1      33.071 -11.562 -23.597  0.00  0.00    -0.273 OA
ATOM     14  N   UNL     1      31.988 -10.069 -22.149  0.00  0.00    -0.188 N 
ATOM     15  C   UNL     1      32.378 -11.372 -22.603  0.00  0.00    +0.244 C 
ATOM     16  H   UNL     1      31.417 -10.020 -21.347  0.00  0.00    +0.176 HD
BRANCH  14  17
ATOM     17  S   UNL     1      32.434  -8.594 -22.886  0.00  0.00    +0.058 S 
ATOM     18  O   UNL     1      33.877  -8.567 -23.035  0.00  0.00    -0.154 OA
ATOM     19  O   UNL     1      31.563  -8.314 -24.010  0.00  0.00    -0.154 OA
ATOM     20  C   UNL     1      32.013  -7.475 -21.573  0.00  0.00    +0.200 C 
ENDBRANCH  14  17
ENDBRANCH   1  15
TORSDOF 5
ENDMDL
MODEL 8
REMARK VINA RESULT:      -7.7      3.749      9.575
REMARK  Name = 9838712
REMARK  5 active torsions:
REMARK  status: ('A' for Active; 'I' for Inactive)
REMARK    1  A    between atoms: C_1  and  C_4
REMARK    2  A    between atoms: C_1  and  C_15
REMARK    3  A    between atoms: C_3  and  C_9
REMARK    4  A    between atoms: C_9  and  C_10
REMARK    5  A    between atoms: N_14  and  S_17
REMARK                            x       y       z     vdW  Elec       q    Type
REMARK                         _______ _______ _______ _____ _____    ______ ____
ROOT
ATOM      1  C   UNL     1      33.247 -14.829 -23.890  0.00  0.00    +0.100 C 
ATOM      2  C   UNL     1      33.544 -15.257 -25.328  0.00  0.00    +0.014 C 
ENDROOT
BRANCH   1   4
ATOM      3  C   UNL     1      33.054 -10.569 -23.514  0.00  0.00    -0.022 C 
ATOM      4  C   UNL     1      33.179 -13.321 -23.756  0.00  0.00    -0.014 C 
ATOM      5  C   UNL     1      33.852 -11.147 -24.502  0.00  0.00    -0.005 C 
ATOM      6  C   UNL     1      32.319 -11.379 -22.648  0.00  0.00    -0.005 C 
ATOM      7  C   UNL     1      33.915 -12.535 -24.624  0.00  0.00    -0.004 C 
ATOM      8  C   UNL     1      32.382 -12.767 -22.771  0.00  0.00    -0.004 C 
BRANCH   3   9
ATOM      9  C   UNL     1      32.987  -9.086 -23.383  0.00  0.00    +0.026 C 
BRANCH   9  10
ATOM     10  C   UNL     1      31.717  -8.561 -22.667  0.00  0.00    +0.004 C 
ATOM     11  C   UNL     1      32.062  -7.789 -21.392  0.00  0.00    +0.000 C 
ATOM     12  C   UNL     1      30.907  -7.665 -23.609  0.00  0.00    +0.000 C 
ENDBRANCH   9  10
ENDBRANCH   3   9
ENDBRANCH   1   4
BRANCH   1  15
ATOM     13  O   UNL     1      35.015 -14.730 -22.234  0.00  0.00    -0.273 OA
ATOM     14  N   UNL     1      34.230 -16.851 -22.858  0.00  0.00    -0.188 N 
ATOM     15  C   UNL     1      34.261 -15.418 -22.916  0.00  0.00    +0.244 C 
ATOM     16  H   UNL     1      33.578 -17.313 -23.434  0.00  0.00    +0.176 HD
BRANCH  14  17
ATOM     17  S   UNL     1      35.233 -17.819 -21.871  0.00  0.00    +0.058 S 
ATOM     18  O   UNL     1      36.427 -18.165 -22.620  0.00  0.00    -0.154 OA
ATOM     19  O   UNL     1      35.325 -17.250 -20.541  0.00  0.00    -0.154 OA
ATOM     20  C   UNL     1      34.224 -19.277 -21.774  0.00  0.00    +0.200 C 
ENDBRANCH  14  17
ENDBRANCH   1  15
TORSDOF 5
ENDMDL
MODEL 9
REMARK VINA RESULT:      -7.7      4.878      7.833
REMARK  Name = 9838712
REMARK  5 active torsions:
REMARK  status: ('A' for Active; 'I' for Inactive)
REMARK    1  A    between atoms: C_1  and  C_4
REMARK    2  A    between atoms: C_1  and  C_15
REMARK    3  A    between atoms: C_3  and  C_9
REMARK    4  A    between atoms: C_9  and  C_10
REMARK    5  A    between atoms: N_14  and  S_17
REMARK                            x       y       z     vdW  Elec       q    Type
REMARK                         _______ _______ _______ _____ _____    ______ ____
ROOT
ATOM      1  C   UNL     1      31.338 -11.506 -22.119  0.00  0.00    +0.100 C 
ATOM      2  C   UNL     1      30.440 -11.383 -20.888  0.00  0.00    +0.014 C 
ENDROOT
BRANCH   1   4
ATOM      3  C   UNL     1      34.019 -14.829 -21.804  0.00  0.00    -0.022 C 
ATOM      4  C   UNL     1      32.287 -12.683 -22.007  0.00  0.00    -0.014 C 
ATOM      5  C   UNL     1      33.946 -14.102 -22.993  0.00  0.00    -0.005 C 
ATOM      6  C   UNL     1      33.219 -14.473 -20.718  0.00  0.00    -0.005 C 
ATOM      7  C   UNL     1      33.072 -13.020 -23.095  0.00  0.00    -0.004 C 
ATOM      8  C   UNL     1      32.346 -13.390 -20.821  0.00  0.00    -0.004 C 
BRANCH   3   9
ATOM      9  C   UNL     1      34.953 -15.986 -21.694  0.00  0.00    +0.026 C 
BRANCH   9  10
ATOM     10  C   UNL     1      34.389 -17.319 -22.248  0.00  0.00    +0.004 C 
ATOM     11  C   UNL     1      35.056 -17.712 -23.568  0.00  0.00    +0.000 C 
ATOM     12  C   UNL     1      34.573 -18.442 -21.223  0.00  0.00    +0.000 C 
ENDBRANCH   9  10
ENDBRANCH   3   9
ENDBRANCH   1   4
BRANCH   1  15
ATOM     13  O   UNL     1      32.684  -9.974 -23.432  0.00  0.00    -0.273 OA
ATOM     14  N   UNL     1      32.058  -9.294 -21.276  0.00  0.00    -0.188 N 
ATOM     15  C   UNL     1      32.104 -10.212 -22.377  0.00  0.00    +0.244 C 
ATOM     16  H   UNL     1      31.554  -9.571 -20.477  0.00  0.00    +0.176 HD
BRANCH  14  17
ATOM     17  S   UNL     1      32.809  -7.761 -21.241  0.00  0.00    +0.058 S 
ATOM     18  O   UNL     1      32.894  -7.317 -19.862  0.00  0.00    -0.154 OA
ATOM     19  O   UNL     1      33.977  -7.756 -22.099  0.00  0.00    -0.154 OA
ATOM     20  C   UNL     1      31.543  -6.799 -22.032  0.00  0.00    +0.200 C 
ENDBRANCH  14  17
ENDBRANCH   1  15
TORSDOF 5
ENDMDL
