MODEL 1
REMARK VINA RESULT:      -8.6      0.000      0.000
REMARK  Name = 4612
REMARK  6 active torsions:
REMARK  status: ('A' for Active; 'I' for Inactive)
REMARK    1  A    between atoms: C_2  and  C_15
REMARK    2  A    between atoms: C_9  and  C_22
REMARK    3  A    between atoms: C_10  and  N_14
REMARK    4  A    between atoms: C_15  and  N_16
REMARK    5  A    between atoms: N_16  and  C_19
REMARK    6  A    between atoms: C_22  and  O_23
REMARK                            x       y       z     vdW  Elec       q    Type
REMARK                         _______ _______ _______ _____ _____    ______ ____
ROOT
ATOM      1  N   UNL     1      35.245 -16.624 -22.138  0.00  0.00    -0.336 N 
ATOM      2  C   UNL     1      35.412 -18.069 -22.084  0.00  0.00    +0.048 C 
ATOM      3  C   UNL     1      35.657 -18.631 -23.487  0.00  0.00    +0.022 C 
ATOM      4  C   UNL     1      34.570 -18.205 -24.474  0.00  0.00    +0.029 C 
ATOM      5  C   UNL     1      34.309 -16.722 -24.392  0.00  0.00    -0.009 C 
ATOM      6  C   UNL     1      34.640 -16.006 -23.223  0.00  0.00    +0.042 C 
ATOM      7  C   UNL     1      33.695 -16.067 -25.468  0.00  0.00    -0.003 C 
ATOM      8  C   UNL     1      34.381 -14.627 -23.185  0.00  0.00    +0.038 C 
ATOM      9  C   UNL     1      33.435 -14.699 -25.406  0.00  0.00    +0.029 C 
ATOM     10  C   UNL     1      33.782 -13.978 -24.267  0.00  0.00    +0.142 C 
ATOM     11  H   UNL     1      35.568 -16.073 -21.388  0.00  0.00    +0.147 HD
ENDROOT
BRANCH  10  14
ATOM     12  O   UNL     1      32.703 -12.161 -23.345  0.00  0.00    -0.126 OA
ATOM     13  O   UNL     1      34.161 -11.809 -24.948  0.00  0.00    -0.126 OA
ATOM     14  N   UNL     1      33.537 -12.580 -24.183  0.00  0.00    +0.057 N 
ENDBRANCH  10  14
BRANCH   2  15
ATOM     15  C   UNL     1      34.208 -18.702 -21.387  0.00  0.00    -0.062 C 
BRANCH  15  16
ATOM     16  N   UNL     1      34.330 -20.151 -21.350  0.00  0.00    +0.386 N 
ATOM     17  H   UNL     1      35.091 -20.437 -21.966  0.00  0.00    -0.084 HD
ATOM     18  H   UNL     1      33.447 -20.560 -21.658  0.00  0.00    -0.084 HD
BRANCH  16  19
ATOM     19  C   UNL     1      34.610 -20.619 -19.999  0.00  0.00    -0.062 C 
ATOM     20  C   UNL     1      35.967 -21.313 -19.950  0.00  0.00    -0.023 C 
ATOM     21  C   UNL     1      33.495 -21.557 -19.545  0.00  0.00    -0.023 C 
ENDBRANCH  16  19
ENDBRANCH  15  16
ENDBRANCH   2  15
BRANCH   9  22
ATOM     22  C   UNL     1      32.783 -14.039 -26.577  0.00  0.00    +0.165 C 
BRANCH  22  23
ATOM     23  O   UNL     1      33.780 -13.649 -27.511  0.00  0.00    -0.377 OA
ATOM     24  H   UNL     1      33.817 -14.296 -28.233  0.00  0.00    +0.211 HD
ENDBRANCH  22  23
ENDBRANCH   9  22
TORSDOF 6
ENDMDL
MODEL 2
REMARK VINA RESULT:      -8.0      4.901      8.051
REMARK  Name = 4612
REMARK  6 active torsions:
REMARK  status: ('A' for Active; 'I' for Inactive)
REMARK    1  A    between atoms: C_2  and  C_15
REMARK    2  A    between atoms: C_9  and  C_22
REMARK    3  A    between atoms: C_10  and  N_14
REMARK    4  A    between atoms: C_15  and  N_16
REMARK    5  A    between atoms: N_16  and  C_19
REMARK    6  A    between atoms: C_22  and  O_23
REMARK                            x       y       z     vdW  Elec       q    Type
REMARK                         _______ _______ _______ _____ _____    ______ ____
ROOT
ATOM      1  N   UNL     1      33.904 -19.106 -22.282  0.00  0.00    -0.336 N 
ATOM      2  C   UNL     1      34.593 -18.006 -22.942  0.00  0.00    +0.048 C 
ATOM      3  C   UNL     1      36.100 -18.274 -22.994  0.00  0.00    +0.022 C 
ATOM      4  C   UNL     1      36.677 -18.579 -21.612  0.00  0.00    +0.029 C 
ATOM      5  C   UNL     1      35.847 -19.611 -20.890  0.00  0.00    -0.009 C 
ATOM      6  C   UNL     1      34.497 -19.812 -21.244  0.00  0.00    +0.042 C 
ATOM      7  C   UNL     1      36.413 -20.338 -19.834  0.00  0.00    -0.003 C 
ATOM      8  C   UNL     1      33.758 -20.780 -20.548  0.00  0.00    +0.038 C 
ATOM      9  C   UNL     1      35.658 -21.287 -19.147  0.00  0.00    +0.029 C 
ATOM     10  C   UNL     1      34.332 -21.511 -19.506  0.00  0.00    +0.142 C 
ATOM     11  H   UNL     1      32.999 -19.355 -22.579  0.00  0.00    +0.147 HD
ENDROOT
BRANCH  10  14
ATOM     12  O   UNL     1      32.583 -22.093 -18.121  0.00  0.00    -0.126 OA
ATOM     13  O   UNL     1      33.833 -23.694 -18.956  0.00  0.00    -0.126 OA
ATOM     14  N   UNL     1      33.544 -22.481 -18.828  0.00  0.00    +0.057 N 
ENDBRANCH  10  14
BRANCH   2  15
ATOM     15  C   UNL     1      34.242 -16.690 -22.250  0.00  0.00    -0.062 C 
BRANCH  15  16
ATOM     16  N   UNL     1      34.903 -15.567 -22.899  0.00  0.00    +0.386 N 
ATOM     17  H   UNL     1      35.361 -15.898 -23.749  0.00  0.00    -0.084 HD
ATOM     18  H   UNL     1      35.587 -15.175 -22.253  0.00  0.00    -0.084 HD
BRANCH  16  19
ATOM     19  C   UNL     1      33.945 -14.527 -23.248  0.00  0.00    -0.062 C 
ATOM     20  C   UNL     1      32.813 -14.485 -22.226  0.00  0.00    -0.023 C 
ATOM     21  C   UNL     1      33.406 -14.784 -24.653  0.00  0.00    -0.023 C 
ENDBRANCH  16  19
ENDBRANCH  15  16
ENDBRANCH   2  15
BRANCH   9  22
ATOM     22  C   UNL     1      36.301 -22.043 -18.029  0.00  0.00    +0.165 C 
BRANCH  22  23
ATOM     23  O   UNL     1      37.057 -21.145 -17.229  0.00  0.00    -0.377 OA
ATOM     24  H   UNL     1      36.635 -21.055 -16.360  0.00  0.00    +0.211 HD
ENDBRANCH  22  23
ENDBRANCH   9  22
TORSDOF 6
ENDMDL
MODEL 3
REMARK VINA RESULT:      -7.9      3.488      5.375
REMARK  Name = 4612
REMARK  6 active torsions:
REMARK  status: ('A' for Active; 'I' for Inactive)
REMARK    1  A    between atoms: C_2  and  C_15
REMARK    2  A    between atoms: C_9  and  C_22
REMARK    3  A    between atoms: C_10  and  N_14
REMARK    4  A    between atoms: C_15  and  N_16
REMARK    5  A    between atoms: N_16  and  C_19
REMARK    6  A    between atoms: C_22  and  O_23
REMARK                            x       y       z     vdW  Elec       q    Type
REMARK                         _______ _______ _______ _____ _____    ______ ____
ROOT
ATOM      1  N   UNL     1      32.876 -14.063 -23.069  0.00  0.00    -0.336 N 
ATOM      2  C   UNL     1      33.227 -15.378 -22.552  0.00  0.00    +0.048 C 
ATOM      3  C   UNL     1      32.421 -15.688 -21.287  0.00  0.00    +0.022 C 
ATOM      4  C   UNL     1      32.562 -14.590 -20.234  0.00  0.00    +0.029 C 
ATOM      5  C   UNL     1      32.347 -13.224 -20.837  0.00  0.00    -0.009 C 
ATOM      6  C   UNL     1      32.532 -13.020 -22.219  0.00  0.00    +0.042 C 
ATOM      7  C   UNL     1      32.004 -12.148 -20.007  0.00  0.00    -0.003 C 
ATOM      8  C   UNL     1      32.323 -11.735 -22.742  0.00  0.00    +0.038 C 
ATOM      9  C   UNL     1      31.813 -10.876 -20.544  0.00  0.00    +0.029 C 
ATOM     10  C   UNL     1      31.968 -10.670 -21.911  0.00  0.00    +0.142 C 
ATOM     11  H   UNL     1      32.881 -13.910 -24.042  0.00  0.00    +0.147 HD
ENDROOT
BRANCH  10  14
ATOM     12  O   UNL     1      30.678  -9.138 -23.052  0.00  0.00    -0.126 OA
ATOM     13  O   UNL     1      32.689  -8.537 -22.406  0.00  0.00    -0.126 OA
ATOM     14  N   UNL     1      31.769  -9.384 -22.485  0.00  0.00    +0.057 N 
ENDBRANCH  10  14
BRANCH   2  15
ATOM     15  C   UNL     1      34.737 -15.459 -22.336  0.00  0.00    -0.062 C 
BRANCH  15  16
ATOM     16  N   UNL     1      35.381 -16.188 -23.419  0.00  0.00    +0.386 N 
ATOM     17  H   UNL     1      36.351 -16.374 -23.163  0.00  0.00    -0.084 HD
ATOM     18  H   UNL     1      35.337 -15.619 -24.264  0.00  0.00    -0.084 HD
BRANCH  16  19
ATOM     19  C   UNL     1      34.703 -17.452 -23.674  0.00  0.00    -0.062 C 
ATOM     20  C   UNL     1      35.462 -18.601 -23.019  0.00  0.00    -0.023 C 
ATOM     21  C   UNL     1      34.577 -17.665 -25.180  0.00  0.00    -0.023 C 
ENDBRANCH  16  19
ENDBRANCH  15  16
ENDBRANCH   2  15
BRANCH   9  22
ATOM     22  C   UNL     1      31.444  -9.757 -19.625  0.00  0.00    +0.165 C 
BRANCH  22  23
ATOM     23  O   UNL     1      32.606  -8.996 -19.322  0.00  0.00    -0.377 OA
ATOM     24  H   UNL     1      32.480  -8.082 -19.622  0.00  0.00    +0.211 HD
ENDBRANCH  22  23
ENDBRANCH   9  22
TORSDOF 6
ENDMDL
MODEL 4
REMARK VINA RESULT:      -7.7      7.095     10.814
REMARK  Name = 4612
REMARK  6 active torsions:
REMARK  status: ('A' for Active; 'I' for Inactive)
REMARK    1  A    between atoms: C_2  and  C_15
REMARK    2  A    between atoms: C_9  and  C_22
REMARK    3  A    between atoms: C_10  and  N_14
REMARK    4  A    between atoms: C_15  and  N_16
REMARK    5  A    between atoms: N_16  and  C_19
REMARK    6  A    between atoms: C_22  and  O_23
REMARK                            x       y       z     vdW  Elec       q    Type
REMARK                         _______ _______ _______ _____ _____    ______ ____
ROOT
ATOM      1  N   UNL     1      32.809 -22.558 -18.875  0.00  0.00    -0.336 N 
ATOM      2  C   UNL     1      33.625 -21.905 -19.889  0.00  0.00    +0.048 C 
ATOM      3  C   UNL     1      35.091 -22.326 -19.748  0.00  0.00    +0.022 C 
ATOM      4  C   UNL     1      35.621 -22.094 -18.334  0.00  0.00    +0.029 C 
ATOM      5  C   UNL     1      34.673 -22.645 -17.299  0.00  0.00    -0.009 C 
ATOM      6  C   UNL     1      33.311 -22.833 -17.610  0.00  0.00    +0.042 C 
ATOM      7  C   UNL     1      35.145 -22.929 -16.009  0.00  0.00    -0.003 C 
ATOM      8  C   UNL     1      32.460 -23.346 -16.619  0.00  0.00    +0.038 C 
ATOM      9  C   UNL     1      34.281 -23.427 -15.036  0.00  0.00    +0.029 C 
ATOM     10  C   UNL     1      32.940 -23.639 -15.341  0.00  0.00    +0.142 C 
ATOM     11  H   UNL     1      31.882 -22.811 -19.092  0.00  0.00    +0.147 HD
ENDROOT
BRANCH  10  14
ATOM     12  O   UNL     1      31.304 -23.360 -13.742  0.00  0.00    -0.126 OA
ATOM     13  O   UNL     1      32.013 -25.393 -14.167  0.00  0.00    -0.126 OA
ATOM     14  N   UNL     1      32.041 -24.157 -14.369  0.00  0.00    +0.057 N 
ENDBRANCH  10  14
BRANCH   2  15
ATOM     15  C   UNL     1      33.426 -20.392 -19.814  0.00  0.00    -0.062 C 
BRANCH  15  16
ATOM     16  N   UNL     1      33.303 -19.815 -21.144  0.00  0.00    +0.386 N 
ATOM     17  H   UNL     1      32.520 -19.161 -21.152  0.00  0.00    -0.084 HD
ATOM     18  H   UNL     1      33.146 -20.570 -21.813  0.00  0.00    -0.084 HD
BRANCH  16  19
ATOM     19  C   UNL     1      34.519 -19.108 -21.522  0.00  0.00    -0.062 C 
ATOM     20  C   UNL     1      34.398 -17.627 -21.179  0.00  0.00    -0.023 C 
ATOM     21  C   UNL     1      34.781 -19.307 -23.012  0.00  0.00    -0.023 C 
ENDBRANCH  16  19
ENDBRANCH  15  16
ENDBRANCH   2  15
BRANCH   9  22
ATOM     22  C   UNL     1      34.826 -23.719 -13.675  0.00  0.00    +0.165 C 
BRANCH  22  23
ATOM     23  O   UNL     1      35.084 -25.112 -13.563  0.00  0.00    -0.377 OA
ATOM     24  H   UNL     1      34.247 -25.600 -13.616  0.00  0.00    +0.211 HD
ENDBRANCH  22  23
ENDBRANCH   9  22
TORSDOF 6
ENDMDL
MODEL 5
REMARK VINA RESULT:      -7.6      1.575      2.240
REMARK  Name = 4612
REMARK  6 active torsions:
REMARK  status: ('A' for Active; 'I' for Inactive)
REMARK    1  A    between atoms: C_2  and  C_15
REMARK    2  A    between atoms: C_9  and  C_22
REMARK    3  A    between atoms: C_10  and  N_14
REMARK    4  A    between atoms: C_15  and  N_16
REMARK    5  A    between atoms: N_16  and  C_19
REMARK    6  A    between atoms: C_22  and  O_23
REMARK                            x       y       z     vdW  Elec       q    Type
REMARK                         _______ _______ _______ _____ _____    ______ ____
ROOT
ATOM      1  N   UNL     1      35.216 -17.487 -20.771  0.00  0.00    -0.336 N 
ATOM      2  C   UNL     1      35.854 -18.714 -21.227  0.00  0.00    +0.048 C 
ATOM      3  C   UNL     1      36.519 -18.496 -22.589  0.00  0.00    +0.022 C 
ATOM      4  C   UNL     1      35.544 -17.927 -23.619  0.00  0.00    +0.029 C 
ATOM      5  C   UNL     1      34.783 -16.751 -23.059  0.00  0.00    -0.009 C 
ATOM      6  C   UNL     1      34.638 -16.597 -21.666  0.00  0.00    +0.042 C 
ATOM      7  C   UNL     1      34.182 -15.835 -23.935  0.00  0.00    -0.003 C 
ATOM      8  C   UNL     1      33.922 -15.490 -21.184  0.00  0.00    +0.038 C 
ATOM      9  C   UNL     1      33.465 -14.749 -23.436  0.00  0.00    +0.029 C 
ATOM     10  C   UNL     1      33.338 -14.575 -22.061  0.00  0.00    +0.142 C 
ATOM     11  H   UNL     1      35.195 -17.284 -19.808  0.00  0.00    +0.147 HD
ENDROOT
BRANCH  10  14
ATOM     12  O   UNL     1      32.318 -12.520 -22.289  0.00  0.00    -0.126 OA
ATOM     13  O   UNL     1      32.310 -13.478 -20.313  0.00  0.00    -0.126 OA
ATOM     14  N   UNL     1      32.620 -13.469 -21.528  0.00  0.00    +0.057 N 
ENDBRANCH  10  14
BRANCH   2  15
ATOM     15  C   UNL     1      34.835 -19.852 -21.233  0.00  0.00    -0.062 C 
BRANCH  15  16
ATOM     16  N   UNL     1      34.527 -20.283 -19.878  0.00  0.00    +0.386 N 
ATOM     17  H   UNL     1      33.514 -20.299 -19.757  0.00  0.00    -0.084 HD
ATOM     18  H   UNL     1      34.955 -19.628 -19.223  0.00  0.00    -0.084 HD
BRANCH  16  19
ATOM     19  C   UNL     1      35.059 -21.614 -19.618  0.00  0.00    -0.062 C 
ATOM     20  C   UNL     1      34.029 -22.461 -18.878  0.00  0.00    -0.023 C 
ATOM     21  C   UNL     1      36.351 -21.495 -18.814  0.00  0.00    -0.023 C 
ENDBRANCH  16  19
ENDBRANCH  15  16
ENDBRANCH   2  15
BRANCH   9  22
ATOM     22  C   UNL     1      32.844 -13.795 -24.403  0.00  0.00    +0.165 C 
BRANCH  22  23
ATOM     23  O   UNL     1      33.772 -12.763 -24.707  0.00  0.00    -0.377 OA
ATOM     24  H   UNL     1      33.761 -12.589 -25.661  0.00  0.00    +0.211 HD
ENDBRANCH  22  23
ENDBRANCH   9  22
TORSDOF 6
ENDMDL
MODEL 6
REMARK VINA RESULT:      -7.6     10.405     12.541
REMARK  Name = 4612
REMARK  6 active torsions:
REMARK  status: ('A' for Active; 'I' for Inactive)
REMARK    1  A    between atoms: C_2  and  C_15
REMARK    2  A    between atoms: C_9  and  C_22
REMARK    3  A    between atoms: C_10  and  N_14
REMARK    4  A    between atoms: C_15  and  N_16
REMARK    5  A    between atoms: N_16  and  C_19
REMARK    6  A    between atoms: C_22  and  O_23
REMARK                            x       y       z     vdW  Elec       q    Type
REMARK                         _______ _______ _______ _____ _____    ______ ____
ROOT
ATOM      1  N   UNL     1      34.874 -24.680 -12.303  0.00  0.00    -0.336 N 
ATOM      2  C   UNL     1      36.318 -24.528 -12.196  0.00  0.00    +0.048 C 
ATOM      3  C   UNL     1      36.780 -23.270 -12.939  0.00  0.00    +0.022 C 
ATOM      4  C   UNL     1      36.297 -23.251 -14.388  0.00  0.00    +0.029 C 
ATOM      5  C   UNL     1      34.825 -23.569 -14.478  0.00  0.00    -0.009 C 
ATOM      6  C   UNL     1      34.188 -24.284 -13.443  0.00  0.00    +0.042 C 
ATOM      7  C   UNL     1      34.103 -23.188 -15.617  0.00  0.00    -0.003 C 
ATOM      8  C   UNL     1      32.818 -24.562 -13.563  0.00  0.00    +0.038 C 
ATOM      9  C   UNL     1      32.745 -23.484 -15.723  0.00  0.00    +0.029 C 
ATOM     10  C   UNL     1      32.102 -24.167 -14.695  0.00  0.00    +0.142 C 
ATOM     11  H   UNL     1      34.374 -25.072 -11.551  0.00  0.00    +0.147 HD
ENDROOT
BRANCH  10  14
ATOM     12  O   UNL     1      29.882 -23.549 -14.607  0.00  0.00    -0.126 OA
ATOM     13  O   UNL     1      30.367 -25.652 -15.010  0.00  0.00    -0.126 OA
ATOM     14  N   UNL     1      30.715 -24.472 -14.775  0.00  0.00    +0.057 N 
ENDBRANCH  10  14
BRANCH   2  15
ATOM     15  C   UNL     1      37.008 -25.800 -12.685  0.00  0.00    -0.062 C 
BRANCH  15  16
ATOM     16  N   UNL     1      38.428 -25.570 -12.906  0.00  0.00    +0.386 N 
ATOM     17  H   UNL     1      38.957 -26.013 -12.154  0.00  0.00    -0.084 HD
ATOM     18  H   UNL     1      38.597 -24.565 -12.917  0.00  0.00    -0.084 HD
BRANCH  16  19
ATOM     19  C   UNL     1      38.856 -26.127 -14.182  0.00  0.00    -0.062 C 
ATOM     20  C   UNL     1      39.671 -25.100 -14.962  0.00  0.00    -0.023 C 
ATOM     21  C   UNL     1      37.632 -26.574 -14.976  0.00  0.00    -0.023 C 
ENDBRANCH  16  19
ENDBRANCH  15  16
ENDBRANCH   2  15
BRANCH   9  22
ATOM     22  C   UNL     1      32.011 -23.057 -16.953  0.00  0.00    +0.165 C 
BRANCH  22  23
ATOM     23  O   UNL     1      32.927 -22.956 -18.034  0.00  0.00    -0.377 OA
ATOM     24  H   UNL     1      33.277 -22.052 -18.078  0.00  0.00    +0.211 HD
ENDBRANCH  22  23
ENDBRANCH   9  22
TORSDOF 6
ENDMDL
MODEL 7
REMARK VINA RESULT:      -7.6     10.140     11.959
REMARK  Name = 4612
REMARK  6 active torsions:
REMARK  status: ('A' for Active; 'I' for Inactive)
REMARK    1  A    between atoms: C_2  and  C_15
REMARK    2  A    between atoms: C_9  and  C_22
REMARK    3  A    between atoms: C_10  and  N_14
REMARK    4  A    between atoms: C_15  and  N_16
REMARK    5  A    between atoms: N_16  and  C_19
REMARK    6  A    between atoms: C_22  and  O_23
REMARK                            x       y       z     vdW  Elec       q    Type
REMARK                         _______ _______ _______ _____ _____    ______ ____
ROOT
ATOM      1  N   UNL     1      36.190 -23.299 -14.043  0.00  0.00    -0.336 N 
ATOM      2  C   UNL     1      37.375 -22.995 -14.832  0.00  0.00    +0.048 C 
ATOM      3  C   UNL     1      37.024 -22.044 -15.980  0.00  0.00    +0.022 C 
ATOM      4  C   UNL     1      35.875 -22.577 -16.835  0.00  0.00    +0.029 C 
ATOM      5  C   UNL     1      34.721 -23.032 -15.976  0.00  0.00    -0.009 C 
ATOM      6  C   UNL     1      34.935 -23.390 -14.630  0.00  0.00    +0.042 C 
ATOM      7  C   UNL     1      33.441 -23.140 -16.538  0.00  0.00    -0.003 C 
ATOM      8  C   UNL     1      33.837 -23.809 -13.864  0.00  0.00    +0.038 C 
ATOM      9  C   UNL     1      32.365 -23.570 -15.763  0.00  0.00    +0.029 C 
ATOM     10  C   UNL     1      32.562 -23.901 -14.426  0.00  0.00    +0.142 C 
ATOM     11  H   UNL     1      36.281 -23.443 -13.073  0.00  0.00    +0.147 HD
ENDROOT
BRANCH  10  14
ATOM     12  O   UNL     1      31.082 -25.518 -13.711  0.00  0.00    -0.126 OA
ATOM     13  O   UNL     1      30.953 -23.515 -12.821  0.00  0.00    -0.126 OA
ATOM     14  N   UNL     1      31.478 -24.332 -13.612  0.00  0.00    +0.057 N 
ENDBRANCH  10  14
BRANCH   2  15
ATOM     15  C   UNL     1      38.026 -24.293 -15.307  0.00  0.00    -0.062 C 
BRANCH  15  16
ATOM     16  N   UNL     1      38.636 -25.008 -14.195  0.00  0.00    +0.386 N 
ATOM     17  H   UNL     1      38.535 -24.450 -13.347  0.00  0.00    -0.084 HD
ATOM     18  H   UNL     1      39.622 -25.160 -14.408  0.00  0.00    -0.084 HD
BRANCH  16  19
ATOM     19  C   UNL     1      38.000 -26.303 -13.993  0.00  0.00    -0.062 C 
ATOM     20  C   UNL     1      37.039 -26.605 -15.138  0.00  0.00    -0.023 C 
ATOM     21  C   UNL     1      37.274 -26.308 -12.651  0.00  0.00    -0.023 C 
ENDBRANCH  16  19
ENDBRANCH  15  16
ENDBRANCH   2  15
BRANCH   9  22
ATOM     22  C   UNL     1      31.017 -23.667 -16.400  0.00  0.00    +0.165 C 
BRANCH  22  23
ATOM     23  O   UNL     1      30.744 -22.465 -17.106  0.00  0.00    -0.377 OA
ATOM     24  H   UNL     1      30.234 -21.865 -16.538  0.00  0.00    +0.211 HD
ENDBRANCH  22  23
ENDBRANCH   9  22
TORSDOF 6
ENDMDL
MODEL 8
REMARK VINA RESULT:      -7.6      3.459      7.062
REMARK  Name = 4612
REMARK  6 active torsions:
REMARK  status: ('A' for Active; 'I' for Inactive)
REMARK    1  A    between atoms: C_2  and  C_15
REMARK    2  A    between atoms: C_9  and  C_22
REMARK    3  A    between atoms: C_10  and  N_14
REMARK    4  A    between atoms: C_15  and  N_16
REMARK    5  A    between atoms: N_16  and  C_19
REMARK    6  A    between atoms: C_22  and  O_23
REMARK                            x       y       z     vdW  Elec       q    Type
REMARK                         _______ _______ _______ _____ _____    ______ ____
ROOT
ATOM      1  N   UNL     1      33.103 -14.023 -23.370  0.00  0.00    -0.336 N 
ATOM      2  C   UNL     1      32.935 -13.161 -24.531  0.00  0.00    +0.048 C 
ATOM      3  C   UNL     1      32.609 -13.996 -25.774  0.00  0.00    +0.022 C 
ATOM      4  C   UNL     1      33.639 -15.099 -26.010  0.00  0.00    +0.029 C 
ATOM      5  C   UNL     1      33.908 -15.875 -24.744  0.00  0.00    -0.009 C 
ATOM      6  C   UNL     1      33.647 -15.295 -23.486  0.00  0.00    +0.042 C 
ATOM      7  C   UNL     1      34.462 -17.160 -24.824  0.00  0.00    -0.003 C 
ATOM      8  C   UNL     1      33.911 -16.048 -22.332  0.00  0.00    +0.038 C 
ATOM      9  C   UNL     1      34.729 -17.887 -23.666  0.00  0.00    +0.029 C 
ATOM     10  C   UNL     1      34.450 -17.333 -22.420  0.00  0.00    +0.142 C 
ATOM     11  H   UNL     1      32.823 -13.697 -22.484  0.00  0.00    +0.147 HD
ENDROOT
BRANCH  10  14
ATOM     12  O   UNL     1      33.857 -18.899 -20.835  0.00  0.00    -0.126 OA
ATOM     13  O   UNL     1      35.763 -17.836 -20.594  0.00  0.00    -0.126 OA
ATOM     14  N   UNL     1      34.703 -18.058 -21.223  0.00  0.00    +0.057 N 
ENDBRANCH  10  14
BRANCH   2  15
ATOM     15  C   UNL     1      34.174 -12.285 -24.706  0.00  0.00    -0.062 C 
BRANCH  15  16
ATOM     16  N   UNL     1      34.022 -11.020 -24.003  0.00  0.00    +0.386 N 
ATOM     17  H   UNL     1      34.059 -11.192 -22.998  0.00  0.00    -0.084 HD
ATOM     18  H   UNL     1      33.125 -10.609 -24.262  0.00  0.00    -0.084 HD
BRANCH  16  19
ATOM     19  C   UNL     1      35.080 -10.088 -24.367  0.00  0.00    -0.062 C 
ATOM     20  C   UNL     1      34.633  -8.652 -24.111  0.00  0.00    -0.023 C 
ATOM     21  C   UNL     1      35.456 -10.293 -25.831  0.00  0.00    -0.023 C 
ENDBRANCH  16  19
ENDBRANCH  15  16
ENDBRANCH   2  15
BRANCH   9  22
ATOM     22  C   UNL     1      35.316 -19.255 -23.796  0.00  0.00    +0.165 C 
BRANCH  22  23
ATOM     23  O   UNL     1      34.723 -19.916 -24.905  0.00  0.00    -0.377 OA
ATOM     24  H   UNL     1      35.384 -20.027 -25.606  0.00  0.00    +0.211 HD
ENDBRANCH  22  23
ENDBRANCH   9  22
TORSDOF 6
ENDMDL
MODEL 9
REMARK VINA RESULT:      -7.5      6.395      9.498
REMARK  Name = 4612
REMARK  6 active torsions:
REMARK  status: ('A' for Active; 'I' for Inactive)
REMARK    1  A    between atoms: C_2  and  C_15
REMARK    2  A    between atoms: C_9  and  C_22
REMARK    3  A    between atoms: C_10  and  N_14
REMARK    4  A    between atoms: C_15  and  N_16
REMARK    5  A    between atoms: N_16  and  C_19
REMARK    6  A    between atoms: C_22  and  O_23
REMARK                            x       y       z     vdW  Elec       q    Type
REMARK                         _______ _______ _______ _____ _____    ______ ____
ROOT
ATOM      1  N   UNL     1      34.828 -23.350 -15.669  0.00  0.00    -0.336 N 
ATOM      2  C   UNL     1      35.836 -23.832 -14.736  0.00  0.00    +0.048 C 
ATOM      3  C   UNL     1      37.034 -22.878 -14.704  0.00  0.00    +0.022 C 
ATOM      4  C   UNL     1      37.603 -22.625 -16.099  0.00  0.00    +0.029 C 
ATOM      5  C   UNL     1      36.510 -22.282 -17.081  0.00  0.00    -0.009 C 
ATOM      6  C   UNL     1      35.180 -22.676 -16.830  0.00  0.00    +0.042 C 
ATOM      7  C   UNL     1      36.832 -21.606 -18.266  0.00  0.00    -0.003 C 
ATOM      8  C   UNL     1      34.192 -22.339 -17.768  0.00  0.00    +0.038 C 
ATOM      9  C   UNL     1      35.838 -21.292 -19.191  0.00  0.00    +0.029 C 
ATOM     10  C   UNL     1      34.518 -21.654 -18.940  0.00  0.00    +0.142 C 
ATOM     11  H   UNL     1      33.875 -23.506 -15.472  0.00  0.00    +0.147 HD
ENDROOT
BRANCH  10  14
ATOM     12  O   UNL     1      33.369 -20.150 -20.256  0.00  0.00    -0.126 OA
ATOM     13  O   UNL     1      32.719 -22.247 -20.254  0.00  0.00    -0.126 OA
ATOM     14  N   UNL     1      33.484 -21.335 -19.862  0.00  0.00    +0.057 N 
ENDBRANCH  10  14
BRANCH   2  15
ATOM     15  C   UNL     1      36.222 -25.267 -15.090  0.00  0.00    -0.062 C 
BRANCH  15  16
ATOM     16  N   UNL     1      36.205 -26.118 -13.909  0.00  0.00    +0.386 N 
ATOM     17  H   UNL     1      35.746 -26.999 -14.141  0.00  0.00    -0.084 HD
ATOM     18  H   UNL     1      35.698 -25.635 -13.167  0.00  0.00    -0.084 HD
BRANCH  16  19
ATOM     19  C   UNL     1      37.558 -26.394 -13.444  0.00  0.00    -0.062 C 
ATOM     20  C   UNL     1      37.907 -25.488 -12.267  0.00  0.00    -0.023 C 
ATOM     21  C   UNL     1      38.540 -26.201 -14.595  0.00  0.00    -0.023 C 
ENDBRANCH  16  19
ENDBRANCH  15  16
ENDBRANCH   2  15
BRANCH   9  22
ATOM     22  C   UNL     1      36.223 -20.567 -20.440  0.00  0.00    +0.165 C 
BRANCH  22  23
ATOM     23  O   UNL     1      36.173 -19.167 -20.204  0.00  0.00    -0.377 OA
ATOM     24  H   UNL     1      36.885 -18.917 -19.594  0.00  0.00    +0.211 HD
ENDBRANCH  22  23
ENDBRANCH   9  22
TORSDOF 6
ENDMDL
