MODEL 1
REMARK VINA RESULT:      -3.7      0.000      0.000
REMARK  Name = 6578
REMARK  1 active torsions:
REMARK  status: ('A' for Active; 'I' for Inactive)
REMARK    1  A    between atoms: C_3  and  C_6
REMARK                            x       y       z     vdW  Elec       q    Type
REMARK                         _______ _______ _______ _____ _____    ______ ____
ROOT
ATOM      1  O   UNL     1      35.139 -22.464 -19.071  0.00  0.00    -0.275 OA
ATOM      2  N   UNL     1      32.867 -22.113 -18.996  0.00  0.00    -0.329 N 
ATOM      3  C   UNL     1      34.153 -21.804 -19.384  0.00  0.00    +0.219 C 
ATOM      4  H   UNL     1      32.700 -22.905 -18.435  0.00  0.00    +0.145 HD
ATOM      5  H   UNL     1      32.117 -21.544 -19.280  0.00  0.00    +0.145 HD
ENDROOT
BRANCH   3   6
ATOM      6  C   UNL     1      34.210 -20.555 -20.241  0.00  0.00    +0.085 C 
ATOM      7  C   UNL     1      32.833 -19.990 -20.536  0.00  0.00    +0.010 C 
ENDBRANCH   3   6
TORSDOF 1
ENDMDL
MODEL 2
REMARK VINA RESULT:      -3.7      6.340      6.693
REMARK  Name = 6578
REMARK  1 active torsions:
REMARK  status: ('A' for Active; 'I' for Inactive)
REMARK    1  A    between atoms: C_3  and  C_6
REMARK                            x       y       z     vdW  Elec       q    Type
REMARK                         _______ _______ _______ _____ _____    ______ ____
ROOT
ATOM      1  O   UNL     1      34.620 -16.696 -25.907  0.00  0.00    -0.275 OA
ATOM      2  N   UNL     1      35.467 -16.694 -23.769  0.00  0.00    -0.329 N 
ATOM      3  C   UNL     1      34.853 -17.281 -24.854  0.00  0.00    +0.219 C 
ATOM      4  H   UNL     1      35.748 -15.751 -23.813  0.00  0.00    +0.145 HD
ATOM      5  H   UNL     1      35.626 -17.217 -22.950  0.00  0.00    +0.145 HD
ENDROOT
BRANCH   3   6
ATOM      6  C   UNL     1      34.496 -18.732 -24.597  0.00  0.00    +0.085 C 
ATOM      7  C   UNL     1      34.808 -19.164 -23.176  0.00  0.00    +0.010 C 
ENDBRANCH   3   6
TORSDOF 1
ENDMDL
MODEL 3
REMARK VINA RESULT:      -3.6      1.656      1.761
REMARK  Name = 6578
REMARK  1 active torsions:
REMARK  status: ('A' for Active; 'I' for Inactive)
REMARK    1  A    between atoms: C_3  and  C_6
REMARK                            x       y       z     vdW  Elec       q    Type
REMARK                         _______ _______ _______ _____ _____    ______ ____
ROOT
ATOM      1  O   UNL     1      32.751 -22.084 -18.988  0.00  0.00    -0.275 OA
ATOM      2  N   UNL     1      34.840 -21.322 -19.575  0.00  0.00    -0.329 N 
ATOM      3  C   UNL     1      33.462 -21.292 -19.598  0.00  0.00    +0.219 C 
ATOM      4  H   UNL     1      35.309 -22.008 -19.046  0.00  0.00    +0.145 HD
ATOM      5  H   UNL     1      35.356 -20.658 -20.087  0.00  0.00    +0.145 HD
ENDROOT
BRANCH   3   6
ATOM      6  C   UNL     1      32.927 -20.169 -20.465  0.00  0.00    +0.085 C 
ATOM      7  C   UNL     1      34.033 -19.330 -21.077  0.00  0.00    +0.010 C 
ENDBRANCH   3   6
TORSDOF 1
ENDMDL
MODEL 4
REMARK VINA RESULT:      -3.5     10.240     10.396
REMARK  Name = 6578
REMARK  1 active torsions:
REMARK  status: ('A' for Active; 'I' for Inactive)
REMARK    1  A    between atoms: C_3  and  C_6
REMARK                            x       y       z     vdW  Elec       q    Type
REMARK                         _______ _______ _______ _____ _____    ______ ____
ROOT
ATOM      1  O   UNL     1      42.598 -16.381 -16.045  0.00  0.00    -0.275 OA
ATOM      2  N   UNL     1      40.527 -15.782 -15.243  0.00  0.00    -0.329 N 
ATOM      3  C   UNL     1      41.684 -15.567 -15.961  0.00  0.00    +0.219 C 
ATOM      4  H   UNL     1      40.399 -16.631 -14.760  0.00  0.00    +0.145 HD
ATOM      5  H   UNL     1      39.829 -15.089 -15.215  0.00  0.00    +0.145 HD
ENDROOT
BRANCH   3   6
ATOM      6  C   UNL     1      41.699 -14.208 -16.633  0.00  0.00    +0.085 C 
ATOM      7  C   UNL     1      41.211 -14.266 -18.069  0.00  0.00    +0.010 C 
ENDBRANCH   3   6
TORSDOF 1
ENDMDL
MODEL 5
REMARK VINA RESULT:      -3.5      1.605      1.605
REMARK  Name = 6578
REMARK  1 active torsions:
REMARK  status: ('A' for Active; 'I' for Inactive)
REMARK    1  A    between atoms: C_3  and  C_6
REMARK                            x       y       z     vdW  Elec       q    Type
REMARK                         _______ _______ _______ _____ _____    ______ ____
ROOT
ATOM      1  O   UNL     1      35.012 -22.630 -19.183  0.00  0.00    -0.275 OA
ATOM      2  N   UNL     1      35.619 -20.526 -19.883  0.00  0.00    -0.329 N 
ATOM      3  C   UNL     1      34.704 -21.504 -19.558  0.00  0.00    +0.219 C 
ATOM      4  H   UNL     1      36.584 -20.714 -19.819  0.00  0.00    +0.145 HD
ATOM      5  H   UNL     1      35.309 -19.640 -20.179  0.00  0.00    +0.145 HD
ENDROOT
BRANCH   3   6
ATOM      6  C   UNL     1      33.274 -21.028 -19.720  0.00  0.00    +0.085 C 
ATOM      7  C   UNL     1      33.144 -19.913 -20.741  0.00  0.00    +0.010 C 
ENDBRANCH   3   6
TORSDOF 1
ENDMDL
MODEL 6
REMARK VINA RESULT:      -3.5      1.822      1.997
REMARK  Name = 6578
REMARK  1 active torsions:
REMARK  status: ('A' for Active; 'I' for Inactive)
REMARK    1  A    between atoms: C_3  and  C_6
REMARK                            x       y       z     vdW  Elec       q    Type
REMARK                         _______ _______ _______ _____ _____    ______ ____
ROOT
ATOM      1  O   UNL     1      32.593 -20.441 -20.024  0.00  0.00    -0.275 OA
ATOM      2  N   UNL     1      32.927 -22.335 -18.763  0.00  0.00    -0.329 N 
ATOM      3  C   UNL     1      33.349 -21.274 -19.534  0.00  0.00    +0.219 C 
ATOM      4  H   UNL     1      31.968 -22.457 -18.577  0.00  0.00    +0.145 HD
ATOM      5  H   UNL     1      33.584 -22.971 -18.398  0.00  0.00    +0.145 HD
ENDROOT
BRANCH   3   6
ATOM      6  C   UNL     1      34.855 -21.254 -19.709  0.00  0.00    +0.085 C 
ATOM      7  C   UNL     1      35.315 -20.159 -20.654  0.00  0.00    +0.010 C 
ENDBRANCH   3   6
TORSDOF 1
ENDMDL
MODEL 7
REMARK VINA RESULT:      -3.5      3.002      3.229
REMARK  Name = 6578
REMARK  1 active torsions:
REMARK  status: ('A' for Active; 'I' for Inactive)
REMARK    1  A    between atoms: C_3  and  C_6
REMARK                            x       y       z     vdW  Elec       q    Type
REMARK                         _______ _______ _______ _____ _____    ______ ____
ROOT
ATOM      1  O   UNL     1      36.045 -18.653 -20.666  0.00  0.00    -0.275 OA
ATOM      2  N   UNL     1      34.644 -19.131 -22.427  0.00  0.00    -0.329 N 
ATOM      3  C   UNL     1      35.120 -19.302 -21.144  0.00  0.00    +0.219 C 
ATOM      4  H   UNL     1      35.052 -18.455 -23.016  0.00  0.00    +0.145 HD
ATOM      5  H   UNL     1      33.898 -19.683 -22.753  0.00  0.00    +0.145 HD
ENDROOT
BRANCH   3   6
ATOM      6  C   UNL     1      34.369 -20.383 -20.393  0.00  0.00    +0.085 C 
ATOM      7  C   UNL     1      32.865 -20.183 -20.435  0.00  0.00    +0.010 C 
ENDBRANCH   3   6
TORSDOF 1
ENDMDL
MODEL 8
REMARK VINA RESULT:      -3.4      8.966      9.102
REMARK  Name = 6578
REMARK  1 active torsions:
REMARK  status: ('A' for Active; 'I' for Inactive)
REMARK    1  A    between atoms: C_3  and  C_6
REMARK                            x       y       z     vdW  Elec       q    Type
REMARK                         _______ _______ _______ _____ _____    ______ ____
ROOT
ATOM      1  O   UNL     1      36.807 -26.151 -11.715  0.00  0.00    -0.275 OA
ATOM      2  N   UNL     1      36.929 -26.903 -13.885  0.00  0.00    -0.329 N 
ATOM      3  C   UNL     1      37.366 -26.164 -12.807  0.00  0.00    +0.219 C 
ATOM      4  H   UNL     1      36.124 -27.464 -13.803  0.00  0.00    +0.145 HD
ATOM      5  H   UNL     1      37.422 -26.872 -14.736  0.00  0.00    +0.145 HD
ENDROOT
BRANCH   3   6
ATOM      6  C   UNL     1      38.616 -25.368 -13.126  0.00  0.00    +0.085 C 
ATOM      7  C   UNL     1      39.264 -25.800 -14.428  0.00  0.00    +0.010 C 
ENDBRANCH   3   6
TORSDOF 1
ENDMDL
MODEL 9
REMARK VINA RESULT:      -3.4      7.902      8.260
REMARK  Name = 6578
REMARK  1 active torsions:
REMARK  status: ('A' for Active; 'I' for Inactive)
REMARK    1  A    between atoms: C_3  and  C_6
REMARK                            x       y       z     vdW  Elec       q    Type
REMARK                         _______ _______ _______ _____ _____    ______ ____
ROOT
ATOM      1  O   UNL     1      36.816 -27.125 -15.928  0.00  0.00    -0.275 OA
ATOM      2  N   UNL     1      36.992 -27.107 -13.634  0.00  0.00    -0.329 N 
ATOM      3  C   UNL     1      37.257 -26.624 -14.898  0.00  0.00    +0.219 C 
ATOM      4  H   UNL     1      36.417 -27.899 -13.521  0.00  0.00    +0.145 HD
ATOM      5  H   UNL     1      37.376 -26.661 -12.846  0.00  0.00    +0.145 HD
ENDROOT
BRANCH   3   6
ATOM      6  C   UNL     1      38.157 -25.405 -14.870  0.00  0.00    +0.085 C 
ATOM      7  C   UNL     1      39.592 -25.750 -14.519  0.00  0.00    +0.010 C 
ENDBRANCH   3   6
TORSDOF 1
ENDMDL
