MODEL 1
REMARK VINA RESULT:      -7.0      0.000      0.000
REMARK  Name = 5929
REMARK  4 active torsions:
REMARK  status: ('A' for Active; 'I' for Inactive)
REMARK    1  A    between atoms: C_1  and  N_3
REMARK    2  A    between atoms: C_1  and  C_8
REMARK    3  A    between atoms: N_3  and  N_5
REMARK    4  A    between atoms: C_8  and  C_9
REMARK                            x       y       z     vdW  Elec       q    Type
REMARK                         _______ _______ _______ _____ _____    ______ ____
ROOT
ATOM      1  C   UNL     1      35.318 -18.567 -22.845  0.00  0.00    +0.073 C 
ATOM      2  C   UNL     1      34.707 -19.037 -24.165  0.00  0.00    +0.019 C 
ENDROOT
BRANCH   1   3
ATOM      3  N   UNL     1      35.823 -17.203 -23.031  0.00  0.00    -0.250 NA
ATOM      4  H   UNL     1      35.498 -16.606 -22.270  0.00  0.00    +0.141 HD
BRANCH   3   5
ATOM      5  N   UNL     1      35.325 -16.716 -24.274  0.00  0.00    -0.270 NA
ATOM      6  H   UNL     1      34.636 -17.372 -24.645  0.00  0.00    +0.137 HD
ATOM      7  H   UNL     1      36.096 -16.623 -24.936  0.00  0.00    +0.137 HD
ENDBRANCH   3   5
ENDBRANCH   1   3
BRANCH   1   8
ATOM      8  C   UNL     1      34.306 -18.588 -21.686  0.00  0.00    +0.043 C 
BRANCH   8   9
ATOM      9  C   UNL     1      34.433 -19.801 -20.795  0.00  0.00    -0.021 C 
ATOM     10  C   UNL     1      33.287 -20.400 -20.298  0.00  0.00    -0.004 C 
ATOM     11  C   UNL     1      35.693 -20.291 -20.491  0.00  0.00    -0.004 C 
ATOM     12  C   UNL     1      33.404 -21.520 -19.474  0.00  0.00    -0.000 C 
ATOM     13  C   UNL     1      35.810 -21.411 -19.667  0.00  0.00    -0.000 C 
ATOM     14  C   UNL     1      34.665 -22.026 -19.160  0.00  0.00    -0.000 C 
ENDBRANCH   8   9
ENDBRANCH   1   8
TORSDOF 4
ENDMDL
MODEL 2
REMARK VINA RESULT:      -7.0      0.034      1.457
REMARK  Name = 5929
REMARK  4 active torsions:
REMARK  status: ('A' for Active; 'I' for Inactive)
REMARK    1  A    between atoms: C_1  and  N_3
REMARK    2  A    between atoms: C_1  and  C_8
REMARK    3  A    between atoms: N_3  and  N_5
REMARK    4  A    between atoms: C_8  and  C_9
REMARK                            x       y       z     vdW  Elec       q    Type
REMARK                         _______ _______ _______ _____ _____    ______ ____
ROOT
ATOM      1  C   UNL     1      35.305 -18.569 -22.877  0.00  0.00    +0.073 C 
ATOM      2  C   UNL     1      34.678 -18.993 -24.205  0.00  0.00    +0.019 C 
ENDROOT
BRANCH   1   3
ATOM      3  N   UNL     1      35.847 -17.216 -23.034  0.00  0.00    -0.250 NA
ATOM      4  H   UNL     1      35.535 -16.626 -22.263  0.00  0.00    +0.141 HD
BRANCH   3   5
ATOM      5  N   UNL     1      35.368 -16.692 -24.270  0.00  0.00    -0.270 NA
ATOM      6  H   UNL     1      34.376 -16.469 -24.183  0.00  0.00    +0.137 HD
ATOM      7  H   UNL     1      35.496 -17.387 -25.005  0.00  0.00    +0.137 HD
ENDBRANCH   3   5
ENDBRANCH   1   3
BRANCH   1   8
ATOM      8  C   UNL     1      34.295 -18.587 -21.715  0.00  0.00    +0.043 C 
BRANCH   8   9
ATOM      9  C   UNL     1      34.430 -19.792 -20.815  0.00  0.00    -0.021 C 
ATOM     10  C   UNL     1      35.692 -20.276 -20.513  0.00  0.00    -0.004 C 
ATOM     11  C   UNL     1      33.288 -20.392 -20.308  0.00  0.00    -0.004 C 
ATOM     12  C   UNL     1      35.817 -21.389 -19.682  0.00  0.00    -0.000 C 
ATOM     13  C   UNL     1      33.412 -21.506 -19.478  0.00  0.00    -0.000 C 
ATOM     14  C   UNL     1      34.676 -22.004 -19.164  0.00  0.00    -0.000 C 
ENDBRANCH   8   9
ENDBRANCH   1   8
TORSDOF 4
ENDMDL
MODEL 3
REMARK VINA RESULT:      -6.9      1.185      2.183
REMARK  Name = 5929
REMARK  4 active torsions:
REMARK  status: ('A' for Active; 'I' for Inactive)
REMARK    1  A    between atoms: C_1  and  N_3
REMARK    2  A    between atoms: C_1  and  C_8
REMARK    3  A    between atoms: N_3  and  N_5
REMARK    4  A    between atoms: C_8  and  C_9
REMARK                            x       y       z     vdW  Elec       q    Type
REMARK                         _______ _______ _______ _____ _____    ______ ____
ROOT
ATOM      1  C   UNL     1      34.908 -17.028 -22.089  0.00  0.00    +0.073 C 
ATOM      2  C   UNL     1      34.776 -16.031 -20.938  0.00  0.00    +0.019 C 
ENDROOT
BRANCH   1   3
ATOM      3  N   UNL     1      35.509 -16.336 -23.233  0.00  0.00    -0.250 NA
ATOM      4  H   UNL     1      35.101 -15.406 -23.328  0.00  0.00    +0.141 HD
BRANCH   3   5
ATOM      5  N   UNL     1      35.239 -17.104 -24.402  0.00  0.00    -0.270 NA
ATOM      6  H   UNL     1      34.327 -16.842 -24.778  0.00  0.00    +0.137 HD
ATOM      7  H   UNL     1      35.235 -18.096 -24.163  0.00  0.00    +0.137 HD
ENDBRANCH   3   5
ENDBRANCH   1   3
BRANCH   1   8
ATOM      8  C   UNL     1      35.768 -18.249 -21.716  0.00  0.00    +0.043 C 
BRANCH   8   9
ATOM      9  C   UNL     1      35.000 -19.334 -21.000  0.00  0.00    -0.021 C 
ATOM     10  C   UNL     1      35.694 -20.322 -20.321  0.00  0.00    -0.004 C 
ATOM     11  C   UNL     1      33.615 -19.322 -21.037  0.00  0.00    -0.004 C 
ATOM     12  C   UNL     1      34.984 -21.325 -19.660  0.00  0.00    -0.000 C 
ATOM     13  C   UNL     1      32.904 -20.325 -20.376  0.00  0.00    -0.000 C 
ATOM     14  C   UNL     1      33.589 -21.325 -19.687  0.00  0.00    -0.000 C 
ENDBRANCH   8   9
ENDBRANCH   1   8
TORSDOF 4
ENDMDL
MODEL 4
REMARK VINA RESULT:      -6.9      1.060      1.485
REMARK  Name = 5929
REMARK  4 active torsions:
REMARK  status: ('A' for Active; 'I' for Inactive)
REMARK    1  A    between atoms: C_1  and  N_3
REMARK    2  A    between atoms: C_1  and  C_8
REMARK    3  A    between atoms: N_3  and  N_5
REMARK    4  A    between atoms: C_8  and  C_9
REMARK                            x       y       z     vdW  Elec       q    Type
REMARK                         _______ _______ _______ _____ _____    ______ ____
ROOT
ATOM      1  C   UNL     1      35.054 -17.779 -22.083  0.00  0.00    +0.073 C 
ATOM      2  C   UNL     1      34.863 -16.475 -21.310  0.00  0.00    +0.019 C 
ENDROOT
BRANCH   1   3
ATOM      3  N   UNL     1      35.630 -17.458 -23.393  0.00  0.00    -0.250 NA
ATOM      4  H   UNL     1      36.613 -17.729 -23.415  0.00  0.00    +0.141 HD
BRANCH   3   5
ATOM      5  N   UNL     1      35.510 -16.053 -23.593  0.00  0.00    -0.270 NA
ATOM      6  H   UNL     1      34.963 -15.874 -24.435  0.00  0.00    +0.137 HD
ATOM      7  H   UNL     1      36.440 -15.645 -23.699  0.00  0.00    +0.137 HD
ENDBRANCH   3   5
ENDBRANCH   1   3
BRANCH   1   8
ATOM      8  C   UNL     1      35.970 -18.773 -21.347  0.00  0.00    +0.043 C 
BRANCH   8   9
ATOM      9  C   UNL     1      35.220 -19.877 -20.640  0.00  0.00    -0.021 C 
ATOM     10  C   UNL     1      33.836 -19.896 -20.686  0.00  0.00    -0.004 C 
ATOM     11  C   UNL     1      35.932 -20.850 -19.957  0.00  0.00    -0.004 C 
ATOM     12  C   UNL     1      33.144 -20.915 -20.033  0.00  0.00    -0.000 C 
ATOM     13  C   UNL     1      35.240 -21.870 -19.302  0.00  0.00    -0.000 C 
ATOM     14  C   UNL     1      33.846 -21.903 -19.341  0.00  0.00    -0.000 C 
ENDBRANCH   8   9
ENDBRANCH   1   8
TORSDOF 4
ENDMDL
MODEL 5
REMARK VINA RESULT:      -6.4      1.640      2.383
REMARK  Name = 5929
REMARK  4 active torsions:
REMARK  status: ('A' for Active; 'I' for Inactive)
REMARK    1  A    between atoms: C_1  and  N_3
REMARK    2  A    between atoms: C_1  and  C_8
REMARK    3  A    between atoms: N_3  and  N_5
REMARK    4  A    between atoms: C_8  and  C_9
REMARK                            x       y       z     vdW  Elec       q    Type
REMARK                         _______ _______ _______ _____ _____    ______ ____
ROOT
ATOM      1  C   UNL     1      34.947 -17.138 -22.049  0.00  0.00    +0.073 C 
ATOM      2  C   UNL     1      35.139 -16.207 -23.246  0.00  0.00    +0.019 C 
ENDROOT
BRANCH   1   3
ATOM      3  N   UNL     1      34.035 -16.489 -21.102  0.00  0.00    -0.250 NA
ATOM      4  H   UNL     1      33.299 -16.000 -21.611  0.00  0.00    +0.141 HD
BRANCH   3   5
ATOM      5  N   UNL     1      34.791 -15.560 -20.331  0.00  0.00    -0.270 NA
ATOM      6  H   UNL     1      34.818 -15.867 -19.358  0.00  0.00    +0.137 HD
ATOM      7  H   UNL     1      34.353 -14.640 -20.385  0.00  0.00    +0.137 HD
ENDBRANCH   3   5
ENDBRANCH   1   3
BRANCH   1   8
ATOM      8  C   UNL     1      34.380 -18.510 -22.453  0.00  0.00    +0.043 C 
BRANCH   8   9
ATOM      9  C   UNL     1      34.466 -19.547 -21.358  0.00  0.00    -0.021 C 
ATOM     10  C   UNL     1      35.710 -19.961 -20.912  0.00  0.00    -0.004 C 
ATOM     11  C   UNL     1      33.298 -20.065 -20.821  0.00  0.00    -0.004 C 
ATOM     12  C   UNL     1      35.789 -20.919 -19.901  0.00  0.00    -0.000 C 
ATOM     13  C   UNL     1      33.377 -21.023 -19.810  0.00  0.00    -0.000 C 
ATOM     14  C   UNL     1      34.623 -21.449 -19.350  0.00  0.00    -0.000 C 
ENDBRANCH   8   9
ENDBRANCH   1   8
TORSDOF 4
ENDMDL
MODEL 6
REMARK VINA RESULT:      -6.3      2.642      5.063
REMARK  Name = 5929
REMARK  4 active torsions:
REMARK  status: ('A' for Active; 'I' for Inactive)
REMARK    1  A    between atoms: C_1  and  N_3
REMARK    2  A    between atoms: C_1  and  C_8
REMARK    3  A    between atoms: N_3  and  N_5
REMARK    4  A    between atoms: C_8  and  C_9
REMARK                            x       y       z     vdW  Elec       q    Type
REMARK                         _______ _______ _______ _____ _____    ______ ____
ROOT
ATOM      1  C   UNL     1      34.529 -20.201 -20.877  0.00  0.00    +0.073 C 
ATOM      2  C   UNL     1      35.416 -21.007 -19.928  0.00  0.00    +0.019 C 
ENDROOT
BRANCH   1   3
ATOM      3  N   UNL     1      33.160 -20.213 -20.351  0.00  0.00    -0.250 NA
ATOM      4  H   UNL     1      33.082 -19.555 -19.575  0.00  0.00    +0.141 HD
BRANCH   3   5
ATOM      5  N   UNL     1      32.876 -21.533 -19.898  0.00  0.00    -0.270 NA
ATOM      6  H   UNL     1      33.217 -21.645 -18.942  0.00  0.00    +0.137 HD
ATOM      7  H   UNL     1      33.341 -22.208 -20.505  0.00  0.00    +0.137 HD
ENDBRANCH   3   5
ENDBRANCH   1   3
BRANCH   1   8
ATOM      8  C   UNL     1      35.006 -18.747 -21.039  0.00  0.00    +0.043 C 
BRANCH   8   9
ATOM      9  C   UNL     1      34.886 -18.224 -22.450  0.00  0.00    -0.021 C 
ATOM     10  C   UNL     1      35.004 -16.864 -22.683  0.00  0.00    -0.004 C 
ATOM     11  C   UNL     1      34.659 -19.115 -23.487  0.00  0.00    -0.004 C 
ATOM     12  C   UNL     1      34.892 -16.380 -23.987  0.00  0.00    -0.000 C 
ATOM     13  C   UNL     1      34.547 -18.633 -24.791  0.00  0.00    -0.000 C 
ATOM     14  C   UNL     1      34.665 -17.266 -25.041  0.00  0.00    -0.000 C 
ENDBRANCH   8   9
ENDBRANCH   1   8
TORSDOF 4
ENDMDL
MODEL 7
REMARK VINA RESULT:      -6.3      4.207      5.963
REMARK  Name = 5929
REMARK  4 active torsions:
REMARK  status: ('A' for Active; 'I' for Inactive)
REMARK    1  A    between atoms: C_1  and  N_3
REMARK    2  A    between atoms: C_1  and  C_8
REMARK    3  A    between atoms: N_3  and  N_5
REMARK    4  A    between atoms: C_8  and  C_9
REMARK                            x       y       z     vdW  Elec       q    Type
REMARK                         _______ _______ _______ _____ _____    ______ ____
ROOT
ATOM      1  C   UNL     1      33.700 -22.875 -17.273  0.00  0.00    +0.073 C 
ATOM      2  C   UNL     1      32.288 -23.262 -16.833  0.00  0.00    +0.019 C 
ENDROOT
BRANCH   1   3
ATOM      3  N   UNL     1      34.657 -23.695 -16.524  0.00  0.00    -0.250 NA
ATOM      4  H   UNL     1      34.344 -23.799 -15.559  0.00  0.00    +0.141 HD
BRANCH   3   5
ATOM      5  N   UNL     1      35.919 -23.033 -16.553  0.00  0.00    -0.270 NA
ATOM      6  H   UNL     1      35.945 -22.317 -15.826  0.00  0.00    +0.137 HD
ATOM      7  H   UNL     1      36.051 -22.595 -17.465  0.00  0.00    +0.137 HD
ENDBRANCH   3   5
ENDBRANCH   1   3
BRANCH   1   8
ATOM      8  C   UNL     1      33.923 -23.072 -18.783  0.00  0.00    +0.043 C 
BRANCH   8   9
ATOM      9  C   UNL     1      34.139 -21.782 -19.537  0.00  0.00    -0.021 C 
ATOM     10  C   UNL     1      35.431 -21.370 -19.822  0.00  0.00    -0.004 C 
ATOM     11  C   UNL     1      33.041 -21.033 -19.928  0.00  0.00    -0.004 C 
ATOM     12  C   UNL     1      35.631 -20.178 -20.518  0.00  0.00    -0.000 C 
ATOM     13  C   UNL     1      33.240 -19.840 -20.624  0.00  0.00    -0.000 C 
ATOM     14  C   UNL     1      34.535 -19.413 -20.920  0.00  0.00    -0.000 C 
ENDBRANCH   8   9
ENDBRANCH   1   8
TORSDOF 4
ENDMDL
MODEL 8
REMARK VINA RESULT:      -6.3      2.503      5.005
REMARK  Name = 5929
REMARK  4 active torsions:
REMARK  status: ('A' for Active; 'I' for Inactive)
REMARK    1  A    between atoms: C_1  and  N_3
REMARK    2  A    between atoms: C_1  and  C_8
REMARK    3  A    between atoms: N_3  and  N_5
REMARK    4  A    between atoms: C_8  and  C_9
REMARK                            x       y       z     vdW  Elec       q    Type
REMARK                         _______ _______ _______ _____ _____    ______ ____
ROOT
ATOM      1  C   UNL     1      34.408 -19.595 -20.818  0.00  0.00    +0.073 C 
ATOM      2  C   UNL     1      32.978 -20.089 -20.600  0.00  0.00    +0.019 C 
ENDROOT
BRANCH   1   3
ATOM      3  N   UNL     1      35.298 -20.357 -19.936  0.00  0.00    -0.250 NA
ATOM      4  H   UNL     1      34.992 -20.261 -18.968  0.00  0.00    +0.141 HD
BRANCH   3   5
ATOM      5  N   UNL     1      36.614 -19.830 -20.082  0.00  0.00    -0.270 NA
ATOM      6  H   UNL     1      36.950 -19.497 -19.177  0.00  0.00    +0.137 HD
ATOM      7  H   UNL     1      36.598 -19.054 -20.744  0.00  0.00    +0.137 HD
ENDBRANCH   3   5
ENDBRANCH   1   3
BRANCH   1   8
ATOM      8  C   UNL     1      34.871 -19.752 -22.278  0.00  0.00    +0.043 C 
BRANCH   8   9
ATOM      9  C   UNL     1      34.820 -18.467 -23.070  0.00  0.00    -0.021 C 
ATOM     10  C   UNL     1      34.990 -17.259 -22.414  0.00  0.00    -0.004 C 
ATOM     11  C   UNL     1      34.605 -18.521 -24.438  0.00  0.00    -0.004 C 
ATOM     12  C   UNL     1      34.943 -16.072 -23.146  0.00  0.00    -0.000 C 
ATOM     13  C   UNL     1      34.557 -17.335 -25.170  0.00  0.00    -0.000 C 
ATOM     14  C   UNL     1      34.727 -16.110 -24.524  0.00  0.00    -0.000 C 
ENDBRANCH   8   9
ENDBRANCH   1   8
TORSDOF 4
ENDMDL
MODEL 9
REMARK VINA RESULT:      -6.2      8.553      9.303
REMARK  Name = 5929
REMARK  4 active torsions:
REMARK  status: ('A' for Active; 'I' for Inactive)
REMARK    1  A    between atoms: C_1  and  N_3
REMARK    2  A    between atoms: C_1  and  C_8
REMARK    3  A    between atoms: N_3  and  N_5
REMARK    4  A    between atoms: C_8  and  C_9
REMARK                            x       y       z     vdW  Elec       q    Type
REMARK                         _______ _______ _______ _____ _____    ______ ____
ROOT
ATOM      1  C   UNL     1      27.451 -22.703 -16.724  0.00  0.00    +0.073 C 
ATOM      2  C   UNL     1      26.654 -22.050 -15.596  0.00  0.00    +0.019 C 
ENDROOT
BRANCH   1   3
ATOM      3  N   UNL     1      26.943 -22.195 -18.002  0.00  0.00    -0.250 NA
ATOM      4  H   UNL     1      27.702 -22.143 -18.681  0.00  0.00    +0.141 HD
BRANCH   3   5
ATOM      5  N   UNL     1      26.407 -20.894 -17.775  0.00  0.00    -0.270 NA
ATOM      6  H   UNL     1      25.609 -20.960 -17.142  0.00  0.00    +0.137 HD
ATOM      7  H   UNL     1      26.103 -20.493 -18.662  0.00  0.00    +0.137 HD
ENDBRANCH   3   5
ENDBRANCH   1   3
BRANCH   1   8
ATOM      8  C   UNL     1      28.961 -22.418 -16.621  0.00  0.00    +0.043 C 
BRANCH   8   9
ATOM      9  C   UNL     1      29.683 -23.328 -15.656  0.00  0.00    -0.021 C 
ATOM     10  C   UNL     1      30.626 -22.792 -14.795  0.00  0.00    -0.004 C 
ATOM     11  C   UNL     1      29.390 -24.682 -15.652  0.00  0.00    -0.004 C 
ATOM     12  C   UNL     1      31.294 -23.633 -13.904  0.00  0.00    -0.000 C 
ATOM     13  C   UNL     1      30.057 -25.524 -14.762  0.00  0.00    -0.000 C 
ATOM     14  C   UNL     1      31.009 -24.999 -13.887  0.00  0.00    -0.000 C 
ENDBRANCH   8   9
ENDBRANCH   1   8
TORSDOF 4
ENDMDL
