MODEL 1
REMARK VINA RESULT:      -5.6      0.000      0.000
REMARK  Name = 125766
REMARK  7 active torsions:
REMARK  status: ('A' for Active; 'I' for Inactive)
REMARK    1  A    between atoms: C_1  and  O_2
REMARK    2  A    between atoms: C_1  and  C_4
REMARK    3  A    between atoms: C_1  and  C_8
REMARK    4  A    between atoms: C_4  and  O_6
REMARK    5  A    between atoms: C_8  and  C_10
REMARK    6  A    between atoms: C_8  and  O_13
REMARK    7  A    between atoms: C_10  and  C_12
REMARK                            x       y       z     vdW  Elec       q    Type
REMARK                         _______ _______ _______ _____ _____    ______ ____
ROOT
ATOM      1  C   UNL     1      37.623 -24.880 -14.202  0.00  0.00    +0.167 C 
ENDROOT
BRANCH   1   2
ATOM      2  O   UNL     1      37.195 -24.738 -15.562  0.00  0.00    -0.379 OA
ATOM      3  H   UNL     1      37.970 -24.732 -16.145  0.00  0.00    +0.211 HD
ENDBRANCH   1   2
BRANCH   1   4
ATOM      4  C   UNL     1      38.839 -25.825 -14.166  0.00  0.00    +0.140 C 
ATOM      5  C   UNL     1      40.021 -25.272 -14.959  0.00  0.00    +0.034 C 
BRANCH   4   6
ATOM      6  O   UNL     1      38.494 -27.097 -14.705  0.00  0.00    -0.382 OA
ATOM      7  H   UNL     1      38.270 -27.002 -15.643  0.00  0.00    +0.210 HD
ENDBRANCH   4   6
ENDBRANCH   1   4
BRANCH   1   8
ATOM      8  C   UNL     1      36.396 -25.299 -13.366  0.00  0.00    +0.180 C 
BRANCH   8  10
ATOM      9  F   UNL     1      36.312 -22.964 -13.010  0.00  0.00    -0.226 F 
ATOM     10  C   UNL     1      35.761 -24.138 -12.600  0.00  0.00    +0.254 C 
BRANCH  10  12
ATOM     11  O   UNL     1      35.258 -25.090 -10.443  0.00  0.00    -0.285 OA
ATOM     12  C   UNL     1      35.931 -24.312 -11.112  0.00  0.00    +0.245 C 
ENDBRANCH  10  12
ENDBRANCH   8  10
BRANCH   8  13
ATOM     13  O   UNL     1      36.773 -26.328 -12.450  0.00  0.00    -0.379 OA
ATOM     14  H   UNL     1      37.677 -26.618 -12.644  0.00  0.00    +0.211 HD
ENDBRANCH   8  13
ENDBRANCH   1   8
TORSDOF 7
ENDMDL
MODEL 2
REMARK VINA RESULT:      -5.4      1.583      2.072
REMARK  Name = 125766
REMARK  7 active torsions:
REMARK  status: ('A' for Active; 'I' for Inactive)
REMARK    1  A    between atoms: C_1  and  O_2
REMARK    2  A    between atoms: C_1  and  C_4
REMARK    3  A    between atoms: C_1  and  C_8
REMARK    4  A    between atoms: C_4  and  O_6
REMARK    5  A    between atoms: C_8  and  C_10
REMARK    6  A    between atoms: C_8  and  O_13
REMARK    7  A    between atoms: C_10  and  C_12
REMARK                            x       y       z     vdW  Elec       q    Type
REMARK                         _______ _______ _______ _____ _____    ______ ____
ROOT
ATOM      1  C   UNL     1      37.044 -25.121 -14.914  0.00  0.00    +0.167 C 
ENDROOT
BRANCH   1   2
ATOM      2  O   UNL     1      37.918 -26.195 -15.278  0.00  0.00    -0.379 OA
ATOM      3  H   UNL     1      37.453 -27.040 -15.174  0.00  0.00    +0.211 HD
ENDBRANCH   1   2
BRANCH   1   4
ATOM      4  C   UNL     1      37.803 -23.792 -15.081  0.00  0.00    +0.140 C 
ATOM      5  C   UNL     1      37.071 -22.823 -16.007  0.00  0.00    +0.034 C 
BRANCH   4   6
ATOM      6  O   UNL     1      39.102 -24.026 -15.615  0.00  0.00    -0.382 OA
ATOM      7  H   UNL     1      39.727 -23.386 -15.241  0.00  0.00    +0.210 HD
ENDBRANCH   4   6
ENDBRANCH   1   4
BRANCH   1   8
ATOM      8  C   UNL     1      36.486 -25.427 -13.508  0.00  0.00    +0.180 C 
BRANCH   8  10
ATOM      9  F   UNL     1      38.157 -24.939 -11.908  0.00  0.00    -0.226 F 
ATOM     10  C   UNL     1      36.995 -24.465 -12.433  0.00  0.00    +0.254 C 
BRANCH  10  12
ATOM     11  O   UNL     1      35.386 -25.194 -10.793  0.00  0.00    -0.285 OA
ATOM     12  C   UNL     1      35.966 -24.267 -11.350  0.00  0.00    +0.245 C 
ENDBRANCH  10  12
ENDBRANCH   8  10
BRANCH   8  13
ATOM     13  O   UNL     1      36.818 -26.768 -13.146  0.00  0.00    -0.379 OA
ATOM     14  H   UNL     1      37.009 -27.281 -13.946  0.00  0.00    +0.211 HD
ENDBRANCH   8  13
ENDBRANCH   1   8
TORSDOF 7
ENDMDL
MODEL 3
REMARK VINA RESULT:      -5.3      1.557      4.092
REMARK  Name = 125766
REMARK  7 active torsions:
REMARK  status: ('A' for Active; 'I' for Inactive)
REMARK    1  A    between atoms: C_1  and  O_2
REMARK    2  A    between atoms: C_1  and  C_4
REMARK    3  A    between atoms: C_1  and  C_8
REMARK    4  A    between atoms: C_4  and  O_6
REMARK    5  A    between atoms: C_8  and  C_10
REMARK    6  A    between atoms: C_8  and  O_13
REMARK    7  A    between atoms: C_10  and  C_12
REMARK                            x       y       z     vdW  Elec       q    Type
REMARK                         _______ _______ _______ _____ _____    ______ ____
ROOT
ATOM      1  C   UNL     1      36.206 -24.781 -11.986  0.00  0.00    +0.167 C 
ENDROOT
BRANCH   1   2
ATOM      2  O   UNL     1      35.454 -25.155 -10.825  0.00  0.00    -0.379 OA
ATOM      3  H   UNL     1      34.511 -25.183 -11.046  0.00  0.00    +0.211 HD
ENDBRANCH   1   2
BRANCH   1   4
ATOM      4  C   UNL     1      35.225 -24.309 -13.075  0.00  0.00    +0.140 C 
ATOM      5  C   UNL     1      35.871 -23.323 -14.044  0.00  0.00    +0.034 C 
BRANCH   4   6
ATOM      6  O   UNL     1      34.093 -23.679 -12.484  0.00  0.00    -0.382 OA
ATOM      7  H   UNL     1      33.430 -24.349 -12.258  0.00  0.00    +0.210 HD
ENDBRANCH   4   6
ENDBRANCH   1   4
BRANCH   1   8
ATOM      8  C   UNL     1      37.126 -25.965 -12.350  0.00  0.00    +0.180 C 
BRANCH   8  10
ATOM      9  F   UNL     1      38.738 -24.235 -12.394  0.00  0.00    -0.226 F 
ATOM     10  C   UNL     1      38.536 -25.532 -12.752  0.00  0.00    +0.254 C 
BRANCH  10  12
ATOM     11  O   UNL     1      39.240 -26.730 -14.723  0.00  0.00    -0.285 OA
ATOM     12  C   UNL     1      38.758 -25.713 -14.232  0.00  0.00    +0.245 C 
ENDBRANCH  10  12
ENDBRANCH   8  10
BRANCH   8  13
ATOM     13  O   UNL     1      36.536 -26.719 -13.409  0.00  0.00    -0.379 OA
ATOM     14  H   UNL     1      35.962 -26.141 -13.936  0.00  0.00    +0.211 HD
ENDBRANCH   8  13
ENDBRANCH   1   8
TORSDOF 7
ENDMDL
MODEL 4
REMARK VINA RESULT:      -5.2     11.082     12.591
REMARK  Name = 125766
REMARK  7 active torsions:
REMARK  status: ('A' for Active; 'I' for Inactive)
REMARK    1  A    between atoms: C_1  and  O_2
REMARK    2  A    between atoms: C_1  and  C_4
REMARK    3  A    between atoms: C_1  and  C_8
REMARK    4  A    between atoms: C_4  and  O_6
REMARK    5  A    between atoms: C_8  and  C_10
REMARK    6  A    between atoms: C_8  and  O_13
REMARK    7  A    between atoms: C_10  and  C_12
REMARK                            x       y       z     vdW  Elec       q    Type
REMARK                         _______ _______ _______ _____ _____    ______ ____
ROOT
ATOM      1  C   UNL     1      34.541 -17.927 -21.638  0.00  0.00    +0.167 C 
ENDROOT
BRANCH   1   2
ATOM      2  O   UNL     1      35.127 -17.202 -20.550  0.00  0.00    -0.379 OA
ATOM      3  H   UNL     1      34.714 -16.327 -20.485  0.00  0.00    +0.211 HD
ENDBRANCH   1   2
BRANCH   1   4
ATOM      4  C   UNL     1      34.511 -19.422 -21.273  0.00  0.00    +0.140 C 
ATOM      5  C   UNL     1      33.178 -19.837 -20.654  0.00  0.00    +0.034 C 
BRANCH   4   6
ATOM      6  O   UNL     1      35.549 -19.727 -20.346  0.00  0.00    -0.382 OA
ATOM      7  H   UNL     1      36.328 -20.047 -20.826  0.00  0.00    +0.210 HD
ENDBRANCH   4   6
ENDBRANCH   1   4
BRANCH   1   8
ATOM      8  C   UNL     1      35.306 -17.544 -22.923  0.00  0.00    +0.180 C 
BRANCH   8  10
ATOM      9  F   UNL     1      34.897 -19.161 -24.598  0.00  0.00    -0.226 F 
ATOM     10  C   UNL     1      34.554 -17.905 -24.204  0.00  0.00    +0.254 C 
BRANCH  10  12
ATOM     11  O   UNL     1      33.966 -16.412 -26.003  0.00  0.00    -0.285 OA
ATOM     12  C   UNL     1      34.840 -16.910 -25.299  0.00  0.00    +0.245 C 
ENDBRANCH  10  12
ENDBRANCH   8  10
BRANCH   8  13
ATOM     13  O   UNL     1      36.585 -18.179 -22.923  0.00  0.00    -0.379 OA
ATOM     14  H   UNL     1      37.209 -17.648 -22.404  0.00  0.00    +0.211 HD
ENDBRANCH   8  13
ENDBRANCH   1   8
TORSDOF 7
ENDMDL
MODEL 5
REMARK VINA RESULT:      -5.2     11.827     13.422
REMARK  Name = 125766
REMARK  7 active torsions:
REMARK  status: ('A' for Active; 'I' for Inactive)
REMARK    1  A    between atoms: C_1  and  O_2
REMARK    2  A    between atoms: C_1  and  C_4
REMARK    3  A    between atoms: C_1  and  C_8
REMARK    4  A    between atoms: C_4  and  O_6
REMARK    5  A    between atoms: C_8  and  C_10
REMARK    6  A    between atoms: C_8  and  O_13
REMARK    7  A    between atoms: C_10  and  C_12
REMARK                            x       y       z     vdW  Elec       q    Type
REMARK                         _______ _______ _______ _____ _____    ______ ____
ROOT
ATOM      1  C   UNL     1      34.811 -16.990 -21.417  0.00  0.00    +0.167 C 
ENDROOT
BRANCH   1   2
ATOM      2  O   UNL     1      34.233 -18.250 -21.056  0.00  0.00    -0.379 OA
ATOM      3  H   UNL     1      34.305 -18.376 -20.097  0.00  0.00    +0.211 HD
ENDBRANCH   1   2
BRANCH   1   4
ATOM      4  C   UNL     1      34.196 -15.894 -20.527  0.00  0.00    +0.140 C 
ATOM      5  C   UNL     1      32.764 -15.557 -20.936  0.00  0.00    +0.034 C 
BRANCH   4   6
ATOM      6  O   UNL     1      34.974 -14.703 -20.597  0.00  0.00    -0.382 OA
ATOM      7  H   UNL     1      35.673 -14.733 -19.926  0.00  0.00    +0.210 HD
ENDBRANCH   4   6
ENDBRANCH   1   4
BRANCH   1   8
ATOM      8  C   UNL     1      34.645 -16.818 -22.941  0.00  0.00    +0.180 C 
BRANCH   8  10
ATOM      9  F   UNL     1      36.101 -18.554 -23.615  0.00  0.00    -0.226 F 
ATOM     10  C   UNL     1      34.815 -18.123 -23.719  0.00  0.00    +0.254 C 
BRANCH  10  12
ATOM     11  O   UNL     1      34.760 -16.975 -25.838  0.00  0.00    -0.285 OA
ATOM     12  C   UNL     1      34.431 -17.947 -25.165  0.00  0.00    +0.245 C 
ENDBRANCH  10  12
ENDBRANCH   8  10
BRANCH   8  13
ATOM     13  O   UNL     1      35.583 -15.852 -23.416  0.00  0.00    -0.379 OA
ATOM     14  H   UNL     1      36.359 -15.842 -22.835  0.00  0.00    +0.211 HD
ENDBRANCH   8  13
ENDBRANCH   1   8
TORSDOF 7
ENDMDL
MODEL 6
REMARK VINA RESULT:      -5.2      2.497      4.415
REMARK  Name = 125766
REMARK  7 active torsions:
REMARK  status: ('A' for Active; 'I' for Inactive)
REMARK    1  A    between atoms: C_1  and  O_2
REMARK    2  A    between atoms: C_1  and  C_4
REMARK    3  A    between atoms: C_1  and  C_8
REMARK    4  A    between atoms: C_4  and  O_6
REMARK    5  A    between atoms: C_8  and  C_10
REMARK    6  A    between atoms: C_8  and  O_13
REMARK    7  A    between atoms: C_10  and  C_12
REMARK                            x       y       z     vdW  Elec       q    Type
REMARK                         _______ _______ _______ _____ _____    ______ ____
ROOT
ATOM      1  C   UNL     1      36.594 -25.414 -14.442  0.00  0.00    +0.167 C 
ENDROOT
BRANCH   1   2
ATOM      2  O   UNL     1      35.992 -26.557 -15.060  0.00  0.00    -0.379 OA
ATOM      3  H   UNL     1      35.027 -26.485 -15.003  0.00  0.00    +0.211 HD
ENDBRANCH   1   2
BRANCH   1   4
ATOM      4  C   UNL     1      35.693 -24.190 -14.691  0.00  0.00    +0.140 C 
ATOM      5  C   UNL     1      34.374 -24.281 -13.928  0.00  0.00    +0.034 C 
BRANCH   4   6
ATOM      6  O   UNL     1      35.400 -24.064 -16.079  0.00  0.00    -0.382 OA
ATOM      7  H   UNL     1      35.663 -24.875 -16.540  0.00  0.00    +0.210 HD
ENDBRANCH   4   6
ENDBRANCH   1   4
BRANCH   1   8
ATOM      8  C   UNL     1      38.048 -25.318 -14.949  0.00  0.00    +0.180 C 
BRANCH   8  10
ATOM      9  F   UNL     1      39.174 -24.756 -12.947  0.00  0.00    -0.226 F 
ATOM     10  C   UNL     1      39.082 -25.724 -13.898  0.00  0.00    +0.254 C 
BRANCH  10  12
ATOM     11  O   UNL     1      40.616 -25.965 -15.742  0.00  0.00    -0.285 OA
ATOM     12  C   UNL     1      40.427 -25.975 -14.530  0.00  0.00    +0.245 C 
ENDBRANCH  10  12
ENDBRANCH   8  10
BRANCH   8  13
ATOM     13  O   UNL     1      38.311 -23.986 -15.390  0.00  0.00    -0.379 OA
ATOM     14  H   UNL     1      38.981 -24.003 -16.091  0.00  0.00    +0.211 HD
ENDBRANCH   8  13
ENDBRANCH   1   8
TORSDOF 7
ENDMDL
MODEL 7
REMARK VINA RESULT:      -5.1      6.644      7.911
REMARK  Name = 125766
REMARK  7 active torsions:
REMARK  status: ('A' for Active; 'I' for Inactive)
REMARK    1  A    between atoms: C_1  and  O_2
REMARK    2  A    between atoms: C_1  and  C_4
REMARK    3  A    between atoms: C_1  and  C_8
REMARK    4  A    between atoms: C_4  and  O_6
REMARK    5  A    between atoms: C_8  and  C_10
REMARK    6  A    between atoms: C_8  and  O_13
REMARK    7  A    between atoms: C_10  and  C_12
REMARK                            x       y       z     vdW  Elec       q    Type
REMARK                         _______ _______ _______ _____ _____    ______ ____
ROOT
ATOM      1  C   UNL     1      30.931 -24.606 -14.234  0.00  0.00    +0.167 C 
ENDROOT
BRANCH   1   2
ATOM      2  O   UNL     1      30.459 -24.820 -12.898  0.00  0.00    -0.379 OA
ATOM      3  H   UNL     1      29.532 -24.543 -12.835  0.00  0.00    +0.211 HD
ENDBRANCH   1   2
BRANCH   1   4
ATOM      4  C   UNL     1      31.788 -23.327 -14.254  0.00  0.00    +0.140 C 
ATOM      5  C   UNL     1      33.041 -23.488 -15.112  0.00  0.00    +0.034 C 
BRANCH   4   6
ATOM      6  O   UNL     1      32.192 -22.980 -12.932  0.00  0.00    -0.382 OA
ATOM      7  H   UNL     1      31.681 -22.215 -12.628  0.00  0.00    +0.210 HD
ENDBRANCH   4   6
ENDBRANCH   1   4
BRANCH   1   8
ATOM      8  C   UNL     1      29.706 -24.633 -15.173  0.00  0.00    +0.180 C 
BRANCH   8  10
ATOM      9  F   UNL     1      28.900 -22.440 -14.810  0.00  0.00    -0.226 F 
ATOM     10  C   UNL     1      29.379 -23.267 -15.778  0.00  0.00    +0.254 C 
BRANCH  10  12
ATOM     11  O   UNL     1      27.925 -24.470 -17.278  0.00  0.00    -0.285 OA
ATOM     12  C   UNL     1      28.386 -23.396 -16.904  0.00  0.00    +0.245 C 
ENDBRANCH  10  12
ENDBRANCH   8  10
BRANCH   8  13
ATOM     13  O   UNL     1      28.571 -25.125 -14.461  0.00  0.00    -0.379 OA
ATOM     14  H   UNL     1      28.739 -26.036 -14.174  0.00  0.00    +0.211 HD
ENDBRANCH   8  13
ENDBRANCH   1   8
TORSDOF 7
ENDMDL
MODEL 8
REMARK VINA RESULT:      -5.1     11.097     12.435
REMARK  Name = 125766
REMARK  7 active torsions:
REMARK  status: ('A' for Active; 'I' for Inactive)
REMARK    1  A    between atoms: C_1  and  O_2
REMARK    2  A    between atoms: C_1  and  C_4
REMARK    3  A    between atoms: C_1  and  C_8
REMARK    4  A    between atoms: C_4  and  O_6
REMARK    5  A    between atoms: C_8  and  C_10
REMARK    6  A    between atoms: C_8  and  O_13
REMARK    7  A    between atoms: C_10  and  C_12
REMARK                            x       y       z     vdW  Elec       q    Type
REMARK                         _______ _______ _______ _____ _____    ______ ____
ROOT
ATOM      1  C   UNL     1      34.670 -16.303 -22.614  0.00  0.00    +0.167 C 
ENDROOT
BRANCH   1   2
ATOM      2  O   UNL     1      35.654 -16.066 -23.628  0.00  0.00    -0.379 OA
ATOM      3  H   UNL     1      35.822 -16.888 -24.114  0.00  0.00    +0.211 HD
ENDBRANCH   1   2
BRANCH   1   4
ATOM      4  C   UNL     1      34.215 -14.948 -22.044  0.00  0.00    +0.140 C 
ATOM      5  C   UNL     1      32.712 -14.909 -21.781  0.00  0.00    +0.034 C 
BRANCH   4   6
ATOM      6  O   UNL     1      34.539 -13.895 -22.947  0.00  0.00    -0.382 OA
ATOM      7  H   UNL     1      33.764 -13.327 -23.075  0.00  0.00    +0.210 HD
ENDBRANCH   4   6
ENDBRANCH   1   4
BRANCH   1   8
ATOM      8  C   UNL     1      35.266 -17.312 -21.610  0.00  0.00    +0.180 C 
BRANCH   8  10
ATOM      9  F   UNL     1      33.332 -18.477 -20.910  0.00  0.00    -0.226 F 
ATOM     10  C   UNL     1      34.511 -18.641 -21.568  0.00  0.00    +0.254 C 
BRANCH  10  12
ATOM     11  O   UNL     1      36.315 -19.479 -20.207  0.00  0.00    -0.285 OA
ATOM     12  C   UNL     1      35.339 -19.716 -20.912  0.00  0.00    +0.245 C 
ENDBRANCH  10  12
ENDBRANCH   8  10
BRANCH   8  13
ATOM     13  O   UNL     1      35.284 -16.731 -20.306  0.00  0.00    -0.379 OA
ATOM     14  H   UNL     1      35.237 -17.433 -19.639  0.00  0.00    +0.211 HD
ENDBRANCH   8  13
ENDBRANCH   1   8
TORSDOF 7
ENDMDL
MODEL 9
REMARK VINA RESULT:      -5.1     11.346     12.820
REMARK  Name = 125766
REMARK  7 active torsions:
REMARK  status: ('A' for Active; 'I' for Inactive)
REMARK    1  A    between atoms: C_1  and  O_2
REMARK    2  A    between atoms: C_1  and  C_4
REMARK    3  A    between atoms: C_1  and  C_8
REMARK    4  A    between atoms: C_4  and  O_6
REMARK    5  A    between atoms: C_8  and  C_10
REMARK    6  A    between atoms: C_8  and  O_13
REMARK    7  A    between atoms: C_10  and  C_12
REMARK                            x       y       z     vdW  Elec       q    Type
REMARK                         _______ _______ _______ _____ _____    ______ ____
ROOT
ATOM      1  C   UNL     1      34.651 -17.532 -21.610  0.00  0.00    +0.167 C 
ENDROOT
BRANCH   1   2
ATOM      2  O   UNL     1      35.320 -17.085 -20.426  0.00  0.00    -0.379 OA
ATOM      3  H   UNL     1      35.808 -16.269 -20.619  0.00  0.00    +0.211 HD
ENDBRANCH   1   2
BRANCH   1   4
ATOM      4  C   UNL     1      34.539 -19.067 -21.561  0.00  0.00    +0.140 C 
ATOM      5  C   UNL     1      33.318 -19.530 -20.770  0.00  0.00    +0.034 C 
BRANCH   4   6
ATOM      6  O   UNL     1      35.702 -19.630 -20.962  0.00  0.00    -0.382 OA
ATOM      7  H   UNL     1      35.446 -20.147 -20.182  0.00  0.00    +0.210 HD
ENDBRANCH   4   6
ENDBRANCH   1   4
BRANCH   1   8
ATOM      8  C   UNL     1      35.393 -16.931 -22.823  0.00  0.00    +0.180 C 
BRANCH   8  10
ATOM      9  F   UNL     1      33.428 -15.620 -22.932  0.00  0.00    -0.226 F 
ATOM     10  C   UNL     1      34.527 -15.978 -23.648  0.00  0.00    +0.254 C 
BRANCH  10  12
ATOM     11  O   UNL     1      34.886 -16.719 -25.914  0.00  0.00    -0.285 OA
ATOM     12  C   UNL     1      34.125 -16.606 -24.958  0.00  0.00    +0.245 C 
ENDBRANCH  10  12
ENDBRANCH   8  10
BRANCH   8  13
ATOM     13  O   UNL     1      35.873 -17.985 -23.657  0.00  0.00    -0.379 OA
ATOM     14  H   UNL     1      35.237 -18.716 -23.653  0.00  0.00    +0.211 HD
ENDBRANCH   8  13
ENDBRANCH   1   8
TORSDOF 7
ENDMDL
