MODEL 1
REMARK VINA RESULT:      -9.8      0.000      0.000
REMARK  Name = 18633059
REMARK  0 active torsions:
REMARK  status: ('A' for Active; 'I' for Inactive)
REMARK                            x       y       z     vdW  Elec       q    Type
REMARK                         _______ _______ _______ _____ _____    ______ ____
ROOT
ATOM      1  O   UNL     1      35.041 -25.042 -11.628  0.00  0.00    -0.296 OA
ATOM      2  O   UNL     1      34.560 -19.915 -20.961  0.00  0.00    -0.296 OA
ATOM      3  C   UNL     1      36.280 -23.229 -14.319  0.00  0.00    +0.007 C 
ATOM      4  C   UNL     1      36.317 -22.992 -15.828  0.00  0.00    +0.005 C 
ATOM      5  C   UNL     1      35.449 -24.477 -13.959  0.00  0.00    +0.052 C 
ATOM      6  C   UNL     1      34.866 -22.772 -16.334  0.00  0.00    +0.004 C 
ATOM      7  C   UNL     1      34.001 -24.200 -14.350  0.00  0.00    +0.007 C 
ATOM      8  C   UNL     1      33.886 -23.873 -15.850  0.00  0.00    +0.001 C 
ATOM      9  C   UNL     1      34.845 -22.616 -17.884  0.00  0.00    +0.019 C 
ATOM     10  C   UNL     1      37.582 -23.409 -13.547  0.00  0.00    +0.008 C 
ATOM     11  C   UNL     1      37.182 -21.778 -16.198  0.00  0.00    +0.025 C 
ATOM     12  C   UNL     1      35.758 -24.523 -12.473  0.00  0.00    +0.150 C 
ATOM     13  C   UNL     1      37.095 -23.868 -12.165  0.00  0.00    +0.064 C 
ATOM     14  C   UNL     1      36.019 -21.805 -18.421  0.00  0.00    -0.041 C 
ATOM     15  C   UNL     1      35.943 -25.810 -14.552  0.00  0.00    +0.007 C 
ATOM     16  C   UNL     1      33.515 -21.970 -18.335  0.00  0.00    +0.012 C 
ATOM     17  C   UNL     1      37.039 -21.404 -17.641  0.00  0.00    -0.034 C 
ATOM     18  C   UNL     1      36.009 -21.500 -19.893  0.00  0.00    +0.086 C 
ATOM     19  C   UNL     1      33.458 -21.724 -19.837  0.00  0.00    +0.065 C 
ATOM     20  C   UNL     1      34.664 -20.926 -20.269  0.00  0.00    +0.155 C 
ENDROOT
TORSDOF 0
ENDMDL
MODEL 2
REMARK VINA RESULT:      -9.5      3.089      5.600
REMARK  Name = 18633059
REMARK  0 active torsions:
REMARK  status: ('A' for Active; 'I' for Inactive)
REMARK                            x       y       z     vdW  Elec       q    Type
REMARK                         _______ _______ _______ _____ _____    ______ ____
ROOT
ATOM      1  O   UNL     1      28.551 -25.043 -14.440  0.00  0.00    -0.296 OA
ATOM      2  O   UNL     1      39.096 -23.994 -15.591  0.00  0.00    -0.296 OA
ATOM      3  C   UNL     1      31.483 -23.837 -15.859  0.00  0.00    +0.007 C 
ATOM      4  C   UNL     1      32.898 -23.295 -15.671  0.00  0.00    +0.005 C 
ATOM      5  C   UNL     1      30.761 -24.029 -14.510  0.00  0.00    +0.052 C 
ATOM      6  C   UNL     1      33.713 -24.310 -14.824  0.00  0.00    +0.004 C 
ATOM      7  C   UNL     1      31.501 -25.118 -13.738  0.00  0.00    +0.007 C 
ATOM      8  C   UNL     1      32.978 -24.738 -13.527  0.00  0.00    +0.001 C 
ATOM      9  C   UNL     1      35.139 -23.756 -14.529  0.00  0.00    +0.019 C 
ATOM     10  C   UNL     1      30.483 -23.067 -16.714  0.00  0.00    +0.008 C 
ATOM     11  C   UNL     1      33.607 -23.057 -17.012  0.00  0.00    +0.025 C 
ATOM     12  C   UNL     1      29.387 -24.387 -15.046  0.00  0.00    +0.150 C 
ATOM     13  C   UNL     1      29.162 -23.798 -16.430  0.00  0.00    +0.064 C 
ATOM     14  C   UNL     1      35.752 -23.016 -15.713  0.00  0.00    -0.041 C 
ATOM     15  C   UNL     1      30.583 -22.761 -13.655  0.00  0.00    +0.007 C 
ATOM     16  C   UNL     1      36.075 -24.905 -14.090  0.00  0.00    +0.012 C 
ATOM     17  C   UNL     1      35.061 -22.746 -16.834  0.00  0.00    -0.034 C 
ATOM     18  C   UNL     1      37.175 -22.558 -15.556  0.00  0.00    +0.086 C 
ATOM     19  C   UNL     1      37.507 -24.443 -13.852  0.00  0.00    +0.065 C 
ATOM     20  C   UNL     1      38.016 -23.716 -15.073  0.00  0.00    +0.155 C 
ENDROOT
TORSDOF 0
ENDMDL
MODEL 3
REMARK VINA RESULT:      -8.8      3.226      4.927
REMARK  Name = 18633059
REMARK  0 active torsions:
REMARK  status: ('A' for Active; 'I' for Inactive)
REMARK                            x       y       z     vdW  Elec       q    Type
REMARK                         _______ _______ _______ _____ _____    ______ ____
ROOT
ATOM      1  O   UNL     1      37.963 -23.415 -13.504  0.00  0.00    -0.296 OA
ATOM      2  O   UNL     1      27.529 -23.232 -15.674  0.00  0.00    -0.296 OA
ATOM      3  C   UNL     1      35.143 -23.012 -15.490  0.00  0.00    +0.007 C 
ATOM      4  C   UNL     1      33.756 -23.502 -15.904  0.00  0.00    +0.005 C 
ATOM      5  C   UNL     1      35.817 -23.982 -14.498  0.00  0.00    +0.052 C 
ATOM      6  C   UNL     1      32.863 -23.599 -14.638  0.00  0.00    +0.004 C 
ATOM      7  C   UNL     1      34.996 -23.975 -13.212  0.00  0.00    +0.007 C 
ATOM      8  C   UNL     1      33.538 -24.387 -13.485  0.00  0.00    +0.001 C 
ATOM      9  C   UNL     1      31.463 -24.182 -14.999  0.00  0.00    +0.019 C 
ATOM     10  C   UNL     1      36.207 -22.762 -16.553  0.00  0.00    +0.008 C 
ATOM     11  C   UNL     1      33.098 -22.566 -16.928  0.00  0.00    +0.025 C 
ATOM     12  C   UNL     1      37.182 -23.320 -14.440  0.00  0.00    +0.150 C 
ATOM     13  C   UNL     1      37.476 -22.545 -15.715  0.00  0.00    +0.064 C 
ATOM     14  C   UNL     1      30.925 -23.667 -16.329  0.00  0.00    -0.041 C 
ATOM     15  C   UNL     1      36.044 -25.417 -15.009  0.00  0.00    +0.007 C 
ATOM     16  C   UNL     1      30.452 -23.872 -13.872  0.00  0.00    +0.012 C 
ATOM     17  C   UNL     1      31.659 -22.910 -17.163  0.00  0.00    -0.034 C 
ATOM     18  C   UNL     1      29.526 -24.081 -16.694  0.00  0.00    +0.086 C 
ATOM     19  C   UNL     1      29.044 -24.354 -14.193  0.00  0.00    +0.065 C 
ATOM     20  C   UNL     1      28.609 -23.801 -15.528  0.00  0.00    +0.155 C 
ENDROOT
TORSDOF 0
ENDMDL
MODEL 4
REMARK VINA RESULT:      -8.7      2.388      7.499
REMARK  Name = 18633059
REMARK  0 active torsions:
REMARK  status: ('A' for Active; 'I' for Inactive)
REMARK                            x       y       z     vdW  Elec       q    Type
REMARK                         _______ _______ _______ _____ _____    ______ ____
ROOT
ATOM      1  O   UNL     1      33.834 -18.113 -23.954  0.00  0.00    -0.296 OA
ATOM      2  O   UNL     1      35.078 -24.846 -15.785  0.00  0.00    -0.296 OA
ATOM      3  C   UNL     1      35.568 -19.753 -21.431  0.00  0.00    +0.007 C 
ATOM      4  C   UNL     1      35.602 -20.274 -19.995  0.00  0.00    +0.005 C 
ATOM      5  C   UNL     1      34.288 -18.940 -21.712  0.00  0.00    +0.052 C 
ATOM      6  C   UNL     1      34.378 -21.203 -19.772  0.00  0.00    +0.004 C 
ATOM      7  C   UNL     1      33.101 -19.893 -21.610  0.00  0.00    +0.007 C 
ATOM      8  C   UNL     1      33.042 -20.556 -20.221  0.00  0.00    +0.001 C 
ATOM      9  C   UNL     1      34.321 -21.687 -18.292  0.00  0.00    +0.019 C 
ATOM     10  C   UNL     1      36.697 -18.865 -21.942  0.00  0.00    +0.008 C 
ATOM     11  C   UNL     1      36.895 -21.045 -19.693  0.00  0.00    +0.025 C 
ATOM     12  C   UNL     1      34.646 -18.443 -23.100  0.00  0.00    +0.150 C 
ATOM     13  C   UNL     1      36.153 -18.372 -23.291  0.00  0.00    +0.064 C 
ATOM     14  C   UNL     1      35.694 -22.008 -17.713  0.00  0.00    -0.041 C 
ATOM     15  C   UNL     1      34.078 -17.690 -20.837  0.00  0.00    +0.007 C 
ATOM     16  C   UNL     1      33.402 -22.925 -18.173  0.00  0.00    +0.012 C 
ATOM     17  C   UNL     1      36.837 -21.749 -18.373  0.00  0.00    -0.034 C 
ATOM     18  C   UNL     1      35.720 -22.601 -16.332  0.00  0.00    +0.086 C 
ATOM     19  C   UNL     1      33.357 -23.493 -16.761  0.00  0.00    +0.065 C 
ATOM     20  C   UNL     1      34.760 -23.765 -16.277  0.00  0.00    +0.155 C 
ENDROOT
TORSDOF 0
ENDMDL
MODEL 5
REMARK VINA RESULT:      -8.5      2.825      6.146
REMARK  Name = 18633059
REMARK  0 active torsions:
REMARK  status: ('A' for Active; 'I' for Inactive)
REMARK                            x       y       z     vdW  Elec       q    Type
REMARK                         _______ _______ _______ _____ _____    ______ ____
ROOT
ATOM      1  O   UNL     1      29.524 -22.264 -17.151  0.00  0.00    -0.296 OA
ATOM      2  O   UNL     1      39.141 -24.289 -13.023  0.00  0.00    -0.296 OA
ATOM      3  C   UNL     1      31.788 -23.171 -14.678  0.00  0.00    +0.007 C 
ATOM      4  C   UNL     1      33.040 -23.948 -14.274  0.00  0.00    +0.005 C 
ATOM      5  C   UNL     1      31.376 -23.470 -16.134  0.00  0.00    +0.052 C 
ATOM      6  C   UNL     1      34.209 -23.528 -15.205  0.00  0.00    +0.004 C 
ATOM      7  C   UNL     1      32.479 -22.941 -17.046  0.00  0.00    +0.007 C 
ATOM      8  C   UNL     1      33.834 -23.591 -16.709  0.00  0.00    +0.001 C 
ATOM      9  C   UNL     1      35.487 -24.362 -14.889  0.00  0.00    +0.019 C 
ATOM     10  C   UNL     1      30.499 -23.341 -13.880  0.00  0.00    +0.008 C 
ATOM     11  C   UNL     1      33.429 -23.691 -12.811  0.00  0.00    +0.025 C 
ATOM     12  C   UNL     1      30.059 -22.715 -16.147  0.00  0.00    +0.150 C 
ATOM     13  C   UNL     1      29.465 -22.614 -14.751  0.00  0.00    +0.064 C 
ATOM     14  C   UNL     1      35.689 -24.606 -13.398  0.00  0.00    -0.041 C 
ATOM     15  C   UNL     1      31.044 -24.939 -16.451  0.00  0.00    +0.007 C 
ATOM     16  C   UNL     1      36.735 -23.666 -15.478  0.00  0.00    +0.012 C 
ATOM     17  C   UNL     1      34.772 -24.263 -12.477  0.00  0.00    -0.034 C 
ATOM     18  C   UNL     1      36.964 -25.295 -12.996  0.00  0.00    +0.086 C 
ATOM     19  C   UNL     1      38.030 -24.395 -15.145  0.00  0.00    +0.065 C 
ATOM     20  C   UNL     1      38.131 -24.596 -13.653  0.00  0.00    +0.155 C 
ENDROOT
TORSDOF 0
ENDMDL
MODEL 6
REMARK VINA RESULT:      -8.5      6.571      9.955
REMARK  Name = 18633059
REMARK  0 active torsions:
REMARK  status: ('A' for Active; 'I' for Inactive)
REMARK                            x       y       z     vdW  Elec       q    Type
REMARK                         _______ _______ _______ _____ _____    ______ ____
ROOT
ATOM      1  O   UNL     1      35.904 -19.854 -19.787  0.00  0.00    -0.296 OA
ATOM      2  O   UNL     1      33.695 -11.713 -26.302  0.00  0.00    -0.296 OA
ATOM      3  C   UNL     1      35.075 -18.337 -22.799  0.00  0.00    +0.007 C 
ATOM      4  C   UNL     1      34.266 -17.281 -23.551  0.00  0.00    +0.005 C 
ATOM      5  C   UNL     1      34.685 -18.400 -21.308  0.00  0.00    +0.052 C 
ATOM      6  C   UNL     1      34.547 -15.892 -22.915  0.00  0.00    +0.004 C 
ATOM      7  C   UNL     1      35.078 -17.072 -20.668  0.00  0.00    +0.007 C 
ATOM      8  C   UNL     1      34.384 -15.892 -21.373  0.00  0.00    +0.001 C 
ATOM      9  C   UNL     1      33.672 -14.794 -23.593  0.00  0.00    +0.019 C 
ATOM     10  C   UNL     1      35.039 -19.790 -23.259  0.00  0.00    +0.008 C 
ATOM     11  C   UNL     1      34.617 -17.244 -25.045  0.00  0.00    +0.025 C 
ATOM     12  C   UNL     1      35.506 -19.615 -20.919  0.00  0.00    +0.150 C 
ATOM     13  C   UNL     1      35.750 -20.524 -22.113  0.00  0.00    +0.064 C 
ATOM     14  C   UNL     1      33.537 -14.981 -25.099  0.00  0.00    -0.041 C 
ATOM     15  C   UNL     1      33.215 -18.750 -21.012  0.00  0.00    +0.007 C 
ATOM     16  C   UNL     1      34.250 -13.393 -23.290  0.00  0.00    +0.012 C 
ATOM     17  C   UNL     1      34.002 -16.068 -25.740  0.00  0.00    -0.034 C 
ATOM     18  C   UNL     1      32.814 -13.897 -25.849  0.00  0.00    +0.086 C 
ATOM     19  C   UNL     1      33.481 -12.275 -23.981  0.00  0.00    +0.065 C 
ATOM     20  C   UNL     1      33.394 -12.558 -25.461  0.00  0.00    +0.155 C 
ENDROOT
TORSDOF 0
ENDMDL
MODEL 7
REMARK VINA RESULT:      -8.4     16.758     20.024
REMARK  Name = 18633059
REMARK  0 active torsions:
REMARK  status: ('A' for Active; 'I' for Inactive)
REMARK                            x       y       z     vdW  Elec       q    Type
REMARK                         _______ _______ _______ _____ _____    ______ ____
ROOT
ATOM      1  O   UNL     1      31.570  -7.195 -20.557  0.00  0.00    -0.296 OA
ATOM      2  O   UNL     1      33.425  -1.786 -29.553  0.00  0.00    -0.296 OA
ATOM      3  C   UNL     1      33.153  -6.494 -23.568  0.00  0.00    +0.007 C 
ATOM      4  C   UNL     1      33.047  -6.065 -25.031  0.00  0.00    +0.005 C 
ATOM      5  C   UNL     1      31.763  -6.682 -22.927  0.00  0.00    +0.052 C 
ATOM      6  C   UNL     1      32.292  -4.710 -25.099  0.00  0.00    +0.004 C 
ATOM      7  C   UNL     1      31.080  -5.319 -22.890  0.00  0.00    +0.007 C 
ATOM      8  C   UNL     1      30.961  -4.721 -24.304  0.00  0.00    +0.001 C 
ATOM      9  C   UNL     1      32.081  -4.276 -26.581  0.00  0.00    +0.019 C 
ATOM     10  C   UNL     1      33.910  -7.766 -23.204  0.00  0.00    +0.008 C 
ATOM     11  C   UNL     1      34.426  -5.921 -25.689  0.00  0.00    +0.025 C 
ATOM     12  C   UNL     1      32.212  -7.257 -21.597  0.00  0.00    +0.150 C 
ATOM     13  C   UNL     1      33.557  -7.956 -21.721  0.00  0.00    +0.064 C 
ATOM     14  C   UNL     1      33.280  -4.579 -27.472  0.00  0.00    -0.041 C 
ATOM     15  C   UNL     1      30.858  -7.743 -23.582  0.00  0.00    +0.007 C 
ATOM     16  C   UNL     1      31.746  -2.769 -26.651  0.00  0.00    +0.012 C 
ATOM     17  C   UNL     1      34.341  -5.284 -27.042  0.00  0.00    -0.034 C 
ATOM     18  C   UNL     1      33.210  -4.080 -28.888  0.00  0.00    +0.086 C 
ATOM     19  C   UNL     1      31.595  -2.263 -28.079  0.00  0.00    +0.065 C 
ATOM     20  C   UNL     1      32.824  -2.620 -28.878  0.00  0.00    +0.155 C 
ENDROOT
TORSDOF 0
ENDMDL
MODEL 8
REMARK VINA RESULT:      -8.2      4.951      9.282
REMARK  Name = 18633059
REMARK  0 active torsions:
REMARK  status: ('A' for Active; 'I' for Inactive)
REMARK                            x       y       z     vdW  Elec       q    Type
REMARK                         _______ _______ _______ _____ _____    ______ ____
ROOT
ATOM      1  O   UNL     1      32.180 -13.494 -22.641  0.00  0.00    -0.296 OA
ATOM      2  O   UNL     1      34.397 -23.579 -19.996  0.00  0.00    -0.296 OA
ATOM      3  C   UNL     1      34.047 -16.422 -22.586  0.00  0.00    +0.007 C 
ATOM      4  C   UNL     1      34.591 -17.610 -21.794  0.00  0.00    +0.005 C 
ATOM      5  C   UNL     1      33.317 -15.415 -21.674  0.00  0.00    +0.052 C 
ATOM      6  C   UNL     1      33.403 -18.342 -21.115  0.00  0.00    +0.004 C 
ATOM      7  C   UNL     1      32.083 -16.110 -21.109  0.00  0.00    +0.007 C 
ATOM      8  C   UNL     1      32.472 -17.381 -20.331  0.00  0.00    +0.001 C 
ATOM      9  C   UNL     1      33.919 -19.510 -20.221  0.00  0.00    +0.019 C 
ATOM     10  C   UNL     1      34.998 -15.562 -23.412  0.00  0.00    +0.008 C 
ATOM     11  C   UNL     1      35.360 -18.594 -22.688  0.00  0.00    +0.025 C 
ATOM     12  C   UNL     1      33.076 -14.325 -22.703  0.00  0.00    +0.150 C 
ATOM     13  C   UNL     1      34.113 -14.373 -23.814  0.00  0.00    +0.064 C 
ATOM     14  C   UNL     1      35.087 -20.268 -20.840  0.00  0.00    -0.041 C 
ATOM     15  C   UNL     1      34.165 -14.783 -20.555  0.00  0.00    +0.007 C 
ATOM     16  C   UNL     1      32.766 -20.491 -19.910  0.00  0.00    +0.012 C 
ATOM     17  C   UNL     1      35.695 -19.864 -21.969  0.00  0.00    -0.034 C 
ATOM     18  C   UNL     1      35.565 -21.487 -20.102  0.00  0.00    +0.086 C 
ATOM     19  C   UNL     1      33.218 -21.696 -19.095  0.00  0.00    +0.065 C 
ATOM     20  C   UNL     1      34.380 -22.368 -19.784  0.00  0.00    +0.155 C 
ENDROOT
TORSDOF 0
ENDMDL
MODEL 9
REMARK VINA RESULT:      -8.1      0.997      6.734
REMARK  Name = 18633059
REMARK  0 active torsions:
REMARK  status: ('A' for Active; 'I' for Inactive)
REMARK                            x       y       z     vdW  Elec       q    Type
REMARK                         _______ _______ _______ _____ _____    ______ ____
ROOT
ATOM      1  O   UNL     1      35.574 -19.229 -21.073  0.00  0.00    -0.296 OA
ATOM      2  O   UNL     1      35.891 -25.069 -12.162  0.00  0.00    -0.296 OA
ATOM      3  C   UNL     1      34.385 -21.484 -18.714  0.00  0.00    +0.007 C 
ATOM      4  C   UNL     1      34.655 -22.664 -17.782  0.00  0.00    +0.005 C 
ATOM      5  C   UNL     1      35.607 -21.163 -19.598  0.00  0.00    +0.052 C 
ATOM      6  C   UNL     1      35.846 -22.303 -16.853  0.00  0.00    +0.004 C 
ATOM      7  C   UNL     1      36.732 -20.692 -18.682  0.00  0.00    +0.007 C 
ATOM      8  C   UNL     1      37.075 -21.764 -17.631  0.00  0.00    +0.001 C 
ATOM      9  C   UNL     1      36.217 -23.513 -15.945  0.00  0.00    +0.019 C 
ATOM     10  C   UNL     1      33.218 -21.543 -19.693  0.00  0.00    +0.008 C 
ATOM     11  C   UNL     1      33.427 -23.019 -16.932  0.00  0.00    +0.025 C 
ATOM     12  C   UNL     1      34.965 -20.112 -20.485  0.00  0.00    +0.150 C 
ATOM     13  C   UNL     1      33.460 -20.314 -20.582  0.00  0.00    +0.064 C 
ATOM     14  C   UNL     1      35.000 -24.278 -15.438  0.00  0.00    -0.041 C 
ATOM     15  C   UNL     1      36.080 -22.295 -20.528  0.00  0.00    +0.007 C 
ATOM     16  C   UNL     1      37.070 -23.037 -14.747  0.00  0.00    +0.012 C 
ATOM     17  C   UNL     1      33.752 -24.016 -15.862  0.00  0.00    -0.034 C 
ATOM     18  C   UNL     1      35.263 -25.385 -14.454  0.00  0.00    +0.086 C 
ATOM     19  C   UNL     1      37.411 -24.163 -13.779  0.00  0.00    +0.065 C 
ATOM     20  C   UNL     1      36.145 -24.861 -13.347  0.00  0.00    +0.155 C 
ENDROOT
TORSDOF 0
ENDMDL
