MODEL 1
REMARK VINA RESULT:      -6.9      0.000      0.000
REMARK  Name = 6473
REMARK  4 active torsions:
REMARK  status: ('A' for Active; 'I' for Inactive)
REMARK    1  A    between atoms: C_6  and  C_12
REMARK    2  A    between atoms: C_6  and  C_14
REMARK    3  A    between atoms: C_14  and  C_15
REMARK    4  A    between atoms: C_15  and  C_16
REMARK                            x       y       z     vdW  Elec       q    Type
REMARK                         _______ _______ _______ _____ _____    ______ ____
ROOT
ATOM      1  O   UNL     1      37.506 -22.781 -15.156  0.00  0.00    -0.274 OA
ATOM      2  O   UNL     1      36.921 -26.856 -12.896  0.00  0.00    -0.274 OA
ATOM      3  O   UNL     1      40.625 -26.129 -15.505  0.00  0.00    -0.252 OA
ATOM      4  N   UNL     1      39.112 -24.419 -15.250  0.00  0.00    -0.239 N 
ATOM      5  N   UNL     1      38.819 -26.453 -14.121  0.00  0.00    -0.239 N 
ATOM      6  C   UNL     1      37.388 -24.556 -13.508  0.00  0.00    +0.138 C 
ATOM      7  C   UNL     1      37.970 -23.835 -14.720  0.00  0.00    +0.237 C 
ATOM      8  C   UNL     1      37.650 -26.059 -13.487  0.00  0.00    +0.237 C 
ATOM      9  C   UNL     1      39.600 -25.691 -14.981  0.00  0.00    +0.312 C 
ATOM     10  H   UNL     1      39.631 -23.872 -15.883  0.00  0.00    +0.159 HD
ATOM     11  H   UNL     1      39.127 -27.370 -13.943  0.00  0.00    +0.159 HD
ENDROOT
BRANCH   6  12
ATOM     12  C   UNL     1      38.068 -23.963 -12.262  0.00  0.00    +0.017 C 
ATOM     13  C   UNL     1      37.191 -22.916 -11.612  0.00  0.00    +0.001 C 
ENDBRANCH   6  12
BRANCH   6  14
ATOM     14  C   UNL     1      35.877 -24.297 -13.434  0.00  0.00    +0.017 C 
BRANCH  14  15
ATOM     15  C   UNL     1      35.187 -24.717 -14.725  0.00  0.00    +0.001 C 
BRANCH  15  16
ATOM     16  C   UNL     1      34.066 -23.742 -15.084  0.00  0.00    +0.000 C 
ATOM     17  C   UNL     1      34.186 -23.260 -16.520  0.00  0.00    +0.000 C 
ENDBRANCH  15  16
ENDBRANCH  14  15
ENDBRANCH   6  14
TORSDOF 4
ENDMDL
MODEL 2
REMARK VINA RESULT:      -6.8      2.600      4.044
REMARK  Name = 6473
REMARK  4 active torsions:
REMARK  status: ('A' for Active; 'I' for Inactive)
REMARK    1  A    between atoms: C_6  and  C_12
REMARK    2  A    between atoms: C_6  and  C_14
REMARK    3  A    between atoms: C_14  and  C_15
REMARK    4  A    between atoms: C_15  and  C_16
REMARK                            x       y       z     vdW  Elec       q    Type
REMARK                         _______ _______ _______ _____ _____    ______ ____
ROOT
ATOM      1  O   UNL     1      34.642 -24.622 -14.406  0.00  0.00    -0.274 OA
ATOM      2  O   UNL     1      38.967 -23.962 -12.697  0.00  0.00    -0.274 OA
ATOM      3  O   UNL     1      35.382 -24.478  -9.880  0.00  0.00    -0.252 OA
ATOM      4  N   UNL     1      35.029 -24.648 -12.145  0.00  0.00    -0.239 N 
ATOM      5  N   UNL     1      37.189 -24.319 -11.291  0.00  0.00    -0.239 N 
ATOM      6  C   UNL     1      36.939 -24.871 -13.669  0.00  0.00    +0.138 C 
ATOM      7  C   UNL     1      35.439 -24.678 -13.470  0.00  0.00    +0.237 C 
ATOM      8  C   UNL     1      37.799 -24.318 -12.537  0.00  0.00    +0.237 C 
ATOM      9  C   UNL     1      35.837 -24.498 -11.024  0.00  0.00    +0.312 C 
ATOM     10  H   UNL     1      34.063 -24.743 -11.981  0.00  0.00    +0.159 HD
ATOM     11  H   UNL     1      37.776 -24.176 -10.515  0.00  0.00    +0.159 HD
ENDROOT
BRANCH   6  12
ATOM     12  C   UNL     1      37.194 -26.387 -13.729  0.00  0.00    +0.017 C 
ATOM     13  C   UNL     1      37.138 -26.891 -15.153  0.00  0.00    +0.001 C 
ENDBRANCH   6  12
BRANCH   6  14
ATOM     14  C   UNL     1      37.366 -24.232 -14.998  0.00  0.00    +0.017 C 
BRANCH  14  15
ATOM     15  C   UNL     1      37.002 -22.753 -15.034  0.00  0.00    +0.001 C 
BRANCH  15  16
ATOM     16  C   UNL     1      37.540 -22.092 -16.303  0.00  0.00    +0.000 C 
ATOM     17  C   UNL     1      36.474 -22.011 -17.383  0.00  0.00    +0.000 C 
ENDBRANCH  15  16
ENDBRANCH  14  15
ENDBRANCH   6  14
TORSDOF 4
ENDMDL
MODEL 3
REMARK VINA RESULT:      -6.8      2.672      4.655
REMARK  Name = 6473
REMARK  4 active torsions:
REMARK  status: ('A' for Active; 'I' for Inactive)
REMARK    1  A    between atoms: C_6  and  C_12
REMARK    2  A    between atoms: C_6  and  C_14
REMARK    3  A    between atoms: C_14  and  C_15
REMARK    4  A    between atoms: C_15  and  C_16
REMARK                            x       y       z     vdW  Elec       q    Type
REMARK                         _______ _______ _______ _____ _____    ______ ____
ROOT
ATOM      1  O   UNL     1      36.933 -22.725 -12.378  0.00  0.00    -0.274 OA
ATOM      2  O   UNL     1      36.125 -25.877 -15.765  0.00  0.00    -0.274 OA
ATOM      3  O   UNL     1      32.753 -24.527 -12.961  0.00  0.00    -0.252 OA
ATOM      4  N   UNL     1      34.822 -23.553 -12.734  0.00  0.00    -0.239 N 
ATOM      5  N   UNL     1      34.419 -25.127 -14.426  0.00  0.00    -0.239 N 
ATOM      6  C   UNL     1      36.517 -23.856 -14.482  0.00  0.00    +0.138 C 
ATOM      7  C   UNL     1      36.145 -23.341 -13.096  0.00  0.00    +0.237 C 
ATOM      8  C   UNL     1      35.704 -25.062 -14.944  0.00  0.00    +0.237 C 
ATOM      9  C   UNL     1      33.912 -24.398 -13.357  0.00  0.00    +0.312 C 
ATOM     10  H   UNL     1      34.494 -23.051 -11.953  0.00  0.00    +0.159 HD
ATOM     11  H   UNL     1      33.802 -25.758 -14.860  0.00  0.00    +0.159 HD
ENDROOT
BRANCH   6  12
ATOM     12  C   UNL     1      36.236 -22.716 -15.477  0.00  0.00    +0.017 C 
ATOM     13  C   UNL     1      37.466 -22.397 -16.297  0.00  0.00    +0.001 C 
ENDBRANCH   6  12
BRANCH   6  14
ATOM     14  C   UNL     1      38.012 -24.202 -14.517  0.00  0.00    +0.017 C 
BRANCH  14  15
ATOM     15  C   UNL     1      38.348 -25.275 -13.488  0.00  0.00    +0.001 C 
BRANCH  15  16
ATOM     16  C   UNL     1      39.744 -25.846 -13.735  0.00  0.00    +0.000 C 
ATOM     17  C   UNL     1      40.278 -25.442 -15.099  0.00  0.00    +0.000 C 
ENDBRANCH  15  16
ENDBRANCH  14  15
ENDBRANCH   6  14
TORSDOF 4
ENDMDL
MODEL 4
REMARK VINA RESULT:      -6.6      1.701      2.033
REMARK  Name = 6473
REMARK  4 active torsions:
REMARK  status: ('A' for Active; 'I' for Inactive)
REMARK    1  A    between atoms: C_6  and  C_12
REMARK    2  A    between atoms: C_6  and  C_14
REMARK    3  A    between atoms: C_14  and  C_15
REMARK    4  A    between atoms: C_15  and  C_16
REMARK                            x       y       z     vdW  Elec       q    Type
REMARK                         _______ _______ _______ _____ _____    ______ ____
ROOT
ATOM      1  O   UNL     1      36.171 -25.888 -15.563  0.00  0.00    -0.274 OA
ATOM      2  O   UNL     1      38.201 -24.639 -11.516  0.00  0.00    -0.274 OA
ATOM      3  O   UNL     1      40.736 -25.963 -15.103  0.00  0.00    -0.252 OA
ATOM      4  N   UNL     1      38.457 -25.830 -15.362  0.00  0.00    -0.239 N 
ATOM      5  N   UNL     1      39.470 -25.206 -13.341  0.00  0.00    -0.239 N 
ATOM      6  C   UNL     1      37.096 -24.680 -13.675  0.00  0.00    +0.138 C 
ATOM      7  C   UNL     1      37.170 -25.537 -14.934  0.00  0.00    +0.237 C 
ATOM      8  C   UNL     1      38.277 -24.856 -12.725  0.00  0.00    +0.237 C 
ATOM      9  C   UNL     1      39.633 -25.670 -14.641  0.00  0.00    +0.312 C 
ATOM     10  H   UNL     1      38.545 -26.189 -16.275  0.00  0.00    +0.159 HD
ATOM     11  H   UNL     1      40.286 -25.118 -12.800  0.00  0.00    +0.159 HD
ENDROOT
BRANCH   6  12
ATOM     12  C   UNL     1      37.101 -23.210 -14.130  0.00  0.00    +0.017 C 
ATOM     13  C   UNL     1      37.259 -23.107 -15.631  0.00  0.00    +0.001 C 
ENDBRANCH   6  12
BRANCH   6  14
ATOM     14  C   UNL     1      35.789 -24.975 -12.928  0.00  0.00    +0.017 C 
BRANCH  14  15
ATOM     15  C   UNL     1      34.828 -23.797 -13.021  0.00  0.00    +0.001 C 
BRANCH  15  16
ATOM     16  C   UNL     1      33.565 -24.185 -13.788  0.00  0.00    +0.000 C 
ATOM     17  C   UNL     1      33.460 -23.433 -15.105  0.00  0.00    +0.000 C 
ENDBRANCH  15  16
ENDBRANCH  14  15
ENDBRANCH   6  14
TORSDOF 4
ENDMDL
MODEL 5
REMARK VINA RESULT:      -6.6     17.396     19.763
REMARK  Name = 6473
REMARK  4 active torsions:
REMARK  status: ('A' for Active; 'I' for Inactive)
REMARK    1  A    between atoms: C_6  and  C_12
REMARK    2  A    between atoms: C_6  and  C_14
REMARK    3  A    between atoms: C_14  and  C_15
REMARK    4  A    between atoms: C_15  and  C_16
REMARK                            x       y       z     vdW  Elec       q    Type
REMARK                         _______ _______ _______ _____ _____    ______ ____
ROOT
ATOM      1  O   UNL     1      32.744  -7.528 -19.849  0.00  0.00    -0.274 OA
ATOM      2  O   UNL     1      31.110  -8.359 -24.173  0.00  0.00    -0.274 OA
ATOM      3  O   UNL     1      30.220  -4.390 -22.049  0.00  0.00    -0.252 OA
ATOM      4  N   UNL     1      31.566  -5.922 -20.989  0.00  0.00    -0.239 N 
ATOM      5  N   UNL     1      30.750  -6.338 -23.148  0.00  0.00    -0.239 N 
ATOM      6  C   UNL     1      32.475  -7.827 -22.240  0.00  0.00    +0.138 C 
ATOM      7  C   UNL     1      32.269  -7.116 -20.907  0.00  0.00    +0.237 C 
ATOM      8  C   UNL     1      31.376  -7.570 -23.266  0.00  0.00    +0.237 C 
ATOM      9  C   UNL     1      30.818  -5.467 -22.068  0.00  0.00    +0.312 C 
ATOM     10  H   UNL     1      31.601  -5.336 -20.199  0.00  0.00    +0.159 HD
ATOM     11  H   UNL     1      30.197  -6.051 -23.910  0.00  0.00    +0.159 HD
ENDROOT
BRANCH   6  12
ATOM     12  C   UNL     1      33.786  -7.289 -22.840  0.00  0.00    +0.017 C 
ATOM     13  C   UNL     1      34.505  -8.363 -23.624  0.00  0.00    +0.001 C 
ENDBRANCH   6  12
BRANCH   6  14
ATOM     14  C   UNL     1      32.610  -9.338 -22.000  0.00  0.00    +0.017 C 
BRANCH  14  15
ATOM     15  C   UNL     1      31.283  -9.939 -21.555  0.00  0.00    +0.001 C 
BRANCH  15  16
ATOM     16  C   UNL     1      31.512 -11.137 -20.633  0.00  0.00    +0.000 C 
ATOM     17  C   UNL     1      31.417 -10.739 -19.169  0.00  0.00    +0.000 C 
ENDBRANCH  15  16
ENDBRANCH  14  15
ENDBRANCH   6  14
TORSDOF 4
ENDMDL
MODEL 6
REMARK VINA RESULT:      -6.5      2.388      3.894
REMARK  Name = 6473
REMARK  4 active torsions:
REMARK  status: ('A' for Active; 'I' for Inactive)
REMARK    1  A    between atoms: C_6  and  C_12
REMARK    2  A    between atoms: C_6  and  C_14
REMARK    3  A    between atoms: C_14  and  C_15
REMARK    4  A    between atoms: C_15  and  C_16
REMARK                            x       y       z     vdW  Elec       q    Type
REMARK                         _______ _______ _______ _____ _____    ______ ____
ROOT
ATOM      1  O   UNL     1      33.814 -24.636 -12.966  0.00  0.00    -0.274 OA
ATOM      2  O   UNL     1      37.770 -23.242 -15.080  0.00  0.00    -0.274 OA
ATOM      3  O   UNL     1      37.210 -22.707 -10.557  0.00  0.00    -0.252 OA
ATOM      4  N   UNL     1      35.553 -23.762 -11.749  0.00  0.00    -0.239 N 
ATOM      5  N   UNL     1      37.528 -23.066 -12.805  0.00  0.00    -0.239 N 
ATOM      6  C   UNL     1      35.982 -24.514 -14.045  0.00  0.00    +0.138 C 
ATOM      7  C   UNL     1      34.997 -24.299 -12.901  0.00  0.00    +0.237 C 
ATOM      8  C   UNL     1      37.155 -23.538 -14.055  0.00  0.00    +0.237 C 
ATOM      9  C   UNL     1      36.800 -23.163 -11.625  0.00  0.00    +0.312 C 
ATOM     10  H   UNL     1      35.005 -23.811 -10.933  0.00  0.00    +0.159 HD
ATOM     11  H   UNL     1      38.400 -22.614 -12.748  0.00  0.00    +0.159 HD
ENDROOT
BRANCH   6  12
ATOM     12  C   UNL     1      36.573 -25.924 -13.871  0.00  0.00    +0.017 C 
ATOM     13  C   UNL     1      36.697 -26.628 -15.205  0.00  0.00    +0.001 C 
ENDBRANCH   6  12
BRANCH   6  14
ATOM     14  C   UNL     1      35.239 -24.436 -15.385  0.00  0.00    +0.017 C 
BRANCH  14  15
ATOM     15  C   UNL     1      34.469 -23.127 -15.507  0.00  0.00    +0.001 C 
BRANCH  15  16
ATOM     16  C   UNL     1      33.259 -23.292 -16.426  0.00  0.00    +0.000 C 
ATOM     17  C   UNL     1      31.956 -23.229 -15.648  0.00  0.00    +0.000 C 
ENDBRANCH  15  16
ENDBRANCH  14  15
ENDBRANCH   6  14
TORSDOF 4
ENDMDL
MODEL 7
REMARK VINA RESULT:      -6.5      0.875      1.065
REMARK  Name = 6473
REMARK  4 active torsions:
REMARK  status: ('A' for Active; 'I' for Inactive)
REMARK    1  A    between atoms: C_6  and  C_12
REMARK    2  A    between atoms: C_6  and  C_14
REMARK    3  A    between atoms: C_14  and  C_15
REMARK    4  A    between atoms: C_15  and  C_16
REMARK                            x       y       z     vdW  Elec       q    Type
REMARK                         _______ _______ _______ _____ _____    ______ ____
ROOT
ATOM      1  O   UNL     1      36.891 -23.449 -16.067  0.00  0.00    -0.274 OA
ATOM      2  O   UNL     1      37.034 -26.713 -12.692  0.00  0.00    -0.274 OA
ATOM      3  O   UNL     1      40.849 -25.468 -14.919  0.00  0.00    -0.252 OA
ATOM      4  N   UNL     1      38.884 -24.388 -15.423  0.00  0.00    -0.239 N 
ATOM      5  N   UNL     1      38.955 -26.018 -13.738  0.00  0.00    -0.239 N 
ATOM      6  C   UNL     1      36.932 -24.646 -13.959  0.00  0.00    +0.138 C 
ATOM      7  C   UNL     1      37.533 -24.119 -15.258  0.00  0.00    +0.237 C 
ATOM      8  C   UNL     1      37.611 -25.901 -13.417  0.00  0.00    +0.237 C 
ATOM      9  C   UNL     1      39.650 -25.291 -14.697  0.00  0.00    +0.312 C 
ATOM     10  H   UNL     1      39.348 -23.886 -16.131  0.00  0.00    +0.159 HD
ATOM     11  H   UNL     1      39.470 -26.688 -13.235  0.00  0.00    +0.159 HD
ENDROOT
BRANCH   6  12
ATOM     12  C   UNL     1      37.112 -23.544 -12.900  0.00  0.00    +0.017 C 
ATOM     13  C   UNL     1      37.977 -24.026 -11.757  0.00  0.00    +0.001 C 
ENDBRANCH   6  12
BRANCH   6  14
ATOM     14  C   UNL     1      35.435 -24.919 -14.159  0.00  0.00    +0.017 C 
BRANCH  14  15
ATOM     15  C   UNL     1      34.597 -24.107 -13.180  0.00  0.00    +0.001 C 
BRANCH  15  16
ATOM     16  C   UNL     1      33.204 -23.840 -13.749  0.00  0.00    +0.000 C 
ATOM     17  C   UNL     1      33.274 -23.343 -15.183  0.00  0.00    +0.000 C 
ENDBRANCH  15  16
ENDBRANCH  14  15
ENDBRANCH   6  14
TORSDOF 4
ENDMDL
MODEL 8
REMARK VINA RESULT:      -6.4     17.298     19.575
REMARK  Name = 6473
REMARK  4 active torsions:
REMARK  status: ('A' for Active; 'I' for Inactive)
REMARK    1  A    between atoms: C_6  and  C_12
REMARK    2  A    between atoms: C_6  and  C_14
REMARK    3  A    between atoms: C_14  and  C_15
REMARK    4  A    between atoms: C_15  and  C_16
REMARK                            x       y       z     vdW  Elec       q    Type
REMARK                         _______ _______ _______ _____ _____    ______ ____
ROOT
ATOM      1  O   UNL     1      31.203  -8.084 -24.176  0.00  0.00    -0.274 OA
ATOM      2  O   UNL     1      32.952  -7.455 -19.863  0.00  0.00    -0.274 OA
ATOM      3  O   UNL     1      30.990 -11.431 -21.044  0.00  0.00    -0.252 OA
ATOM      4  N   UNL     1      31.186  -9.790 -22.641  0.00  0.00    -0.239 N 
ATOM      5  N   UNL     1      32.060  -9.475 -20.487  0.00  0.00    -0.239 N 
ATOM      6  C   UNL     1      32.638  -7.853 -22.235  0.00  0.00    +0.138 C 
ATOM      7  C   UNL     1      31.598  -8.550 -23.107  0.00  0.00    +0.237 C 
ATOM      8  C   UNL     1      32.552  -8.206 -20.753  0.00  0.00    +0.237 C 
ATOM      9  C   UNL     1      31.399 -10.317 -21.373  0.00  0.00    +0.312 C 
ATOM     10  H   UNL     1      30.690 -10.355 -23.276  0.00  0.00    +0.159 HD
ATOM     11  H   UNL     1      32.191  -9.814 -19.573  0.00  0.00    +0.159 HD
ENDROOT
BRANCH   6  12
ATOM     12  C   UNL     1      34.021  -8.314 -22.728  0.00  0.00    +0.017 C 
ATOM     13  C   UNL     1      34.606  -7.320 -23.707  0.00  0.00    +0.001 C 
ENDBRANCH   6  12
BRANCH   6  14
ATOM     14  C   UNL     1      32.517  -6.333 -22.408  0.00  0.00    +0.017 C 
BRANCH  14  15
ATOM     15  C   UNL     1      31.147  -5.839 -21.961  0.00  0.00    +0.001 C 
BRANCH  15  16
ATOM     16  C   UNL     1      30.781  -4.537 -22.671  0.00  0.00    +0.000 C 
ATOM     17  C   UNL     1      31.182  -4.569 -24.136  0.00  0.00    +0.000 C 
ENDBRANCH  15  16
ENDBRANCH  14  15
ENDBRANCH   6  14
TORSDOF 4
ENDMDL
MODEL 9
REMARK VINA RESULT:      -6.4      1.094      2.781
REMARK  Name = 6473
REMARK  4 active torsions:
REMARK  status: ('A' for Active; 'I' for Inactive)
REMARK    1  A    between atoms: C_6  and  C_12
REMARK    2  A    between atoms: C_6  and  C_14
REMARK    3  A    between atoms: C_14  and  C_15
REMARK    4  A    between atoms: C_15  and  C_16
REMARK                            x       y       z     vdW  Elec       q    Type
REMARK                         _______ _______ _______ _____ _____    ______ ____
ROOT
ATOM      1  O   UNL     1      37.034 -26.006 -12.056  0.00  0.00    -0.274 OA
ATOM      2  O   UNL     1      37.525 -23.062 -15.683  0.00  0.00    -0.274 OA
ATOM      3  O   UNL     1      40.924 -25.903 -14.488  0.00  0.00    -0.252 OA
ATOM      4  N   UNL     1      38.940 -26.022 -13.334  0.00  0.00    -0.239 N 
ATOM      5  N   UNL     1      39.185 -24.552 -15.145  0.00  0.00    -0.239 N 
ATOM      6  C   UNL     1      36.942 -24.902 -14.213  0.00  0.00    +0.138 C 
ATOM      7  C   UNL     1      37.622 -25.667 -13.083  0.00  0.00    +0.237 C 
ATOM      8  C   UNL     1      37.891 -24.060 -15.062  0.00  0.00    +0.237 C 
ATOM      9  C   UNL     1      39.759 -25.532 -14.343  0.00  0.00    +0.312 C 
ATOM     10  H   UNL     1      39.336 -26.693 -12.732  0.00  0.00    +0.159 HD
ATOM     11  H   UNL     1      39.758 -24.165 -15.845  0.00  0.00    +0.159 HD
ENDROOT
BRANCH   6  12
ATOM     12  C   UNL     1      36.308 -25.946 -15.148  0.00  0.00    +0.017 C 
ATOM     13  C   UNL     1      36.863 -27.327 -14.874  0.00  0.00    +0.001 C 
ENDBRANCH   6  12
BRANCH   6  14
ATOM     14  C   UNL     1      35.840 -24.004 -13.634  0.00  0.00    +0.017 C 
BRANCH  14  15
ATOM     15  C   UNL     1      34.474 -24.389 -14.188  0.00  0.00    +0.001 C 
BRANCH  15  16
ATOM     16  C   UNL     1      33.846 -23.220 -14.946  0.00  0.00    +0.000 C 
ATOM     17  C   UNL     1      33.910 -23.433 -16.450  0.00  0.00    +0.000 C 
ENDBRANCH  15  16
ENDBRANCH  14  15
ENDBRANCH   6  14
TORSDOF 4
ENDMDL
