MODEL 1
REMARK VINA RESULT:     -11.0      0.000      0.000
REMARK  Name = 58298318
REMARK  3 active torsions:
REMARK  status: ('A' for Active; 'I' for Inactive)
REMARK    1  A    between atoms: N_2  and  C_26
REMARK    2  A    between atoms: C_10  and  C_14
REMARK    3  A    between atoms: C_17  and  C_23
REMARK                            x       y       z     vdW  Elec       q    Type
REMARK                         _______ _______ _______ _____ _____    ______ ____
ROOT
ATOM      1  O   UNL     1      33.993 -13.379 -23.478  0.00  0.00    -0.273 OA
ATOM      2  N   UNL     1      34.321 -15.496 -22.577  0.00  0.00    -0.230 N 
ATOM      3  N   UNL     1      34.484 -16.458 -25.176  0.00  0.00    -0.308 N 
ATOM      4  N   UNL     1      34.688 -17.730 -21.760  0.00  0.00    -0.386 NA
ATOM      5  N   UNL     1      34.877 -18.646 -24.379  0.00  0.00    -0.245 NA
ATOM      6  C   UNL     1      34.527 -16.887 -22.810  0.00  0.00    +0.220 C 
ATOM      7  C   UNL     1      34.616 -17.341 -24.120  0.00  0.00    +0.170 C 
ATOM      8  C   UNL     1      33.790 -15.214 -24.970  0.00  0.00    +0.175 C 
ATOM      9  C   UNL     1      34.076 -14.601 -23.618  0.00  0.00    +0.251 C 
ATOM     10  C   UNL     1      34.930 -19.023 -22.038  0.00  0.00    +0.137 C 
ATOM     11  C   UNL     1      35.024 -19.474 -23.329  0.00  0.00    +0.186 C 
ATOM     12  H   UNL     1      34.861 -16.678 -26.058  0.00  0.00    +0.149 HD
ENDROOT
BRANCH  10  14
ATOM     13  N   UNL     1      34.108 -21.291 -19.188  0.00  0.00    -0.407 NA
ATOM     14  C   UNL     1      35.087 -19.896 -20.903  0.00  0.00    +0.049 C 
ATOM     15  C   UNL     1      34.004 -20.466 -20.255  0.00  0.00    +0.111 C 
ATOM     16  C   UNL     1      36.359 -20.188 -20.424  0.00  0.00    -0.014 C 
ATOM     17  C   UNL     1      35.360 -21.551 -18.750  0.00  0.00    +0.146 C 
ATOM     18  C   UNL     1      36.507 -21.031 -19.328  0.00  0.00    +0.088 C 
ATOM     19  C   UNL     1      32.607 -20.196 -20.717  0.00  0.00    +0.066 C 
BRANCH  17  23
ATOM     20  N   UNL     1      36.550 -22.583 -16.860  0.00  0.00    -0.217 N 
ATOM     21  N   UNL     1      34.470 -23.191 -17.138  0.00  0.00    -0.204 NA
ATOM     22  N   UNL     1      36.350 -23.458 -15.862  0.00  0.00    -0.157 NA
ATOM     23  C   UNL     1      35.428 -22.430 -17.613  0.00  0.00    +0.175 C 
ATOM     24  C   UNL     1      35.077 -23.796 -16.075  0.00  0.00    +0.218 C 
ATOM     25  H   UNL     1      37.399 -22.112 -17.024  0.00  0.00    +0.176 HD
ENDBRANCH  17  23
ENDBRANCH  10  14
BRANCH   2  26
ATOM     26  C   UNL     1      34.417 -15.023 -21.201  0.00  0.00    +0.101 C 
ATOM     27  C   UNL     1      33.050 -14.897 -20.560  0.00  0.00    +0.024 C 
ENDBRANCH   2  26
TORSDOF 3
ENDMDL
MODEL 2
REMARK VINA RESULT:     -10.9      0.668      1.392
REMARK  Name = 58298318
REMARK  3 active torsions:
REMARK  status: ('A' for Active; 'I' for Inactive)
REMARK    1  A    between atoms: N_2  and  C_26
REMARK    2  A    between atoms: C_10  and  C_14
REMARK    3  A    between atoms: C_17  and  C_23
REMARK                            x       y       z     vdW  Elec       q    Type
REMARK                         _______ _______ _______ _____ _____    ______ ____
ROOT
ATOM      1  O   UNL     1      33.841 -13.153 -23.482  0.00  0.00    -0.273 OA
ATOM      2  N   UNL     1      34.063 -15.305 -22.633  0.00  0.00    -0.230 N 
ATOM      3  N   UNL     1      34.297 -16.197 -25.251  0.00  0.00    -0.308 N 
ATOM      4  N   UNL     1      34.324 -17.573 -21.869  0.00  0.00    -0.386 NA
ATOM      5  N   UNL     1      34.586 -18.419 -24.505  0.00  0.00    -0.245 NA
ATOM      6  C   UNL     1      34.233 -16.695 -22.899  0.00  0.00    +0.220 C 
ATOM      7  C   UNL     1      34.358 -17.114 -24.218  0.00  0.00    +0.170 C 
ATOM      8  C   UNL     1      33.637 -14.937 -25.035  0.00  0.00    +0.175 C 
ATOM      9  C   UNL     1      33.889 -14.373 -23.655  0.00  0.00    +0.251 C 
ATOM     10  C   UNL     1      34.534 -18.864 -22.176  0.00  0.00    +0.137 C 
ATOM     11  C   UNL     1      34.664 -19.281 -23.475  0.00  0.00    +0.186 C 
ATOM     12  H   UNL     1      34.702 -16.404 -26.124  0.00  0.00    +0.149 HD
ENDROOT
BRANCH  10  14
ATOM     13  N   UNL     1      35.934 -20.895 -19.373  0.00  0.00    -0.407 NA
ATOM     14  C   UNL     1      34.617 -19.774 -21.063  0.00  0.00    +0.049 C 
ATOM     15  C   UNL     1      35.813 -20.048 -20.421  0.00  0.00    +0.111 C 
ATOM     16  C   UNL     1      33.470 -20.411 -20.601  0.00  0.00    -0.014 C 
ATOM     17  C   UNL     1      34.798 -21.495 -18.953  0.00  0.00    +0.146 C 
ATOM     18  C   UNL     1      33.554 -21.288 -19.526  0.00  0.00    +0.088 C 
ATOM     19  C   UNL     1      37.086 -19.400 -20.865  0.00  0.00    +0.066 C 
BRANCH  17  23
ATOM     20  N   UNL     1      36.080 -22.390 -17.052  0.00  0.00    -0.217 N 
ATOM     21  N   UNL     1      34.126 -23.300 -17.412  0.00  0.00    -0.204 NA
ATOM     22  N   UNL     1      35.989 -23.315 -16.084  0.00  0.00    -0.157 NA
ATOM     23  C   UNL     1      34.969 -22.388 -17.837  0.00  0.00    +0.175 C 
ATOM     24  C   UNL     1      34.789 -23.837 -16.346  0.00  0.00    +0.218 C 
ATOM     25  H   UNL     1      36.850 -21.790 -17.177  0.00  0.00    +0.176 HD
ENDBRANCH  17  23
ENDBRANCH  10  14
BRANCH   2  26
ATOM     26  C   UNL     1      34.120 -14.875 -21.240  0.00  0.00    +0.101 C 
ATOM     27  C   UNL     1      32.733 -14.722 -20.649  0.00  0.00    +0.024 C 
ENDBRANCH   2  26
TORSDOF 3
ENDMDL
MODEL 3
REMARK VINA RESULT:      -9.8      4.800     10.055
REMARK  Name = 58298318
REMARK  3 active torsions:
REMARK  status: ('A' for Active; 'I' for Inactive)
REMARK    1  A    between atoms: N_2  and  C_26
REMARK    2  A    between atoms: C_10  and  C_14
REMARK    3  A    between atoms: C_17  and  C_23
REMARK                            x       y       z     vdW  Elec       q    Type
REMARK                         _______ _______ _______ _____ _____    ______ ____
ROOT
ATOM      1  O   UNL     1      35.324 -18.537 -22.060  0.00  0.00    -0.273 OA
ATOM      2  N   UNL     1      34.573 -16.374 -22.457  0.00  0.00    -0.230 N 
ATOM      3  N   UNL     1      34.184 -17.111 -25.105  0.00  0.00    -0.308 N 
ATOM      4  N   UNL     1      33.757 -14.171 -22.982  0.00  0.00    -0.386 NA
ATOM      5  N   UNL     1      33.354 -14.960 -25.618  0.00  0.00    -0.245 NA
ATOM      6  C   UNL     1      34.079 -15.422 -23.395  0.00  0.00    +0.220 C 
ATOM      7  C   UNL     1      33.883 -15.819 -24.713  0.00  0.00    +0.170 C 
ATOM      8  C   UNL     1      35.125 -17.879 -24.332  0.00  0.00    +0.175 C 
ATOM      9  C   UNL     1      34.987 -17.648 -22.844  0.00  0.00    +0.251 C 
ATOM     10  C   UNL     1      33.249 -13.330 -23.899  0.00  0.00    +0.137 C 
ATOM     11  C   UNL     1      33.050 -13.719 -25.198  0.00  0.00    +0.186 C 
ATOM     12  H   UNL     1      33.761 -17.499 -25.903  0.00  0.00    +0.149 HD
ENDROOT
BRANCH  10  14
ATOM     13  N   UNL     1      33.245  -9.612 -23.553  0.00  0.00    -0.407 NA
ATOM     14  C   UNL     1      32.926 -12.006 -23.433  0.00  0.00    +0.049 C 
ATOM     15  C   UNL     1      33.520 -10.872 -23.962  0.00  0.00    +0.111 C 
ATOM     16  C   UNL     1      31.992 -11.837 -22.417  0.00  0.00    -0.014 C 
ATOM     17  C   UNL     1      32.331  -9.488 -22.564  0.00  0.00    +0.146 C 
ATOM     18  C   UNL     1      31.682 -10.558 -21.969  0.00  0.00    +0.088 C 
ATOM     19  C   UNL     1      34.533 -10.979 -25.056  0.00  0.00    +0.066 C 
BRANCH  17  23
ATOM     20  N   UNL     1      31.215  -7.311 -22.826  0.00  0.00    -0.217 N 
ATOM     21  N   UNL     1      32.577  -7.498 -21.128  0.00  0.00    -0.204 NA
ATOM     22  N   UNL     1      31.147  -6.104 -22.243  0.00  0.00    -0.157 NA
ATOM     23  C   UNL     1      32.068  -8.133 -22.157  0.00  0.00    +0.175 C 
ATOM     24  C   UNL     1      31.989  -6.269 -21.221  0.00  0.00    +0.218 C 
ATOM     25  H   UNL     1      30.713  -7.568 -23.633  0.00  0.00    +0.176 HD
ENDBRANCH  17  23
ENDBRANCH  10  14
BRANCH   2  26
ATOM     26  C   UNL     1      34.592 -15.985 -21.051  0.00  0.00    +0.101 C 
ATOM     27  C   UNL     1      33.190 -15.823 -20.501  0.00  0.00    +0.024 C 
ENDBRANCH   2  26
TORSDOF 3
ENDMDL
MODEL 4
REMARK VINA RESULT:      -9.4      7.137     10.024
REMARK  Name = 58298318
REMARK  3 active torsions:
REMARK  status: ('A' for Active; 'I' for Inactive)
REMARK    1  A    between atoms: N_2  and  C_26
REMARK    2  A    between atoms: C_10  and  C_14
REMARK    3  A    between atoms: C_17  and  C_23
REMARK                            x       y       z     vdW  Elec       q    Type
REMARK                         _______ _______ _______ _____ _____    ______ ____
ROOT
ATOM      1  O   UNL     1      38.843 -23.399 -15.718  0.00  0.00    -0.273 OA
ATOM      2  N   UNL     1      36.525 -23.384 -15.549  0.00  0.00    -0.230 N 
ATOM      3  N   UNL     1      36.811 -24.503 -13.024  0.00  0.00    -0.308 N 
ATOM      4  N   UNL     1      34.137 -23.400 -15.251  0.00  0.00    -0.386 NA
ATOM      5  N   UNL     1      34.470 -24.491 -12.715  0.00  0.00    -0.245 NA
ATOM      6  C   UNL     1      35.371 -23.694 -14.772  0.00  0.00    +0.220 C 
ATOM      7  C   UNL     1      35.542 -24.243 -13.507  0.00  0.00    +0.170 C 
ATOM      8  C   UNL     1      37.896 -24.674 -13.954  0.00  0.00    +0.175 C 
ATOM      9  C   UNL     1      37.810 -23.733 -15.134  0.00  0.00    +0.251 C 
ATOM     10  C   UNL     1      33.086 -23.668 -14.457  0.00  0.00    +0.137 C 
ATOM     11  C   UNL     1      33.251 -24.205 -13.206  0.00  0.00    +0.186 C 
ATOM     12  H   UNL     1      36.970 -24.569 -12.055  0.00  0.00    +0.149 HD
ENDROOT
BRANCH  10  14
ATOM     13  N   UNL     1      30.389 -22.803 -16.890  0.00  0.00    -0.407 NA
ATOM     14  C   UNL     1      31.788 -23.354 -14.996  0.00  0.00    +0.049 C 
ATOM     15  C   UNL     1      31.590 -23.101 -16.343  0.00  0.00    +0.111 C 
ATOM     16  C   UNL     1      30.683 -23.295 -14.154  0.00  0.00    -0.014 C 
ATOM     17  C   UNL     1      29.339 -22.755 -16.039  0.00  0.00    +0.146 C 
ATOM     18  C   UNL     1      29.432 -22.991 -14.677  0.00  0.00    +0.088 C 
ATOM     19  C   UNL     1      32.733 -23.147 -17.306  0.00  0.00    +0.066 C 
BRANCH  17  23
ATOM     20  N   UNL     1      26.977 -22.071 -15.952  0.00  0.00    -0.217 N 
ATOM     21  N   UNL     1      27.801 -22.437 -17.942  0.00  0.00    -0.204 NA
ATOM     22  N   UNL     1      25.938 -21.825 -16.765  0.00  0.00    -0.157 NA
ATOM     23  C   UNL     1      28.080 -22.434 -16.659  0.00  0.00    +0.175 C 
ATOM     24  C   UNL     1      26.488 -22.061 -17.957  0.00  0.00    +0.218 C 
ATOM     25  H   UNL     1      26.945 -21.997 -14.970  0.00  0.00    +0.176 HD
ENDBRANCH  17  23
ENDBRANCH  10  14
BRANCH   2  26
ATOM     26  C   UNL     1      36.323 -22.641 -16.787  0.00  0.00    +0.101 C 
ATOM     27  C   UNL     1      37.114 -21.350 -16.797  0.00  0.00    +0.024 C 
ENDBRANCH   2  26
TORSDOF 3
ENDMDL
MODEL 5
REMARK VINA RESULT:      -9.3      7.411     12.987
REMARK  Name = 58298318
REMARK  3 active torsions:
REMARK  status: ('A' for Active; 'I' for Inactive)
REMARK    1  A    between atoms: N_2  and  C_26
REMARK    2  A    between atoms: C_10  and  C_14
REMARK    3  A    between atoms: C_17  and  C_23
REMARK                            x       y       z     vdW  Elec       q    Type
REMARK                         _______ _______ _______ _____ _____    ______ ____
ROOT
ATOM      1  O   UNL     1      34.356 -14.833 -24.092  0.00  0.00    -0.273 OA
ATOM      2  N   UNL     1      33.459 -12.745 -23.609  0.00  0.00    -0.230 N 
ATOM      3  N   UNL     1      32.362 -13.866 -21.319  0.00  0.00    -0.308 N 
ATOM      4  N   UNL     1      32.497 -10.625 -22.994  0.00  0.00    -0.386 NA
ATOM      5  N   UNL     1      31.443 -11.782 -20.695  0.00  0.00    -0.245 NA
ATOM      6  C   UNL     1      32.672 -11.944 -22.731  0.00  0.00    +0.220 C 
ATOM      7  C   UNL     1      32.143 -12.527 -21.586  0.00  0.00    +0.170 C 
ATOM      8  C   UNL     1      32.691 -14.755 -22.403  0.00  0.00    +0.175 C 
ATOM      9  C   UNL     1      33.607 -14.118 -23.423  0.00  0.00    +0.251 C 
ATOM     10  C   UNL     1      31.788  -9.907 -22.107  0.00  0.00    +0.137 C 
ATOM     11  C   UNL     1      31.269 -10.477 -20.973  0.00  0.00    +0.186 C 
ATOM     12  H   UNL     1      32.294 -14.207 -20.398  0.00  0.00    +0.149 HD
ENDROOT
BRANCH  10  14
ATOM     13  N   UNL     1      31.886  -6.186 -21.816  0.00  0.00    -0.407 NA
ATOM     14  C   UNL     1      31.612  -8.512 -22.417  0.00  0.00    +0.049 C 
ATOM     15  C   UNL     1      32.032  -7.506 -21.562  0.00  0.00    +0.111 C 
ATOM     16  C   UNL     1      31.002  -8.139 -23.610  0.00  0.00    -0.014 C 
ATOM     17  C   UNL     1      31.288  -5.862 -22.985  0.00  0.00    +0.146 C 
ATOM     18  C   UNL     1      30.833  -6.791 -23.907  0.00  0.00    +0.088 C 
ATOM     19  C   UNL     1      32.696  -7.835 -20.263  0.00  0.00    +0.066 C 
BRANCH  17  23
ATOM     20  N   UNL     1      30.457  -3.624 -22.388  0.00  0.00    -0.217 N 
ATOM     21  N   UNL     1      31.648  -3.755 -24.215  0.00  0.00    -0.204 NA
ATOM     22  N   UNL     1      30.483  -2.357 -22.829  0.00  0.00    -0.157 NA
ATOM     23  C   UNL     1      31.151  -4.449 -23.217  0.00  0.00    +0.175 C 
ATOM     24  C   UNL     1      31.216  -2.490 -23.936  0.00  0.00    +0.218 C 
ATOM     25  H   UNL     1      29.995  -3.919 -21.570  0.00  0.00    +0.176 HD
ENDBRANCH  17  23
ENDBRANCH  10  14
BRANCH   2  26
ATOM     26  C   UNL     1      34.152 -12.065 -24.698  0.00  0.00    +0.101 C 
ATOM     27  C   UNL     1      33.454 -12.289 -26.024  0.00  0.00    +0.024 C 
ENDBRANCH   2  26
TORSDOF 3
ENDMDL
MODEL 6
REMARK VINA RESULT:      -9.3      2.810      8.199
REMARK  Name = 58298318
REMARK  3 active torsions:
REMARK  status: ('A' for Active; 'I' for Inactive)
REMARK    1  A    between atoms: N_2  and  C_26
REMARK    2  A    between atoms: C_10  and  C_14
REMARK    3  A    between atoms: C_17  and  C_23
REMARK                            x       y       z     vdW  Elec       q    Type
REMARK                         _______ _______ _______ _____ _____    ______ ____
ROOT
ATOM      1  O   UNL     1      33.836 -23.085 -18.117  0.00  0.00    -0.273 OA
ATOM      2  N   UNL     1      34.209 -21.344 -19.610  0.00  0.00    -0.230 N 
ATOM      3  N   UNL     1      36.906 -21.526 -18.980  0.00  0.00    -0.308 N 
ATOM      4  N   UNL     1      34.720 -19.561 -21.145  0.00  0.00    -0.386 NA
ATOM      5  N   UNL     1      37.417 -19.799 -20.508  0.00  0.00    -0.245 NA
ATOM      6  C   UNL     1      35.144 -20.460 -20.222  0.00  0.00    +0.220 C 
ATOM      7  C   UNL     1      36.491 -20.579 -19.898  0.00  0.00    +0.170 C 
ATOM      8  C   UNL     1      35.963 -22.037 -18.020  0.00  0.00    +0.175 C 
ATOM      9  C   UNL     1      34.582 -22.233 -18.604  0.00  0.00    +0.251 C 
ATOM     10  C   UNL     1      35.652 -18.787 -21.727  0.00  0.00    +0.137 C 
ATOM     11  C   UNL     1      36.981 -18.905 -21.413  0.00  0.00    +0.186 C 
ATOM     12  H   UNL     1      37.836 -21.847 -18.984  0.00  0.00    +0.149 HD
ENDROOT
BRANCH  10  14
ATOM     13  N   UNL     1      34.265 -15.653 -23.211  0.00  0.00    -0.407 NA
ATOM     14  C   UNL     1      35.170 -17.836 -22.695  0.00  0.00    +0.049 C 
ATOM     15  C   UNL     1      34.725 -16.575 -22.334  0.00  0.00    +0.111 C 
ATOM     16  C   UNL     1      35.140 -18.174 -24.044  0.00  0.00    -0.014 C 
ATOM     17  C   UNL     1      34.251 -16.019 -24.513  0.00  0.00    +0.146 C 
ATOM     18  C   UNL     1      34.674 -17.254 -24.976  0.00  0.00    +0.088 C 
ATOM     19  C   UNL     1      34.728 -16.144 -20.902  0.00  0.00    +0.066 C 
BRANCH  17  23
ATOM     20  N   UNL     1      33.500 -13.733 -25.027  0.00  0.00    -0.217 N 
ATOM     21  N   UNL     1      33.481 -15.151 -26.690  0.00  0.00    -0.204 NA
ATOM     22  N   UNL     1      33.047 -12.997 -26.054  0.00  0.00    -0.157 NA
ATOM     23  C   UNL     1      33.755 -15.012 -25.413  0.00  0.00    +0.175 C 
ATOM     24  C   UNL     1      33.055 -13.901 -27.035  0.00  0.00    +0.218 C 
ATOM     25  H   UNL     1      33.630 -13.392 -24.113  0.00  0.00    +0.176 HD
ENDBRANCH  17  23
ENDBRANCH  10  14
BRANCH   2  26
ATOM     26  C   UNL     1      32.837 -21.319 -20.106  0.00  0.00    +0.101 C 
ATOM     27  C   UNL     1      32.363 -19.903 -20.357  0.00  0.00    +0.024 C 
ENDBRANCH   2  26
TORSDOF 3
ENDMDL
MODEL 7
REMARK VINA RESULT:      -9.3      7.025      9.924
REMARK  Name = 58298318
REMARK  3 active torsions:
REMARK  status: ('A' for Active; 'I' for Inactive)
REMARK    1  A    between atoms: N_2  and  C_26
REMARK    2  A    between atoms: C_10  and  C_14
REMARK    3  A    between atoms: C_17  and  C_23
REMARK                            x       y       z     vdW  Elec       q    Type
REMARK                         _______ _______ _______ _____ _____    ______ ____
ROOT
ATOM      1  O   UNL     1      39.408 -26.905 -14.606  0.00  0.00    -0.273 OA
ATOM      2  N   UNL     1      37.465 -25.694 -15.004  0.00  0.00    -0.230 N 
ATOM      3  N   UNL     1      39.077 -23.529 -15.652  0.00  0.00    -0.308 N 
ATOM      4  N   UNL     1      35.524 -24.347 -15.466  0.00  0.00    -0.386 NA
ATOM      5  N   UNL     1      37.177 -22.213 -16.137  0.00  0.00    -0.245 NA
ATOM      6  C   UNL     1      36.873 -24.453 -15.382  0.00  0.00    +0.220 C 
ATOM      7  C   UNL     1      37.703 -23.388 -15.712  0.00  0.00    +0.170 C 
ATOM      8  C   UNL     1      39.643 -24.553 -14.814  0.00  0.00    +0.175 C 
ATOM      9  C   UNL     1      38.841 -25.833 -14.831  0.00  0.00    +0.251 C 
ATOM     10  C   UNL     1      35.021 -23.169 -15.875  0.00  0.00    +0.137 C 
ATOM     11  C   UNL     1      35.836 -22.118 -16.206  0.00  0.00    +0.186 C 
ATOM     12  H   UNL     1      39.660 -22.936 -16.178  0.00  0.00    +0.149 HD
ENDROOT
BRANCH  10  14
ATOM     13  N   UNL     1      31.570 -22.810 -17.253  0.00  0.00    -0.407 NA
ATOM     14  C   UNL     1      33.586 -23.084 -15.946  0.00  0.00    +0.049 C 
ATOM     15  C   UNL     1      32.915 -22.895 -17.144  0.00  0.00    +0.111 C 
ATOM     16  C   UNL     1      32.827 -23.189 -14.786  0.00  0.00    -0.014 C 
ATOM     17  C   UNL     1      30.866 -22.917 -16.104  0.00  0.00    +0.146 C 
ATOM     18  C   UNL     1      31.441 -23.106 -14.857  0.00  0.00    +0.088 C 
ATOM     19  C   UNL     1      33.668 -22.773 -18.430  0.00  0.00    +0.066 C 
BRANCH  17  23
ATOM     20  N   UNL     1      28.764 -23.418 -17.281  0.00  0.00    -0.217 N 
ATOM     21  N   UNL     1      28.595 -22.175 -15.492  0.00  0.00    -0.204 NA
ATOM     22  N   UNL     1      27.448 -23.174 -17.200  0.00  0.00    -0.157 NA
ATOM     23  C   UNL     1      29.439 -22.820 -16.263  0.00  0.00    +0.175 C 
ATOM     24  C   UNL     1      27.397 -22.418 -16.102  0.00  0.00    +0.218 C 
ATOM     25  H   UNL     1      29.187 -23.960 -17.986  0.00  0.00    +0.176 HD
ENDBRANCH  17  23
ENDBRANCH  10  14
BRANCH   2  26
ATOM     26  C   UNL     1      36.578 -26.840 -14.844  0.00  0.00    +0.101 C 
ATOM     27  C   UNL     1      36.446 -27.625 -16.133  0.00  0.00    +0.024 C 
ENDBRANCH   2  26
TORSDOF 3
ENDMDL
MODEL 8
REMARK VINA RESULT:      -9.0      7.435     12.988
REMARK  Name = 58298318
REMARK  3 active torsions:
REMARK  status: ('A' for Active; 'I' for Inactive)
REMARK    1  A    between atoms: N_2  and  C_26
REMARK    2  A    between atoms: C_10  and  C_14
REMARK    3  A    between atoms: C_17  and  C_23
REMARK                            x       y       z     vdW  Elec       q    Type
REMARK                         _______ _______ _______ _____ _____    ______ ____
ROOT
ATOM      1  O   UNL     1      32.252 -14.964 -21.109  0.00  0.00    -0.273 OA
ATOM      2  N   UNL     1      32.292 -12.771 -21.876  0.00  0.00    -0.230 N 
ATOM      3  N   UNL     1      34.082 -13.601 -23.828  0.00  0.00    -0.308 N 
ATOM      4  N   UNL     1      32.398 -10.539 -22.772  0.00  0.00    -0.386 NA
ATOM      5  N   UNL     1      34.165 -11.420 -24.730  0.00  0.00    -0.245 NA
ATOM      6  C   UNL     1      32.813 -11.830 -22.811  0.00  0.00    +0.220 C 
ATOM      7  C   UNL     1      33.699 -12.273 -23.785  0.00  0.00    +0.170 C 
ATOM      8  C   UNL     1      33.979 -14.402 -22.637  0.00  0.00    +0.175 C 
ATOM      9  C   UNL     1      32.741 -14.090 -21.827  0.00  0.00    +0.251 C 
ATOM     10  C   UNL     1      32.883  -9.706 -23.708  0.00  0.00    +0.137 C 
ATOM     11  C   UNL     1      33.753 -10.141 -24.674  0.00  0.00    +0.186 C 
ATOM     12  H   UNL     1      34.421 -13.994 -24.665  0.00  0.00    +0.149 HD
ENDROOT
BRANCH  10  14
ATOM     13  N   UNL     1      32.922  -5.987 -23.371  0.00  0.00    -0.407 NA
ATOM     14  C   UNL     1      32.431  -8.340 -23.636  0.00  0.00    +0.049 C 
ATOM     15  C   UNL     1      33.305  -7.283 -23.444  0.00  0.00    +0.111 C 
ATOM     16  C   UNL     1      31.077  -8.051 -23.758  0.00  0.00    -0.014 C 
ATOM     17  C   UNL     1      31.598  -5.746 -23.494  0.00  0.00    +0.146 C 
ATOM     18  C   UNL     1      30.644  -6.731 -23.687  0.00  0.00    +0.088 C 
ATOM     19  C   UNL     1      34.775  -7.521 -23.305  0.00  0.00    +0.066 C 
BRANCH  17  23
ATOM     20  N   UNL     1      30.462  -3.852 -22.408  0.00  0.00    -0.217 N 
ATOM     21  N   UNL     1      31.563  -3.394 -24.239  0.00  0.00    -0.204 NA
ATOM     22  N   UNL     1      30.268  -2.533 -22.561  0.00  0.00    -0.157 NA
ATOM     23  C   UNL     1      31.232  -4.357 -23.409  0.00  0.00    +0.175 C 
ATOM     24  C   UNL     1      30.954  -2.306 -23.683  0.00  0.00    +0.218 C 
ATOM     25  H   UNL     1      30.094  -4.385 -21.666  0.00  0.00    +0.176 HD
ENDBRANCH  17  23
ENDBRANCH  10  14
BRANCH   2  26
ATOM     26  C   UNL     1      31.227 -12.317 -20.988  0.00  0.00    +0.101 C 
ATOM     27  C   UNL     1      31.786 -11.706 -19.720  0.00  0.00    +0.024 C 
ENDBRANCH   2  26
TORSDOF 3
ENDMDL
MODEL 9
REMARK VINA RESULT:      -9.0      7.409     10.458
REMARK  Name = 58298318
REMARK  3 active torsions:
REMARK  status: ('A' for Active; 'I' for Inactive)
REMARK    1  A    between atoms: N_2  and  C_26
REMARK    2  A    between atoms: C_10  and  C_14
REMARK    3  A    between atoms: C_17  and  C_23
REMARK                            x       y       z     vdW  Elec       q    Type
REMARK                         _______ _______ _______ _____ _____    ______ ____
ROOT
ATOM      1  O   UNL     1      38.139 -25.368 -11.327  0.00  0.00    -0.273 OA
ATOM      2  N   UNL     1      36.361 -24.658 -12.644  0.00  0.00    -0.230 N 
ATOM      3  N   UNL     1      38.191 -24.212 -14.683  0.00  0.00    -0.308 N 
ATOM      4  N   UNL     1      34.598 -23.922 -14.108  0.00  0.00    -0.386 NA
ATOM      5  N   UNL     1      36.461 -23.519 -16.133  0.00  0.00    -0.245 NA
ATOM      6  C   UNL     1      35.919 -24.147 -13.899  0.00  0.00    +0.220 C 
ATOM      7  C   UNL     1      36.854 -23.943 -14.906  0.00  0.00    +0.170 C 
ATOM      8  C   UNL     1      38.690 -24.225 -13.333  0.00  0.00    +0.175 C 
ATOM      9  C   UNL     1      37.713 -24.836 -12.354  0.00  0.00    +0.251 C 
ATOM     10  C   UNL     1      34.230 -23.488 -15.326  0.00  0.00    +0.137 C 
ATOM     11  C   UNL     1      35.149 -23.290 -16.324  0.00  0.00    +0.186 C 
ATOM     12  H   UNL     1      38.795 -24.393 -15.439  0.00  0.00    +0.149 HD
ENDROOT
BRANCH  10  14
ATOM     13  N   UNL     1      30.961 -22.785 -16.986  0.00  0.00    -0.407 NA
ATOM     14  C   UNL     1      32.823 -23.249 -15.515  0.00  0.00    +0.049 C 
ATOM     15  C   UNL     1      32.276 -23.014 -16.765  0.00  0.00    +0.111 C 
ATOM     16  C   UNL     1      31.967 -23.248 -14.419  0.00  0.00    -0.014 C 
ATOM     17  C   UNL     1      30.160 -22.792 -15.897  0.00  0.00    +0.146 C 
ATOM     18  C   UNL     1      30.608 -23.017 -14.605  0.00  0.00    +0.088 C 
ATOM     19  C   UNL     1      33.137 -23.000 -17.987  0.00  0.00    +0.066 C 
BRANCH  17  23
ATOM     20  N   UNL     1      28.194 -22.809 -17.377  0.00  0.00    -0.217 N 
ATOM     21  N   UNL     1      27.871 -22.051 -15.353  0.00  0.00    -0.204 NA
ATOM     22  N   UNL     1      26.891 -22.489 -17.373  0.00  0.00    -0.157 NA
ATOM     23  C   UNL     1      28.769 -22.545 -16.173  0.00  0.00    +0.175 C 
ATOM     24  C   UNL     1      26.746 -22.035 -16.127  0.00  0.00    +0.218 C 
ATOM     25  H   UNL     1      28.672 -23.186 -18.151  0.00  0.00    +0.176 HD
ENDBRANCH  17  23
ENDBRANCH  10  14
BRANCH   2  26
ATOM     26  C   UNL     1      35.339 -25.035 -11.674  0.00  0.00    +0.101 C 
ATOM     27  C   UNL     1      35.501 -24.276 -10.373  0.00  0.00    +0.024 C 
ENDBRANCH   2  26
TORSDOF 3
ENDMDL
