MODEL 1
REMARK VINA RESULT:      -5.0      0.000      0.000
REMARK  Name = 84815
REMARK  6 active torsions:
REMARK  status: ('A' for Active; 'I' for Inactive)
REMARK    1  A    between atoms: CA_1  and  N_2
REMARK    2  A    between atoms: CA_1  and  C_7
REMARK    3  A    between atoms: CA_1  and  CB_10
REMARK    4  A    between atoms: C_7  and  O_8
REMARK    5  A    between atoms: CB_10  and  CG_11
REMARK    6  A    between atoms: CG_11  and  SD_12
REMARK                            x       y       z     vdW  Elec       q    Type
REMARK                         _______ _______ _______ _____ _____    ______ ____
ROOT
ATOM      1  CA  MET A   1      38.705 -25.673 -14.471  0.00  0.00    +0.037 C 
ENDROOT
BRANCH   1   2
ATOM      2  N   MET A   1      37.857 -24.822 -15.311  0.00  0.00    +0.389 N 
ATOM      3  H1  MET A   1      37.615 -25.321 -16.167  0.00  0.00    -0.088 HD
ATOM      4  H2  MET A   1      38.360 -23.967 -15.547  0.00  0.00    -0.088 HD
ATOM      5  H3  MET A   1      37.004 -24.585 -14.804  0.00  0.00    -0.088 HD
ENDBRANCH   1   2
BRANCH   1   7
ATOM      6  OXT MET A   1      40.947 -24.751 -14.226  0.00  0.00    -0.253 OA
ATOM      7  C   MET A   1      40.139 -25.393 -14.884  0.00  0.00    +0.293 C 
BRANCH   7   8
ATOM      8  O   MET A   1      40.455 -25.965 -16.075  0.00  0.00    -0.482 OA
ATOM      9  H   MET A   1      40.324 -26.883 -16.203  0.00  0.00    +0.295 HD
ENDBRANCH   7   8
ENDBRANCH   1   7
BRANCH   1  10
ATOM     10  CB  MET A   1      38.473 -25.320 -12.996  0.00  0.00    +0.001 C 
BRANCH  10  11
ATOM     11  CG  MET A   1      37.172 -25.851 -12.387  0.00  0.00    +0.056 C 
BRANCH  11  12
ATOM     12  SD  MET A   1      35.954 -24.546 -12.050  0.00  0.00    -0.139 S 
ATOM     13  CE  MET A   1      37.106 -23.193 -11.724  0.00  0.00    +0.069 C 
ENDBRANCH  11  12
ENDBRANCH  10  11
ENDBRANCH   1  10
TORSDOF 6
ENDMDL
MODEL 2
REMARK VINA RESULT:      -4.9      2.295      2.547
REMARK  Name = 84815
REMARK  6 active torsions:
REMARK  status: ('A' for Active; 'I' for Inactive)
REMARK    1  A    between atoms: CA_1  and  N_2
REMARK    2  A    between atoms: CA_1  and  C_7
REMARK    3  A    between atoms: CA_1  and  CB_10
REMARK    4  A    between atoms: C_7  and  O_8
REMARK    5  A    between atoms: CB_10  and  CG_11
REMARK    6  A    between atoms: CG_11  and  SD_12
REMARK                            x       y       z     vdW  Elec       q    Type
REMARK                         _______ _______ _______ _____ _____    ______ ____
ROOT
ATOM      1  CA  MET A   1      38.922 -25.660 -14.111  0.00  0.00    +0.037 C 
ENDROOT
BRANCH   1   2
ATOM      2  N   MET A   1      38.071 -26.850 -14.211  0.00  0.00    +0.389 N 
ATOM      3  H1  MET A   1      37.132 -26.573 -14.496  0.00  0.00    -0.088 HD
ATOM      4  H2  MET A   1      38.028 -27.314 -13.304  0.00  0.00    -0.088 HD
ATOM      5  H3  MET A   1      38.461 -27.490 -14.903  0.00  0.00    -0.088 HD
ENDBRANCH   1   2
BRANCH   1   7
ATOM      6  OXT MET A   1      41.198 -26.531 -14.112  0.00  0.00    -0.253 OA
ATOM      7  C   MET A   1      40.260 -26.034 -14.722  0.00  0.00    +0.293 C 
BRANCH   7   8
ATOM      8  O   MET A   1      40.306 -25.783 -16.057  0.00  0.00    -0.482 OA
ATOM      9  H   MET A   1      39.522 -25.564 -16.520  0.00  0.00    +0.295 HD
ENDBRANCH   7   8
ENDBRANCH   1   7
BRANCH   1  10
ATOM     10  CB  MET A   1      38.266 -24.503 -14.878  0.00  0.00    +0.001 C 
BRANCH  10  11
ATOM     11  CG  MET A   1      36.748 -24.607 -15.057  0.00  0.00    +0.056 C 
BRANCH  11  12
ATOM     12  SD  MET A   1      35.976 -23.034 -15.539  0.00  0.00    -0.139 S 
ATOM     13  CE  MET A   1      37.432 -22.237 -16.253  0.00  0.00    +0.069 C 
ENDBRANCH  11  12
ENDBRANCH  10  11
ENDBRANCH   1  10
TORSDOF 6
ENDMDL
MODEL 3
REMARK VINA RESULT:      -4.7      9.610     10.173
REMARK  Name = 84815
REMARK  6 active torsions:
REMARK  status: ('A' for Active; 'I' for Inactive)
REMARK    1  A    between atoms: CA_1  and  N_2
REMARK    2  A    between atoms: CA_1  and  C_7
REMARK    3  A    between atoms: CA_1  and  CB_10
REMARK    4  A    between atoms: C_7  and  O_8
REMARK    5  A    between atoms: CB_10  and  CG_11
REMARK    6  A    between atoms: CG_11  and  SD_12
REMARK                            x       y       z     vdW  Elec       q    Type
REMARK                         _______ _______ _______ _____ _____    ______ ____
ROOT
ATOM      1  CA  MET A   1      28.964 -22.751 -16.071  0.00  0.00    +0.037 C 
ENDROOT
BRANCH   1   2
ATOM      2  N   MET A   1      30.197 -22.653 -16.858  0.00  0.00    +0.389 N 
ATOM      3  H1  MET A   1      30.965 -23.080 -16.342  0.00  0.00    -0.088 HD
ATOM      4  H2  MET A   1      30.411 -21.671 -17.034  0.00  0.00    -0.088 HD
ATOM      5  H3  MET A   1      30.073 -23.138 -17.747  0.00  0.00    -0.088 HD
ENDBRANCH   1   2
BRANCH   1   7
ATOM      6  OXT MET A   1      27.206 -21.544 -17.251  0.00  0.00    -0.253 OA
ATOM      7  C   MET A   1      27.814 -22.587 -17.049  0.00  0.00    +0.293 C 
BRANCH   7   8
ATOM      8  O   MET A   1      27.537 -23.737 -17.717  0.00  0.00    -0.482 OA
ATOM      9  H   MET A   1      27.358 -23.714 -18.636  0.00  0.00    +0.295 HD
ENDBRANCH   7   8
ENDBRANCH   1   7
BRANCH   1  10
ATOM     10  CB  MET A   1      28.914 -24.120 -15.379  0.00  0.00    +0.001 C 
BRANCH  10  11
ATOM     11  CG  MET A   1      30.218 -24.922 -15.407  0.00  0.00    +0.056 C 
BRANCH  11  12
ATOM     12  SD  MET A   1      31.091 -24.924 -13.813  0.00  0.00    -0.139 S 
ATOM     13  CE  MET A   1      32.430 -23.792 -14.248  0.00  0.00    +0.069 C 
ENDBRANCH  11  12
ENDBRANCH  10  11
ENDBRANCH   1  10
TORSDOF 6
ENDMDL
MODEL 4
REMARK VINA RESULT:      -4.7      3.891      4.783
REMARK  Name = 84815
REMARK  6 active torsions:
REMARK  status: ('A' for Active; 'I' for Inactive)
REMARK    1  A    between atoms: CA_1  and  N_2
REMARK    2  A    between atoms: CA_1  and  C_7
REMARK    3  A    between atoms: CA_1  and  CB_10
REMARK    4  A    between atoms: C_7  and  O_8
REMARK    5  A    between atoms: CB_10  and  CG_11
REMARK    6  A    between atoms: CG_11  and  SD_12
REMARK                            x       y       z     vdW  Elec       q    Type
REMARK                         _______ _______ _______ _____ _____    ______ ____
ROOT
ATOM      1  CA  MET A   1      36.689 -23.355 -11.879  0.00  0.00    +0.037 C 
ENDROOT
BRANCH   1   2
ATOM      2  N   MET A   1      36.012 -23.197 -13.170  0.00  0.00    +0.389 N 
ATOM      3  H1  MET A   1      36.661 -22.801 -13.849  0.00  0.00    -0.088 HD
ATOM      4  H2  MET A   1      35.212 -22.573 -13.061  0.00  0.00    -0.088 HD
ATOM      5  H3  MET A   1      35.690 -24.108 -13.499  0.00  0.00    -0.088 HD
ENDBRANCH   1   2
BRANCH   1   7
ATOM      6  OXT MET A   1      34.861 -24.906 -11.446  0.00  0.00    -0.253 OA
ATOM      7  C   MET A   1      35.790 -24.230 -11.025  0.00  0.00    +0.293 C 
BRANCH   7   8
ATOM      8  O   MET A   1      36.147 -24.213  -9.714  0.00  0.00    -0.482 OA
ATOM      9  H   MET A   1      35.501 -24.056  -9.054  0.00  0.00    +0.295 HD
ENDBRANCH   7   8
ENDBRANCH   1   7
BRANCH   1  10
ATOM     10  CB  MET A   1      38.057 -24.014 -12.103  0.00  0.00    +0.001 C 
BRANCH  10  11
ATOM     11  CG  MET A   1      38.018 -25.476 -12.559  0.00  0.00    +0.056 C 
BRANCH  11  12
ATOM     12  SD  MET A   1      38.520 -25.699 -14.291  0.00  0.00    -0.139 S 
ATOM     13  CE  MET A   1      36.978 -26.399 -14.921  0.00  0.00    +0.069 C 
ENDBRANCH  11  12
ENDBRANCH  10  11
ENDBRANCH   1  10
TORSDOF 6
ENDMDL
MODEL 5
REMARK VINA RESULT:      -4.4      3.902      4.830
REMARK  Name = 84815
REMARK  6 active torsions:
REMARK  status: ('A' for Active; 'I' for Inactive)
REMARK    1  A    between atoms: CA_1  and  N_2
REMARK    2  A    between atoms: CA_1  and  C_7
REMARK    3  A    between atoms: CA_1  and  CB_10
REMARK    4  A    between atoms: C_7  and  O_8
REMARK    5  A    between atoms: CB_10  and  CG_11
REMARK    6  A    between atoms: CG_11  and  SD_12
REMARK                            x       y       z     vdW  Elec       q    Type
REMARK                         _______ _______ _______ _____ _____    ______ ____
ROOT
ATOM      1  CA  MET A   1      36.804 -24.147 -12.110  0.00  0.00    +0.037 C 
ENDROOT
BRANCH   1   2
ATOM      2  N   MET A   1      37.234 -23.063 -11.221  0.00  0.00    +0.389 N 
ATOM      3  H1  MET A   1      37.509 -22.254 -11.778  0.00  0.00    -0.088 HD
ATOM      4  H2  MET A   1      38.027 -23.376 -10.662  0.00  0.00    -0.088 HD
ATOM      5  H3  MET A   1      36.464 -22.804 -10.603  0.00  0.00    -0.088 HD
ENDBRANCH   1   2
BRANCH   1   7
ATOM      6  OXT MET A   1      35.345 -25.035 -10.372  0.00  0.00    -0.253 OA
ATOM      7  C   MET A   1      35.508 -24.688 -11.535  0.00  0.00    +0.293 C 
BRANCH   7   8
ATOM      8  O   MET A   1      34.510 -24.724 -12.456  0.00  0.00    -0.482 OA
ATOM      9  H   MET A   1      33.664 -24.381 -12.244  0.00  0.00    +0.295 HD
ENDBRANCH   7   8
ENDBRANCH   1   7
BRANCH   1  10
ATOM     10  CB  MET A   1      36.593 -23.587 -13.524  0.00  0.00    +0.001 C 
BRANCH  10  11
ATOM     11  CG  MET A   1      37.586 -24.075 -14.583  0.00  0.00    +0.056 C 
BRANCH  11  12
ATOM     12  SD  MET A   1      38.223 -25.744 -14.250  0.00  0.00    -0.139 S 
ATOM     13  CE  MET A   1      39.939 -25.471 -14.745  0.00  0.00    +0.069 C 
ENDBRANCH  11  12
ENDBRANCH  10  11
ENDBRANCH   1  10
TORSDOF 6
ENDMDL
MODEL 6
REMARK VINA RESULT:      -4.4      9.212      9.575
REMARK  Name = 84815
REMARK  6 active torsions:
REMARK  status: ('A' for Active; 'I' for Inactive)
REMARK    1  A    between atoms: CA_1  and  N_2
REMARK    2  A    between atoms: CA_1  and  C_7
REMARK    3  A    between atoms: CA_1  and  CB_10
REMARK    4  A    between atoms: C_7  and  O_8
REMARK    5  A    between atoms: CB_10  and  CG_11
REMARK    6  A    between atoms: CG_11  and  SD_12
REMARK                            x       y       z     vdW  Elec       q    Type
REMARK                         _______ _______ _______ _____ _____    ______ ____
ROOT
ATOM      1  CA  MET A   1      35.145 -21.114 -20.170  0.00  0.00    +0.037 C 
ENDROOT
BRANCH   1   2
ATOM      2  N   MET A   1      36.273 -20.588 -19.393  0.00  0.00    +0.389 N 
ATOM      3  H1  MET A   1      37.119 -20.612 -19.962  0.00  0.00    -0.088 HD
ATOM      4  H2  MET A   1      36.408 -21.161 -18.560  0.00  0.00    -0.088 HD
ATOM      5  H3  MET A   1      36.077 -19.626 -19.116  0.00  0.00    -0.088 HD
ENDBRANCH   1   2
BRANCH   1   7
ATOM      6  OXT MET A   1      34.895 -22.664 -18.306  0.00  0.00    -0.253 OA
ATOM      7  C   MET A   1      34.400 -22.069 -19.254  0.00  0.00    +0.293 C 
BRANCH   7   8
ATOM      8  O   MET A   1      33.086 -22.179 -19.583  0.00  0.00    -0.482 OA
ATOM      9  H   MET A   1      32.699 -21.566 -20.175  0.00  0.00    +0.295 HD
ENDBRANCH   7   8
ENDBRANCH   1   7
BRANCH   1  10
ATOM     10  CB  MET A   1      34.246 -19.949 -20.606  0.00  0.00    +0.001 C 
BRANCH  10  11
ATOM     11  CG  MET A   1      34.452 -19.459 -22.043  0.00  0.00    +0.056 C 
BRANCH  11  12
ATOM     12  SD  MET A   1      35.723 -18.169 -22.185  0.00  0.00    -0.139 S 
ATOM     13  CE  MET A   1      34.984 -16.953 -21.071  0.00  0.00    +0.069 C 
ENDBRANCH  11  12
ENDBRANCH  10  11
ENDBRANCH   1  10
TORSDOF 6
ENDMDL
MODEL 7
REMARK VINA RESULT:      -4.4     11.177     11.466
REMARK  Name = 84815
REMARK  6 active torsions:
REMARK  status: ('A' for Active; 'I' for Inactive)
REMARK    1  A    between atoms: CA_1  and  N_2
REMARK    2  A    between atoms: CA_1  and  C_7
REMARK    3  A    between atoms: CA_1  and  CB_10
REMARK    4  A    between atoms: C_7  and  O_8
REMARK    5  A    between atoms: CB_10  and  CG_11
REMARK    6  A    between atoms: CG_11  and  SD_12
REMARK                            x       y       z     vdW  Elec       q    Type
REMARK                         _______ _______ _______ _____ _____    ______ ____
ROOT
ATOM      1  CA  MET A   1      35.551 -17.555 -22.322  0.00  0.00    +0.037 C 
ENDROOT
BRANCH   1   2
ATOM      2  N   MET A   1      35.587 -16.916 -23.642  0.00  0.00    +0.389 N 
ATOM      3  H1  MET A   1      34.736 -17.148 -24.155  0.00  0.00    -0.088 HD
ATOM      4  H2  MET A   1      36.398 -17.252 -24.161  0.00  0.00    -0.088 HD
ATOM      5  H3  MET A   1      35.650 -15.905 -23.529  0.00  0.00    -0.088 HD
ENDBRANCH   1   2
BRANCH   1   7
ATOM      6  OXT MET A   1      35.130 -16.341 -20.252  0.00  0.00    -0.253 OA
ATOM      7  C   MET A   1      34.807 -16.604 -21.403  0.00  0.00    +0.293 C 
BRANCH   7   8
ATOM      8  O   MET A   1      33.731 -16.036 -22.009  0.00  0.00    -0.482 OA
ATOM      9  H   MET A   1      33.845 -15.285 -22.557  0.00  0.00    +0.295 HD
ENDBRANCH   7   8
ENDBRANCH   1   7
BRANCH   1  10
ATOM     10  CB  MET A   1      34.825 -18.903 -22.433  0.00  0.00    +0.001 C 
BRANCH  10  11
ATOM     11  CG  MET A   1      34.789 -19.741 -21.151  0.00  0.00    +0.056 C 
BRANCH  11  12
ATOM     12  SD  MET A   1      33.101 -20.114 -20.589  0.00  0.00    -0.139 S 
ATOM     13  CE  MET A   1      33.490 -21.512 -19.512  0.00  0.00    +0.069 C 
ENDBRANCH  11  12
ENDBRANCH  10  11
ENDBRANCH   1  10
TORSDOF 6
ENDMDL
MODEL 8
REMARK VINA RESULT:      -4.4     13.952     14.318
REMARK  Name = 84815
REMARK  6 active torsions:
REMARK  status: ('A' for Active; 'I' for Inactive)
REMARK    1  A    between atoms: CA_1  and  N_2
REMARK    2  A    between atoms: CA_1  and  C_7
REMARK    3  A    between atoms: CA_1  and  CB_10
REMARK    4  A    between atoms: C_7  and  O_8
REMARK    5  A    between atoms: CB_10  and  CG_11
REMARK    6  A    between atoms: CG_11  and  SD_12
REMARK                            x       y       z     vdW  Elec       q    Type
REMARK                         _______ _______ _______ _____ _____    ______ ____
ROOT
ATOM      1  CA  MET A   1      33.795 -15.540 -24.158  0.00  0.00    +0.037 C 
ENDROOT
BRANCH   1   2
ATOM      2  N   MET A   1      33.742 -14.075 -24.144  0.00  0.00    +0.389 N 
ATOM      3  H1  MET A   1      32.926 -13.759 -24.668  0.00  0.00    -0.088 HD
ATOM      4  H2  MET A   1      34.588 -13.700 -24.574  0.00  0.00    -0.088 HD
ATOM      5  H3  MET A   1      33.676 -13.745 -23.181  0.00  0.00    -0.088 HD
ENDBRANCH   1   2
BRANCH   1   7
ATOM      6  OXT MET A   1      33.351 -15.420 -26.551  0.00  0.00    -0.253 OA
ATOM      7  C   MET A   1      33.929 -15.953 -25.613  0.00  0.00    +0.293 C 
BRANCH   7   8
ATOM      8  O   MET A   1      34.801 -16.982 -25.779  0.00  0.00    -0.482 OA
ATOM      9  H   MET A   1      35.719 -16.812 -25.846  0.00  0.00    +0.295 HD
ENDBRANCH   7   8
ENDBRANCH   1   7
BRANCH   1  10
ATOM     10  CB  MET A   1      35.002 -16.010 -23.334  0.00  0.00    +0.001 C 
BRANCH  10  11
ATOM     11  CG  MET A   1      34.706 -16.369 -21.875  0.00  0.00    +0.056 C 
BRANCH  11  12
ATOM     12  SD  MET A   1      35.374 -17.987 -21.386  0.00  0.00    -0.139 S 
ATOM     13  CE  MET A   1      34.740 -18.958 -22.772  0.00  0.00    +0.069 C 
ENDBRANCH  11  12
ENDBRANCH  10  11
ENDBRANCH   1  10
TORSDOF 6
ENDMDL
MODEL 9
REMARK VINA RESULT:      -4.4      2.016      2.267
REMARK  Name = 84815
REMARK  6 active torsions:
REMARK  status: ('A' for Active; 'I' for Inactive)
REMARK    1  A    between atoms: CA_1  and  N_2
REMARK    2  A    between atoms: CA_1  and  C_7
REMARK    3  A    between atoms: CA_1  and  CB_10
REMARK    4  A    between atoms: C_7  and  O_8
REMARK    5  A    between atoms: CB_10  and  CG_11
REMARK    6  A    between atoms: CG_11  and  SD_12
REMARK                            x       y       z     vdW  Elec       q    Type
REMARK                         _______ _______ _______ _____ _____    ______ ____
ROOT
ATOM      1  CA  MET A   1      36.733 -25.761 -14.336  0.00  0.00    +0.037 C 
ENDROOT
BRANCH   1   2
ATOM      2  N   MET A   1      36.190 -26.843 -15.164  0.00  0.00    +0.389 N 
ATOM      3  H1  MET A   1      36.534 -26.747 -16.119  0.00  0.00    -0.088 HD
ATOM      4  H2  MET A   1      35.171 -26.793 -15.163  0.00  0.00    -0.088 HD
ATOM      5  H3  MET A   1      36.486 -27.743 -14.785  0.00  0.00    -0.088 HD
ENDBRANCH   1   2
BRANCH   1   7
ATOM      6  OXT MET A   1      38.867 -26.067 -13.200  0.00  0.00    -0.253 OA
ATOM      7  C   MET A   1      38.229 -26.000 -14.242  0.00  0.00    +0.293 C 
BRANCH   7   8
ATOM      8  O   MET A   1      38.803 -26.166 -15.463  0.00  0.00    -0.482 OA
ATOM      9  H   MET A   1      39.471 -26.811 -15.583  0.00  0.00    +0.295 HD
ENDBRANCH   7   8
ENDBRANCH   1   7
BRANCH   1  10
ATOM     10  CB  MET A   1      36.427 -24.413 -15.003  0.00  0.00    +0.001 C 
BRANCH  10  11
ATOM     11  CG  MET A   1      35.777 -23.362 -14.098  0.00  0.00    +0.056 C 
BRANCH  11  12
ATOM     12  SD  MET A   1      35.665 -23.883 -12.361  0.00  0.00    -0.139 S 
ATOM     13  CE  MET A   1      37.137 -23.038 -11.740  0.00  0.00    +0.069 C 
ENDBRANCH  11  12
ENDBRANCH  10  11
ENDBRANCH   1  10
TORSDOF 6
ENDMDL
