MODEL 1
REMARK VINA RESULT:      -5.6      0.000      0.000
REMARK  Name = 5351154
REMARK  7 active torsions:
REMARK  status: ('A' for Active; 'I' for Inactive)
REMARK    1  A    between atoms: N_1  and  C_2
REMARK    2  A    between atoms: N_1  and  N_4
REMARK    3  A    between atoms: C_2  and  C_13
REMARK    4  A    between atoms: N_4  and  C_7
REMARK    5  A    between atoms: N_12  and  C_13
REMARK    6  A    between atoms: N_12  and  N_14
REMARK    7  A    between atoms: N_14  and  C_17
REMARK                            x       y       z     vdW  Elec       q    Type
REMARK                         _______ _______ _______ _____ _____    ______ ____
ROOT
ATOM      1  C   UNL     1      38.184 -25.309 -14.462  0.00  0.00    +0.118 C 
ATOM      2  C   UNL     1      39.665 -25.356 -14.701  0.00  0.00    +0.023 C 
ENDROOT
BRANCH   1   3
ATOM      3  N   UNL     1      37.332 -24.539 -15.060  0.00  0.00    -0.097 NA
BRANCH   3   4
ATOM      4  N   UNL     1      37.691 -23.196 -15.016  0.00  0.00    -0.145 NA
BRANCH   4   7
ATOM      5  N   UNL     1      37.402 -21.317 -16.476  0.00  0.00    -0.369 N 
ATOM      6  N   UNL     1      35.699 -22.811 -16.171  0.00  0.00    -0.369 N 
ATOM      7  C   UNL     1      36.989 -22.467 -15.844  0.00  0.00    +0.207 C 
ATOM      8  H   UNL     1      38.309 -20.968 -16.321  0.00  0.00    +0.159 HD
ATOM      9  H   UNL     1      36.789 -20.842 -17.085  0.00  0.00    +0.159 HD
ATOM     10  H   UNL     1      35.290 -23.617 -15.781  0.00  0.00    +0.159 HD
ATOM     11  H   UNL     1      35.184 -22.251 -16.797  0.00  0.00    +0.159 HD
ENDBRANCH   4   7
ENDBRANCH   3   4
ENDBRANCH   1   3
BRANCH   1  12
ATOM     12  C   UNL     1      37.652 -26.222 -13.404  0.00  0.00    +0.136 C 
BRANCH  12  13
ATOM     13  N   UNL     1      37.697 -25.847 -12.174  0.00  0.00    -0.096 NA
BRANCH  13  14
ATOM     14  N   UNL     1      36.429 -25.480 -11.735  0.00  0.00    -0.145 NA
BRANCH  14  17
ATOM     15  N   UNL     1      36.883 -23.445 -10.686  0.00  0.00    -0.369 N 
ATOM     16  N   UNL     1      35.543 -23.403 -12.537  0.00  0.00    -0.369 N 
ATOM     17  C   UNL     1      36.279 -24.184 -11.675  0.00  0.00    +0.207 C 
ATOM     18  H   UNL     1      37.438 -23.892 -10.007  0.00  0.00    +0.159 HD
ATOM     19  H   UNL     1      36.760 -22.469 -10.656  0.00  0.00    +0.159 HD
ATOM     20  H   UNL     1      35.063 -23.818 -13.290  0.00  0.00    +0.159 HD
ATOM     21  H   UNL     1      35.498 -22.429 -12.401  0.00  0.00    +0.159 HD
ENDBRANCH  14  17
ENDBRANCH  13  14
ENDBRANCH  12  13
ENDBRANCH   1  12
TORSDOF 7
ENDMDL
MODEL 2
REMARK VINA RESULT:      -5.6      0.803      3.904
REMARK  Name = 5351154
REMARK  7 active torsions:
REMARK  status: ('A' for Active; 'I' for Inactive)
REMARK    1  A    between atoms: N_1  and  C_2
REMARK    2  A    between atoms: N_1  and  N_4
REMARK    3  A    between atoms: C_2  and  C_13
REMARK    4  A    between atoms: N_4  and  C_7
REMARK    5  A    between atoms: N_12  and  C_13
REMARK    6  A    between atoms: N_12  and  N_14
REMARK    7  A    between atoms: N_14  and  C_17
REMARK                            x       y       z     vdW  Elec       q    Type
REMARK                         _______ _______ _______ _____ _____    ______ ____
ROOT
ATOM      1  C   UNL     1      37.891 -25.985 -13.191  0.00  0.00    +0.118 C 
ATOM      2  C   UNL     1      37.139 -26.846 -14.164  0.00  0.00    +0.023 C 
ENDROOT
BRANCH   1   3
ATOM      3  N   UNL     1      37.640 -25.853 -11.927  0.00  0.00    -0.097 NA
BRANCH   3   4
ATOM      4  N   UNL     1      36.326 -25.479 -11.670  0.00  0.00    -0.145 NA
BRANCH   4   7
ATOM      5  N   UNL     1      37.056 -23.254 -11.159  0.00  0.00    -0.369 N 
ATOM      6  N   UNL     1      35.044 -23.598 -12.187  0.00  0.00    -0.369 N 
ATOM      7  C   UNL     1      36.172 -24.181 -11.662  0.00  0.00    +0.207 C 
ATOM      8  H   UNL     1      37.903 -23.549 -10.755  0.00  0.00    +0.159 HD
ATOM      9  H   UNL     1      36.841 -22.293 -11.203  0.00  0.00    +0.159 HD
ATOM     10  H   UNL     1      34.336 -24.160 -12.578  0.00  0.00    +0.159 HD
ATOM     11  H   UNL     1      34.944 -22.619 -12.173  0.00  0.00    +0.159 HD
ENDBRANCH   4   7
ENDBRANCH   3   4
ENDBRANCH   1   3
BRANCH   1  12
ATOM     12  C   UNL     1      39.017 -25.176 -13.751  0.00  0.00    +0.136 C 
BRANCH  12  13
ATOM     13  N   UNL     1      38.797 -24.417 -14.767  0.00  0.00    -0.096 NA
BRANCH  13  14
ATOM     14  N   UNL     1      37.993 -23.343 -14.402  0.00  0.00    -0.145 NA
BRANCH  14  17
ATOM     15  N   UNL     1      36.007 -23.656 -15.588  0.00  0.00    -0.369 N 
ATOM     16  N   UNL     1      37.364 -21.936 -16.238  0.00  0.00    -0.369 N 
ATOM     17  C   UNL     1      37.183 -22.981 -15.361  0.00  0.00    +0.207 C 
ATOM     18  H   UNL     1      35.765 -24.425 -15.024  0.00  0.00    +0.159 HD
ATOM     19  H   UNL     1      35.408 -23.370 -16.314  0.00  0.00    +0.159 HD
ATOM     20  H   UNL     1      38.172 -21.375 -16.176  0.00  0.00    +0.159 HD
ATOM     21  H   UNL     1      36.686 -21.748 -16.927  0.00  0.00    +0.159 HD
ENDBRANCH  14  17
ENDBRANCH  13  14
ENDBRANCH  12  13
ENDBRANCH   1  12
TORSDOF 7
ENDMDL
MODEL 3
REMARK VINA RESULT:      -5.6      3.376      5.123
REMARK  Name = 5351154
REMARK  7 active torsions:
REMARK  status: ('A' for Active; 'I' for Inactive)
REMARK    1  A    between atoms: N_1  and  C_2
REMARK    2  A    between atoms: N_1  and  N_4
REMARK    3  A    between atoms: C_2  and  C_13
REMARK    4  A    between atoms: N_4  and  C_7
REMARK    5  A    between atoms: N_12  and  C_13
REMARK    6  A    between atoms: N_12  and  N_14
REMARK    7  A    between atoms: N_14  and  C_17
REMARK                            x       y       z     vdW  Elec       q    Type
REMARK                         _______ _______ _______ _____ _____    ______ ____
ROOT
ATOM      1  C   UNL     1      33.653 -23.223 -16.837  0.00  0.00    +0.118 C 
ATOM      2  C   UNL     1      32.237 -23.369 -16.363  0.00  0.00    +0.023 C 
ENDROOT
BRANCH   1   3
ATOM      3  N   UNL     1      34.044 -23.097 -18.065  0.00  0.00    -0.097 NA
BRANCH   3   4
ATOM      4  N   UNL     1      33.079 -22.527 -18.887  0.00  0.00    -0.145 NA
BRANCH   4   7
ATOM      5  N   UNL     1      32.741 -20.448 -20.031  0.00  0.00    -0.369 N 
ATOM      6  N   UNL     1      34.857 -21.218 -19.642  0.00  0.00    -0.369 N 
ATOM      7  C   UNL     1      33.512 -21.451 -19.489  0.00  0.00    +0.207 C 
ATOM      8  H   UNL     1      31.759 -20.501 -19.984  0.00  0.00    +0.159 HD
ATOM      9  H   UNL     1      33.171 -19.675 -20.465  0.00  0.00    +0.159 HD
ATOM     10  H   UNL     1      35.512 -21.866 -19.294  0.00  0.00    +0.159 HD
ATOM     11  H   UNL     1      35.167 -20.401 -20.097  0.00  0.00    +0.159 HD
ENDBRANCH   4   7
ENDBRANCH   3   4
ENDBRANCH   1   3
BRANCH   1  12
ATOM     12  C   UNL     1      34.714 -23.261 -15.784  0.00  0.00    +0.136 C 
BRANCH  12  13
ATOM     13  N   UNL     1      35.756 -23.993 -15.972  0.00  0.00    -0.096 NA
BRANCH  13  14
ATOM     14  N   UNL     1      35.562 -25.257 -15.425  0.00  0.00    -0.145 NA
BRANCH  14  17
ATOM     15  N   UNL     1      37.890 -25.224 -15.257  0.00  0.00    -0.369 N 
ATOM     16  N   UNL     1      36.773 -26.851 -14.106  0.00  0.00    -0.369 N 
ATOM     17  C   UNL     1      36.666 -25.765 -14.945  0.00  0.00    +0.207 C 
ATOM     18  H   UNL     1      37.945 -24.441 -15.852  0.00  0.00    +0.159 HD
ATOM     19  H   UNL     1      38.712 -25.619 -14.887  0.00  0.00    +0.159 HD
ATOM     20  H   UNL     1      35.962 -27.326 -13.810  0.00  0.00    +0.159 HD
ATOM     21  H   UNL     1      37.659 -27.152 -13.801  0.00  0.00    +0.159 HD
ENDBRANCH  14  17
ENDBRANCH  13  14
ENDBRANCH  12  13
ENDBRANCH   1  12
TORSDOF 7
ENDMDL
MODEL 4
REMARK VINA RESULT:      -5.5      2.342      4.123
REMARK  Name = 5351154
REMARK  7 active torsions:
REMARK  status: ('A' for Active; 'I' for Inactive)
REMARK    1  A    between atoms: N_1  and  C_2
REMARK    2  A    between atoms: N_1  and  N_4
REMARK    3  A    between atoms: C_2  and  C_13
REMARK    4  A    between atoms: N_4  and  C_7
REMARK    5  A    between atoms: N_12  and  C_13
REMARK    6  A    between atoms: N_12  and  N_14
REMARK    7  A    between atoms: N_14  and  C_17
REMARK                            x       y       z     vdW  Elec       q    Type
REMARK                         _______ _______ _______ _____ _____    ______ ____
ROOT
ATOM      1  C   UNL     1      36.477 -22.759 -16.169  0.00  0.00    +0.118 C 
ATOM      2  C   UNL     1      37.251 -21.594 -16.715  0.00  0.00    +0.023 C 
ENDROOT
BRANCH   1   3
ATOM      3  N   UNL     1      35.329 -23.185 -16.590  0.00  0.00    -0.097 NA
BRANCH   3   4
ATOM      4  N   UNL     1      35.000 -22.702 -17.852  0.00  0.00    -0.145 NA
BRANCH   4   7
ATOM      5  N   UNL     1      33.067 -22.309 -19.213  0.00  0.00    -0.369 N 
ATOM      6  N   UNL     1      32.848 -23.279 -17.156  0.00  0.00    -0.369 N 
ATOM      7  C   UNL     1      33.715 -22.751 -18.082  0.00  0.00    +0.207 C 
ATOM      8  H   UNL     1      33.581 -21.909 -19.951  0.00  0.00    +0.159 HD
ATOM      9  H   UNL     1      32.088 -22.394 -19.286  0.00  0.00    +0.159 HD
ATOM     10  H   UNL     1      33.193 -23.630 -16.302  0.00  0.00    +0.159 HD
ATOM     11  H   UNL     1      31.882 -23.310 -17.346  0.00  0.00    +0.159 HD
ENDBRANCH   4   7
ENDBRANCH   3   4
ENDBRANCH   1   3
BRANCH   1  12
ATOM     12  C   UNL     1      37.083 -23.472 -15.003  0.00  0.00    +0.136 C 
BRANCH  12  13
ATOM     13  N   UNL     1      38.311 -23.853 -15.072  0.00  0.00    -0.096 NA
BRANCH  13  14
ATOM     14  N   UNL     1      38.686 -24.487 -13.892  0.00  0.00    -0.145 NA
BRANCH  14  17
ATOM     15  N   UNL     1      38.151 -26.734 -14.230  0.00  0.00    -0.369 N 
ATOM     16  N   UNL     1      40.365 -26.172 -14.189  0.00  0.00    -0.369 N 
ATOM     17  C   UNL     1      39.069 -25.721 -14.091  0.00  0.00    +0.207 C 
ATOM     18  H   UNL     1      37.187 -26.536 -14.179  0.00  0.00    +0.159 HD
ATOM     19  H   UNL     1      38.456 -27.657 -14.379  0.00  0.00    +0.159 HD
ATOM     20  H   UNL     1      41.115 -25.538 -14.106  0.00  0.00    +0.159 HD
ATOM     21  H   UNL     1      40.543 -27.128 -14.341  0.00  0.00    +0.159 HD
ENDBRANCH  14  17
ENDBRANCH  13  14
ENDBRANCH  12  13
ENDBRANCH   1  12
TORSDOF 7
ENDMDL
MODEL 5
REMARK VINA RESULT:      -5.5     11.882     13.758
REMARK  Name = 5351154
REMARK  7 active torsions:
REMARK  status: ('A' for Active; 'I' for Inactive)
REMARK    1  A    between atoms: N_1  and  C_2
REMARK    2  A    between atoms: N_1  and  N_4
REMARK    3  A    between atoms: C_2  and  C_13
REMARK    4  A    between atoms: N_4  and  C_7
REMARK    5  A    between atoms: N_12  and  C_13
REMARK    6  A    between atoms: N_12  and  N_14
REMARK    7  A    between atoms: N_14  and  C_17
REMARK                            x       y       z     vdW  Elec       q    Type
REMARK                         _______ _______ _______ _____ _____    ______ ____
ROOT
ATOM      1  C   UNL     1      34.730 -17.241 -24.863  0.00  0.00    +0.118 C 
ATOM      2  C   UNL     1      34.269 -18.668 -24.918  0.00  0.00    +0.023 C 
ENDROOT
BRANCH   1   3
ATOM      3  N   UNL     1      34.727 -16.393 -25.842  0.00  0.00    -0.097 NA
BRANCH   3   4
ATOM      4  N   UNL     1      33.445 -16.036 -26.247  0.00  0.00    -0.145 NA
BRANCH   4   7
ATOM      5  N   UNL     1      32.850 -14.098 -24.967  0.00  0.00    -0.369 N 
ATOM      6  N   UNL     1      33.351 -13.902 -27.187  0.00  0.00    -0.369 N 
ATOM      7  C   UNL     1      33.223 -14.754 -26.118  0.00  0.00    +0.207 C 
ATOM      8  H   UNL     1      32.726 -14.603 -24.130  0.00  0.00    +0.159 HD
ATOM      9  H   UNL     1      32.708 -13.124 -24.979  0.00  0.00    +0.159 HD
ATOM     10  H   UNL     1      33.614 -14.253 -28.069  0.00  0.00    +0.159 HD
ATOM     11  H   UNL     1      33.181 -12.938 -27.073  0.00  0.00    +0.159 HD
ENDBRANCH   4   7
ENDBRANCH   3   4
ENDBRANCH   1   3
BRANCH   1  12
ATOM     12  C   UNL     1      35.275 -16.768 -23.554  0.00  0.00    +0.136 C 
BRANCH  12  13
ATOM     13  N   UNL     1      34.980 -15.585 -23.144  0.00  0.00    -0.096 NA
BRANCH  13  14
ATOM     14  N   UNL     1      33.712 -15.574 -22.573  0.00  0.00    -0.145 NA
BRANCH  14  17
ATOM     15  N   UNL     1      32.800 -14.000 -21.110  0.00  0.00    -0.369 N 
ATOM     16  N   UNL     1      34.531 -15.277 -20.339  0.00  0.00    -0.369 N 
ATOM     17  C   UNL     1      33.700 -14.997 -21.400  0.00  0.00    +0.207 C 
ATOM     18  H   UNL     1      32.150 -13.710 -21.791  0.00  0.00    +0.159 HD
ATOM     19  H   UNL     1      32.804 -13.576 -20.222  0.00  0.00    +0.159 HD
ATOM     20  H   UNL     1      35.221 -15.975 -20.425  0.00  0.00    +0.159 HD
ATOM     21  H   UNL     1      34.436 -14.780 -19.495  0.00  0.00    +0.159 HD
ENDBRANCH  14  17
ENDBRANCH  13  14
ENDBRANCH  12  13
ENDBRANCH   1  12
TORSDOF 7
ENDMDL
MODEL 6
REMARK VINA RESULT:      -5.5      2.091      3.656
REMARK  Name = 5351154
REMARK  7 active torsions:
REMARK  status: ('A' for Active; 'I' for Inactive)
REMARK    1  A    between atoms: N_1  and  C_2
REMARK    2  A    between atoms: N_1  and  N_4
REMARK    3  A    between atoms: C_2  and  C_13
REMARK    4  A    between atoms: N_4  and  C_7
REMARK    5  A    between atoms: N_12  and  C_13
REMARK    6  A    between atoms: N_12  and  N_14
REMARK    7  A    between atoms: N_14  and  C_17
REMARK                            x       y       z     vdW  Elec       q    Type
REMARK                         _______ _______ _______ _____ _____    ______ ____
ROOT
ATOM      1  C   UNL     1      34.401 -24.090 -15.218  0.00  0.00    +0.118 C 
ATOM      2  C   UNL     1      33.490 -23.365 -16.165  0.00  0.00    +0.023 C 
ENDROOT
BRANCH   1   3
ATOM      3  N   UNL     1      35.657 -24.348 -15.404  0.00  0.00    -0.097 NA
BRANCH   3   4
ATOM      4  N   UNL     1      35.918 -25.707 -15.531  0.00  0.00    -0.145 NA
BRANCH   4   7
ATOM      5  N   UNL     1      38.287 -25.779 -15.168  0.00  0.00    -0.369 N 
ATOM      6  N   UNL     1      36.867 -26.833 -13.720  0.00  0.00    -0.369 N 
ATOM      7  C   UNL     1      36.978 -26.074 -14.860  0.00  0.00    +0.207 C 
ATOM      8  H   UNL     1      38.496 -25.240 -15.965  0.00  0.00    +0.159 HD
ATOM      9  H   UNL     1      39.015 -26.107 -14.591  0.00  0.00    +0.159 HD
ATOM     10  H   UNL     1      35.979 -27.108 -13.396  0.00  0.00    +0.159 HD
ATOM     11  H   UNL     1      37.676 -27.100 -13.225  0.00  0.00    +0.159 HD
ENDBRANCH   4   7
ENDBRANCH   3   4
ENDBRANCH   1   3
BRANCH   1  12
ATOM     12  C   UNL     1      33.783 -24.589 -13.952  0.00  0.00    +0.136 C 
BRANCH  12  13
ATOM     13  N   UNL     1      34.029 -23.972 -12.849  0.00  0.00    -0.096 NA
BRANCH  13  14
ATOM     14  N   UNL     1      34.947 -24.688 -12.089  0.00  0.00    -0.145 NA
BRANCH  14  17
ATOM     15  N   UNL     1      36.359 -23.850 -10.431  0.00  0.00    -0.369 N 
ATOM     16  N   UNL     1      36.799 -23.251 -12.591  0.00  0.00    -0.369 N 
ATOM     17  C   UNL     1      35.980 -23.965 -11.746  0.00  0.00    +0.207 C 
ATOM     18  H   UNL     1      35.850 -24.316  -9.729  0.00  0.00    +0.159 HD
ATOM     19  H   UNL     1      37.140 -23.301 -10.189  0.00  0.00    +0.159 HD
ATOM     20  H   UNL     1      36.628 -23.255 -13.562  0.00  0.00    +0.159 HD
ATOM     21  H   UNL     1      37.555 -22.737 -12.226  0.00  0.00    +0.159 HD
ENDBRANCH  14  17
ENDBRANCH  13  14
ENDBRANCH  12  13
ENDBRANCH   1  12
TORSDOF 7
ENDMDL
MODEL 7
REMARK VINA RESULT:      -5.4     11.321     14.144
REMARK  Name = 5351154
REMARK  7 active torsions:
REMARK  status: ('A' for Active; 'I' for Inactive)
REMARK    1  A    between atoms: N_1  and  C_2
REMARK    2  A    between atoms: N_1  and  N_4
REMARK    3  A    between atoms: C_2  and  C_13
REMARK    4  A    between atoms: N_4  and  C_7
REMARK    5  A    between atoms: N_12  and  C_13
REMARK    6  A    between atoms: N_12  and  N_14
REMARK    7  A    between atoms: N_14  and  C_17
REMARK                            x       y       z     vdW  Elec       q    Type
REMARK                         _______ _______ _______ _____ _____    ______ ____
ROOT
ATOM      1  C   UNL     1      34.993 -17.027 -23.612  0.00  0.00    +0.118 C 
ATOM      2  C   UNL     1      35.591 -18.202 -22.893  0.00  0.00    +0.023 C 
ENDROOT
BRANCH   1   3
ATOM      3  N   UNL     1      34.870 -15.824 -23.149  0.00  0.00    -0.097 NA
BRANCH   3   4
ATOM      4  N   UNL     1      33.620 -15.583 -22.589  0.00  0.00    -0.145 NA
BRANCH   4   7
ATOM      5  N   UNL     1      34.582 -15.379 -20.403  0.00  0.00    -0.369 N 
ATOM      6  N   UNL     1      32.869 -14.007 -21.040  0.00  0.00    -0.369 N 
ATOM      7  C   UNL     1      33.704 -15.035 -21.405  0.00  0.00    +0.207 C 
ATOM      8  H   UNL     1      35.233 -16.104 -20.545  0.00  0.00    +0.159 HD
ATOM      9  H   UNL     1      34.561 -14.898 -19.543  0.00  0.00    +0.159 HD
ATOM     10  H   UNL     1      32.194 -13.671 -21.674  0.00  0.00    +0.159 HD
ATOM     11  H   UNL     1      32.946 -13.605 -20.144  0.00  0.00    +0.159 HD
ENDBRANCH   4   7
ENDBRANCH   3   4
ENDBRANCH   1   3
BRANCH   1  12
ATOM     12  C   UNL     1      34.459 -17.288 -24.983  0.00  0.00    +0.136 C 
BRANCH  12  13
ATOM     13  N   UNL     1      34.597 -16.386 -25.891  0.00  0.00    -0.096 NA
BRANCH  13  14
ATOM     14  N   UNL     1      33.352 -15.946 -26.327  0.00  0.00    -0.145 NA
BRANCH  14  17
ATOM     15  N   UNL     1      32.867 -14.077 -25.015  0.00  0.00    -0.369 N 
ATOM     16  N   UNL     1      33.388 -13.717 -27.210  0.00  0.00    -0.369 N 
ATOM     17  C   UNL     1      33.215 -14.651 -26.214  0.00  0.00    +0.207 C 
ATOM     18  H   UNL     1      32.715 -14.644 -24.224  0.00  0.00    +0.159 HD
ATOM     19  H   UNL     1      32.768 -13.100 -24.947  0.00  0.00    +0.159 HD
ATOM     20  H   UNL     1      33.640 -14.006 -28.118  0.00  0.00    +0.159 HD
ATOM     21  H   UNL     1      33.260 -12.761 -27.016  0.00  0.00    +0.159 HD
ENDBRANCH  14  17
ENDBRANCH  13  14
ENDBRANCH  12  13
ENDBRANCH   1  12
TORSDOF 7
ENDMDL
MODEL 8
REMARK VINA RESULT:      -5.4      9.945     13.534
REMARK  Name = 5351154
REMARK  7 active torsions:
REMARK  status: ('A' for Active; 'I' for Inactive)
REMARK    1  A    between atoms: N_1  and  C_2
REMARK    2  A    between atoms: N_1  and  N_4
REMARK    3  A    between atoms: C_2  and  C_13
REMARK    4  A    between atoms: N_4  and  C_7
REMARK    5  A    between atoms: N_12  and  C_13
REMARK    6  A    between atoms: N_12  and  N_14
REMARK    7  A    between atoms: N_14  and  C_17
REMARK                            x       y       z     vdW  Elec       q    Type
REMARK                         _______ _______ _______ _____ _____    ______ ____
ROOT
ATOM      1  C   UNL     1      35.060 -17.387 -23.651  0.00  0.00    +0.118 C 
ATOM      2  C   UNL     1      34.965 -16.057 -22.961  0.00  0.00    +0.023 C 
ENDROOT
BRANCH   1   3
ATOM      3  N   UNL     1      35.583 -18.469 -23.168  0.00  0.00    -0.097 NA
BRANCH   3   4
ATOM      4  N   UNL     1      34.631 -19.387 -22.741  0.00  0.00    -0.145 NA
BRANCH   4   7
ATOM      5  N   UNL     1      33.512 -19.890 -20.681  0.00  0.00    -0.369 N 
ATOM      6  N   UNL     1      35.688 -19.191 -20.669  0.00  0.00    -0.369 N 
ATOM      7  C   UNL     1      34.590 -19.491 -21.438  0.00  0.00    +0.207 C 
ATOM      8  H   UNL     1      32.664 -20.131 -21.119  0.00  0.00    +0.159 HD
ATOM      9  H   UNL     1      33.589 -19.934 -19.700  0.00  0.00    +0.159 HD
ATOM     10  H   UNL     1      36.523 -18.893 -21.098  0.00  0.00    +0.159 HD
ATOM     11  H   UNL     1      35.641 -19.276 -19.689  0.00  0.00    +0.159 HD
ENDBRANCH   4   7
ENDBRANCH   3   4
ENDBRANCH   1   3
BRANCH   1  12
ATOM     12  C   UNL     1      34.528 -17.451 -25.047  0.00  0.00    +0.136 C 
BRANCH  12  13
ATOM     13  N   UNL     1      34.630 -16.416 -25.804  0.00  0.00    -0.096 NA
BRANCH  13  14
ATOM     14  N   UNL     1      33.377 -16.029 -26.265  0.00  0.00    -0.145 NA
BRANCH  14  17
ATOM     15  N   UNL     1      32.805 -14.156 -24.995  0.00  0.00    -0.369 N 
ATOM     16  N   UNL     1      33.345 -13.818 -27.189  0.00  0.00    -0.369 N 
ATOM     17  C   UNL     1      33.192 -14.739 -26.178  0.00  0.00    +0.207 C 
ATOM     18  H   UNL     1      32.662 -14.713 -24.196  0.00  0.00    +0.159 HD
ATOM     19  H   UNL     1      32.670 -13.182 -24.947  0.00  0.00    +0.159 HD
ATOM     20  H   UNL     1      33.621 -14.114 -28.088  0.00  0.00    +0.159 HD
ATOM     21  H   UNL     1      33.180 -12.863 -27.015  0.00  0.00    +0.159 HD
ENDBRANCH  14  17
ENDBRANCH  13  14
ENDBRANCH  12  13
ENDBRANCH   1  12
TORSDOF 7
ENDMDL
MODEL 9
REMARK VINA RESULT:      -5.4      9.274     12.931
REMARK  Name = 5351154
REMARK  7 active torsions:
REMARK  status: ('A' for Active; 'I' for Inactive)
REMARK    1  A    between atoms: N_1  and  C_2
REMARK    2  A    between atoms: N_1  and  N_4
REMARK    3  A    between atoms: C_2  and  C_13
REMARK    4  A    between atoms: N_4  and  C_7
REMARK    5  A    between atoms: N_12  and  C_13
REMARK    6  A    between atoms: N_12  and  N_14
REMARK    7  A    between atoms: N_14  and  C_17
REMARK                            x       y       z     vdW  Elec       q    Type
REMARK                         _______ _______ _______ _____ _____    ______ ____
ROOT
ATOM      1  C   UNL     1      34.183 -15.502 -20.949  0.00  0.00    +0.118 C 
ATOM      2  C   UNL     1      32.792 -15.253 -20.446  0.00  0.00    +0.023 C 
ENDROOT
BRANCH   1   3
ATOM      3  N   UNL     1      35.030 -16.361 -20.478  0.00  0.00    -0.097 NA
BRANCH   3   4
ATOM      4  N   UNL     1      34.748 -17.667 -20.862  0.00  0.00    -0.145 NA
BRANCH   4   7
ATOM      5  N   UNL     1      36.563 -19.219 -20.644  0.00  0.00    -0.369 N 
ATOM      6  N   UNL     1      36.272 -18.053 -22.587  0.00  0.00    -0.369 N 
ATOM      7  C   UNL     1      35.803 -18.290 -21.318  0.00  0.00    +0.207 C 
ATOM      8  H   UNL     1      36.326 -19.473 -19.722  0.00  0.00    +0.159 HD
ATOM      9  H   UNL     1      37.342 -19.630 -21.083  0.00  0.00    +0.159 HD
ATOM     10  H   UNL     1      35.811 -17.406 -23.170  0.00  0.00    +0.159 HD
ATOM     11  H   UNL     1      37.067 -18.531 -22.916  0.00  0.00    +0.159 HD
ENDBRANCH   4   7
ENDBRANCH   3   4
ENDBRANCH   1   3
BRANCH   1  12
ATOM     12  C   UNL     1      34.642 -14.646 -22.086  0.00  0.00    +0.136 C 
BRANCH  12  13
ATOM     13  N   UNL     1      34.796 -15.179 -23.248  0.00  0.00    -0.096 NA
BRANCH  13  14
ATOM     14  N   UNL     1      33.739 -14.833 -24.082  0.00  0.00    -0.145 NA
BRANCH  14  17
ATOM     15  N   UNL     1      34.485 -16.676 -25.303  0.00  0.00    -0.369 N 
ATOM     16  N   UNL     1      32.964 -15.295 -26.302  0.00  0.00    -0.369 N 
ATOM     17  C   UNL     1      33.715 -15.546 -25.177  0.00  0.00    +0.207 C 
ATOM     18  H   UNL     1      35.068 -16.961 -24.561  0.00  0.00    +0.159 HD
ATOM     19  H   UNL     1      34.455 -17.202 -26.134  0.00  0.00    +0.159 HD
ATOM     20  H   UNL     1      32.369 -14.511 -26.334  0.00  0.00    +0.159 HD
ATOM     21  H   UNL     1      33.021 -15.901 -27.076  0.00  0.00    +0.159 HD
ENDBRANCH  14  17
ENDBRANCH  13  14
ENDBRANCH  12  13
ENDBRANCH   1  12
TORSDOF 7
ENDMDL
