MODEL 1
REMARK VINA RESULT:      -8.8      0.000      0.000
REMARK  Name = 49836093
REMARK  3 active torsions:
REMARK  status: ('A' for Active; 'I' for Inactive)
REMARK    1  A    between atoms: N_5  and  C_22
REMARK    2  A    between atoms: C_22  and  C_24
REMARK    3  A    between atoms: C_26  and  C_31
REMARK                            x       y       z     vdW  Elec       q    Type
REMARK                         _______ _______ _______ _____ _____    ______ ____
ROOT
ATOM      1  O   UNL     1      37.195 -22.066 -14.905  0.00  0.00    -0.474 OA
ATOM      2  O   UNL     1      36.276 -22.576 -18.256  0.00  0.00    -0.274 OA
ATOM      3  O   UNL     1      36.939 -27.493 -15.218  0.00  0.00    -0.435 OA
ATOM      4  O   UNL     1      38.870 -26.554 -14.122  0.00  0.00    -0.435 OA
ATOM      5  N   UNL     1      33.932 -22.767 -18.057  0.00  0.00    -0.251 N 
ATOM      6  C   UNL     1      35.197 -22.857 -16.059  0.00  0.00    +0.151 C 
ATOM      7  C   UNL     1      33.725 -22.983 -15.792  0.00  0.00    +0.007 C 
ATOM      8  C   UNL     1      36.056 -23.971 -15.574  0.00  0.00    +0.030 C 
ATOM      9  C   UNL     1      35.874 -21.669 -15.353  0.00  0.00    +0.222 C 
ATOM     10  C   UNL     1      35.256 -22.709 -17.595  0.00  0.00    +0.240 C 
ATOM     11  C   UNL     1      33.026 -22.928 -17.000  0.00  0.00    +0.051 C 
ATOM     12  C   UNL     1      37.179 -23.437 -14.938  0.00  0.00    +0.139 C 
ATOM     13  C   UNL     1      35.897 -25.343 -15.716  0.00  0.00    +0.040 C 
ATOM     14  C   UNL     1      33.049 -23.139 -14.592  0.00  0.00    -0.002 C 
ATOM     15  C   UNL     1      31.646 -23.023 -17.050  0.00  0.00    +0.015 C 
ATOM     16  C   UNL     1      38.188 -24.231 -14.418  0.00  0.00    +0.077 C 
ATOM     17  C   UNL     1      36.901 -26.131 -15.187  0.00  0.00    +0.176 C 
ATOM     18  C   UNL     1      38.011 -25.593 -14.559  0.00  0.00    +0.179 C 
ATOM     19  C   UNL     1      31.656 -23.237 -14.625  0.00  0.00    -0.000 C 
ATOM     20  C   UNL     1      30.961 -23.181 -15.844  0.00  0.00    +0.001 C 
ATOM     21  C   UNL     1      38.185 -27.751 -14.538  0.00  0.00    +0.429 C 
ENDROOT
BRANCH   5  22
ATOM     22  C   UNL     1      33.528 -22.674 -19.440  0.00  0.00    +0.162 C 
BRANCH  22  24
ATOM     23  O   UNL     1      34.786 -20.798 -20.337  0.00  0.00    -0.452 OA
ATOM     24  C   UNL     1      33.570 -21.261 -19.943  0.00  0.00    +0.143 C 
ATOM     25  C   UNL     1      32.609 -20.288 -20.100  0.00  0.00    +0.038 C 
ATOM     26  C   UNL     1      34.599 -19.517 -20.751  0.00  0.00    +0.216 C 
ATOM     27  C   UNL     1      33.277 -19.156 -20.624  0.00  0.00    +0.044 C 
BRANCH  26  31
ATOM     28  F   UNL     1      35.794 -17.469 -20.919  0.00  0.00    -0.163 F 
ATOM     29  F   UNL     1      36.980 -19.281 -20.719  0.00  0.00    -0.163 F 
ATOM     30  F   UNL     1      35.972 -18.847 -22.591  0.00  0.00    -0.163 F 
ATOM     31  C   UNL     1      35.793 -18.807 -21.228  0.00  0.00    +0.451 C 
ENDBRANCH  26  31
ENDBRANCH  22  24
ENDBRANCH   5  22
TORSDOF 3
ENDMDL
MODEL 2
REMARK VINA RESULT:      -8.8     10.896     16.142
REMARK  Name = 49836093
REMARK  3 active torsions:
REMARK  status: ('A' for Active; 'I' for Inactive)
REMARK    1  A    between atoms: N_5  and  C_22
REMARK    2  A    between atoms: C_22  and  C_24
REMARK    3  A    between atoms: C_26  and  C_31
REMARK                            x       y       z     vdW  Elec       q    Type
REMARK                         _______ _______ _______ _____ _____    ______ ____
ROOT
ATOM      1  O   UNL     1      33.149  -6.748 -20.711  0.00  0.00    -0.474 OA
ATOM      2  O   UNL     1      30.934  -9.407 -21.305  0.00  0.00    -0.274 OA
ATOM      3  O   UNL     1      30.403  -5.009 -25.075  0.00  0.00    -0.435 OA
ATOM      4  O   UNL     1      30.702  -3.432 -23.276  0.00  0.00    -0.435 OA
ATOM      5  N   UNL     1      32.135 -10.645 -22.915  0.00  0.00    -0.251 N 
ATOM      6  C   UNL     1      32.912  -8.463 -22.429  0.00  0.00    +0.151 C 
ATOM      7  C   UNL     1      33.766  -9.141 -23.461  0.00  0.00    +0.007 C 
ATOM      8  C   UNL     1      32.296  -7.168 -22.825  0.00  0.00    +0.030 C 
ATOM      9  C   UNL     1      33.668  -8.025 -21.162  0.00  0.00    +0.222 C 
ATOM     10  C   UNL     1      31.846  -9.534 -22.108  0.00  0.00    +0.240 C 
ATOM     11  C   UNL     1      33.265 -10.420 -23.713  0.00  0.00    +0.051 C 
ATOM     12  C   UNL     1      32.464  -6.247 -21.788  0.00  0.00    +0.139 C 
ATOM     13  C   UNL     1      31.603  -6.829 -23.980  0.00  0.00    +0.040 C 
ATOM     14  C   UNL     1      34.888  -8.678 -24.129  0.00  0.00    -0.002 C 
ATOM     15  C   UNL     1      33.860 -11.269 -24.630  0.00  0.00    +0.015 C 
ATOM     16  C   UNL     1      31.956  -4.960 -21.846  0.00  0.00    +0.077 C 
ATOM     17  C   UNL     1      31.107  -5.541 -24.038  0.00  0.00    +0.176 C 
ATOM     18  C   UNL     1      31.278  -4.635 -23.004  0.00  0.00    +0.179 C 
ATOM     19  C   UNL     1      35.501  -9.522 -25.058  0.00  0.00    -0.000 C 
ATOM     20  C   UNL     1      34.991 -10.807 -25.307  0.00  0.00    +0.001 C 
ATOM     21  C   UNL     1      30.155  -3.674 -24.587  0.00  0.00    +0.429 C 
ENDROOT
BRANCH   5  22
ATOM     22  C   UNL     1      31.381 -11.876 -22.939  0.00  0.00    +0.162 C 
BRANCH  22  24
ATOM     23  O   UNL     1      32.712 -13.910 -22.916  0.00  0.00    -0.452 OA
ATOM     24  C   UNL     1      32.069 -12.970 -22.175  0.00  0.00    +0.143 C 
ATOM     25  C   UNL     1      32.197 -13.243 -20.832  0.00  0.00    +0.038 C 
ATOM     26  C   UNL     1      33.257 -14.793 -22.039  0.00  0.00    +0.216 C 
ATOM     27  C   UNL     1      32.968 -14.427 -20.744  0.00  0.00    +0.044 C 
BRANCH  26  31
ATOM     28  F   UNL     1      33.648 -16.197 -23.917  0.00  0.00    -0.163 F 
ATOM     29  F   UNL     1      35.370 -15.713 -22.681  0.00  0.00    -0.163 F 
ATOM     30  F   UNL     1      33.871 -17.103 -21.952  0.00  0.00    -0.163 F 
ATOM     31  C   UNL     1      34.010 -15.910 -22.624  0.00  0.00    +0.451 C 
ENDBRANCH  26  31
ENDBRANCH  22  24
ENDBRANCH   5  22
TORSDOF 3
ENDMDL
MODEL 3
REMARK VINA RESULT:      -8.8      5.318      8.836
REMARK  Name = 49836093
REMARK  3 active torsions:
REMARK  status: ('A' for Active; 'I' for Inactive)
REMARK    1  A    between atoms: N_5  and  C_22
REMARK    2  A    between atoms: C_22  and  C_24
REMARK    3  A    between atoms: C_26  and  C_31
REMARK                            x       y       z     vdW  Elec       q    Type
REMARK                         _______ _______ _______ _____ _____    ______ ____
ROOT
ATOM      1  O   UNL     1      37.044 -18.387 -21.769  0.00  0.00    -0.474 OA
ATOM      2  O   UNL     1      34.942 -18.284 -24.580  0.00  0.00    -0.274 OA
ATOM      3  O   UNL     1      32.607 -20.982 -19.986  0.00  0.00    -0.435 OA
ATOM      4  O   UNL     1      34.735 -22.008 -19.507  0.00  0.00    -0.435 OA
ATOM      5  N   UNL     1      33.653 -16.364 -24.110  0.00  0.00    -0.251 N 
ATOM      6  C   UNL     1      34.974 -17.236 -22.351  0.00  0.00    +0.151 C 
ATOM      7  C   UNL     1      34.212 -16.016 -21.922  0.00  0.00    +0.007 C 
ATOM      8  C   UNL     1      34.737 -18.476 -21.563  0.00  0.00    +0.030 C 
ATOM      9  C   UNL     1      36.502 -17.117 -22.211  0.00  0.00    +0.222 C 
ATOM     10  C   UNL     1      34.554 -17.403 -23.827  0.00  0.00    +0.240 C 
ATOM     11  C   UNL     1      33.449 -15.544 -22.992  0.00  0.00    +0.051 C 
ATOM     12  C   UNL     1      35.965 -19.079 -21.281  0.00  0.00    +0.139 C 
ATOM     13  C   UNL     1      33.543 -19.060 -21.161  0.00  0.00    +0.040 C 
ATOM     14  C   UNL     1      34.183 -15.371 -20.696  0.00  0.00    -0.002 C 
ATOM     15  C   UNL     1      32.641 -14.426 -22.876  0.00  0.00    +0.015 C 
ATOM     16  C   UNL     1      36.067 -20.277 -20.594  0.00  0.00    +0.077 C 
ATOM     17  C   UNL     1      33.650 -20.250 -20.468  0.00  0.00    +0.176 C 
ATOM     18  C   UNL     1      34.872 -20.841 -20.194  0.00  0.00    +0.179 C 
ATOM     19  C   UNL     1      33.373 -14.241 -20.561  0.00  0.00    -0.000 C 
ATOM     20  C   UNL     1      32.608 -13.773 -21.642  0.00  0.00    +0.001 C 
ATOM     21  C   UNL     1      33.303 -22.089 -19.376  0.00  0.00    +0.429 C 
ENDROOT
BRANCH   5  22
ATOM     22  C   UNL     1      33.007 -16.146 -25.382  0.00  0.00    +0.162 C 
BRANCH  22  24
ATOM     23  O   UNL     1      33.572 -13.815 -24.989  0.00  0.00    -0.452 OA
ATOM     24  C   UNL     1      33.260 -14.764 -25.911  0.00  0.00    +0.143 C 
ATOM     25  C   UNL     1      33.245 -14.223 -27.176  0.00  0.00    +0.038 C 
ATOM     26  C   UNL     1      33.759 -12.655 -25.673  0.00  0.00    +0.216 C 
ATOM     27  C   UNL     1      33.569 -12.853 -27.021  0.00  0.00    +0.044 C 
BRANCH  26  31
ATOM     28  F   UNL     1      34.377 -11.770 -23.555  0.00  0.00    -0.163 F 
ATOM     29  F   UNL     1      35.224 -10.799 -25.307  0.00  0.00    -0.163 F 
ATOM     30  F   UNL     1      33.130 -10.512 -24.817  0.00  0.00    -0.163 F 
ATOM     31  C   UNL     1      34.110 -11.476 -24.870  0.00  0.00    +0.451 C 
ENDBRANCH  26  31
ENDBRANCH  22  24
ENDBRANCH   5  22
TORSDOF 3
ENDMDL
MODEL 4
REMARK VINA RESULT:      -7.7      8.344     12.546
REMARK  Name = 49836093
REMARK  3 active torsions:
REMARK  status: ('A' for Active; 'I' for Inactive)
REMARK    1  A    between atoms: N_5  and  C_22
REMARK    2  A    between atoms: C_22  and  C_24
REMARK    3  A    between atoms: C_26  and  C_31
REMARK                            x       y       z     vdW  Elec       q    Type
REMARK                         _______ _______ _______ _____ _____    ______ ____
ROOT
ATOM      1  O   UNL     1      31.905 -14.449 -21.602  0.00  0.00    -0.474 OA
ATOM      2  O   UNL     1      34.381 -12.015 -22.126  0.00  0.00    -0.274 OA
ATOM      3  O   UNL     1      36.302 -17.482 -22.642  0.00  0.00    -0.435 OA
ATOM      4  O   UNL     1      34.949 -18.134 -20.756  0.00  0.00    -0.435 OA
ATOM      5  N   UNL     1      34.324 -11.811 -24.477  0.00  0.00    -0.251 N 
ATOM      6  C   UNL     1      33.177 -13.649 -23.523  0.00  0.00    +0.151 C 
ATOM      7  C   UNL     1      33.056 -13.633 -25.019  0.00  0.00    +0.007 C 
ATOM      8  C   UNL     1      33.765 -14.874 -22.918  0.00  0.00    +0.030 C 
ATOM      9  C   UNL     1      31.834 -13.597 -22.773  0.00  0.00    +0.222 C 
ATOM     10  C   UNL     1      34.033 -12.396 -23.234  0.00  0.00    +0.240 C 
ATOM     11  C   UNL     1      33.751 -12.535 -25.531  0.00  0.00    +0.051 C 
ATOM     12  C   UNL     1      32.989 -15.260 -21.823  0.00  0.00    +0.139 C 
ATOM     13  C   UNL     1      34.913 -15.575 -23.265  0.00  0.00    +0.040 C 
ATOM     14  C   UNL     1      32.397 -14.509 -25.867  0.00  0.00    -0.002 C 
ATOM     15  C   UNL     1      33.809 -12.277 -26.890  0.00  0.00    +0.015 C 
ATOM     16  C   UNL     1      33.311 -16.347 -21.027  0.00  0.00    +0.077 C 
ATOM     17  C   UNL     1      35.225 -16.664 -22.475  0.00  0.00    +0.176 C 
ATOM     18  C   UNL     1      34.450 -17.038 -21.390  0.00  0.00    +0.179 C 
ATOM     19  C   UNL     1      32.446 -14.264 -27.241  0.00  0.00    -0.000 C 
ATOM     20  C   UNL     1      33.147 -13.157 -27.748  0.00  0.00    +0.001 C 
ATOM     21  C   UNL     1      36.117 -18.411 -21.554  0.00  0.00    +0.429 C 
ENDROOT
BRANCH   5  22
ATOM     22  C   UNL     1      35.110 -10.616 -24.671  0.00  0.00    +0.162 C 
BRANCH  22  24
ATOM     23  O   UNL     1      33.066  -9.442 -24.077  0.00  0.00    -0.452 OA
ATOM     24  C   UNL     1      34.423  -9.398 -24.123  0.00  0.00    +0.143 C 
ATOM     25  C   UNL     1      34.885  -8.195 -23.638  0.00  0.00    +0.038 C 
ATOM     26  C   UNL     1      32.656  -8.255 -23.556  0.00  0.00    +0.216 C 
ATOM     27  C   UNL     1      33.737  -7.454 -23.270  0.00  0.00    +0.044 C 
BRANCH  26  31
ATOM     28  F   UNL     1      30.537  -9.238 -23.111  0.00  0.00    -0.163 F 
ATOM     29  F   UNL     1      30.835  -7.199 -22.419  0.00  0.00    -0.163 F 
ATOM     30  F   UNL     1      30.576  -7.595 -24.536  0.00  0.00    -0.163 F 
ATOM     31  C   UNL     1      31.205  -8.076 -23.411  0.00  0.00    +0.451 C 
ENDBRANCH  26  31
ENDBRANCH  22  24
ENDBRANCH   5  22
TORSDOF 3
ENDMDL
MODEL 5
REMARK VINA RESULT:      -7.6     12.263     17.315
REMARK  Name = 49836093
REMARK  3 active torsions:
REMARK  status: ('A' for Active; 'I' for Inactive)
REMARK    1  A    between atoms: N_5  and  C_22
REMARK    2  A    between atoms: C_22  and  C_24
REMARK    3  A    between atoms: C_26  and  C_31
REMARK                            x       y       z     vdW  Elec       q    Type
REMARK                         _______ _______ _______ _____ _____    ______ ____
ROOT
ATOM      1  O   UNL     1      30.404  -4.801 -24.667  0.00  0.00    -0.474 OA
ATOM      2  O   UNL     1      30.419  -8.309 -24.824  0.00  0.00    -0.274 OA
ATOM      3  O   UNL     1      35.506  -5.864 -26.234  0.00  0.00    -0.435 OA
ATOM      4  O   UNL     1      34.338  -4.127 -27.429  0.00  0.00    -0.435 OA
ATOM      5  N   UNL     1      31.270  -8.854 -22.691  0.00  0.00    -0.251 N 
ATOM      6  C   UNL     1      31.438  -6.595 -23.378  0.00  0.00    +0.151 C 
ATOM      7  C   UNL     1      32.009  -6.804 -22.005  0.00  0.00    +0.007 C 
ATOM      8  C   UNL     1      32.357  -6.020 -24.397  0.00  0.00    +0.030 C 
ATOM      9  C   UNL     1      30.290  -5.573 -23.444  0.00  0.00    +0.222 C 
ATOM     10  C   UNL     1      30.958  -8.010 -23.769  0.00  0.00    +0.240 C 
ATOM     11  C   UNL     1      31.888  -8.149 -21.650  0.00  0.00    +0.051 C 
ATOM     12  C   UNL     1      31.690  -5.012 -25.096  0.00  0.00    +0.139 C 
ATOM     13  C   UNL     1      33.660  -6.377 -24.723  0.00  0.00    +0.040 C 
ATOM     14  C   UNL     1      32.591  -5.894 -21.137  0.00  0.00    -0.002 C 
ATOM     15  C   UNL     1      32.337  -8.625 -20.430  0.00  0.00    +0.015 C 
ATOM     16  C   UNL     1      32.275  -4.317 -26.141  0.00  0.00    +0.077 C 
ATOM     17  C   UNL     1      34.243  -5.674 -25.759  0.00  0.00    +0.176 C 
ATOM     18  C   UNL     1      33.573  -4.676 -26.447  0.00  0.00    +0.179 C 
ATOM     19  C   UNL     1      33.051  -6.358 -19.902  0.00  0.00    -0.000 C 
ATOM     20  C   UNL     1      32.925  -7.712 -19.552  0.00  0.00    +0.001 C 
ATOM     21  C   UNL     1      35.558  -4.879 -27.286  0.00  0.00    +0.429 C 
ENDROOT
BRANCH   5  22
ATOM     22  C   UNL     1      30.997 -10.271 -22.638  0.00  0.00    +0.162 C 
BRANCH  22  24
ATOM     23  O   UNL     1      32.162 -12.398 -22.796  0.00  0.00    -0.452 OA
ATOM     24  C   UNL     1      32.154 -11.084 -23.142  0.00  0.00    +0.143 C 
ATOM     25  C   UNL     1      33.255 -10.780 -23.910  0.00  0.00    +0.038 C 
ATOM     26  C   UNL     1      33.279 -12.939 -23.349  0.00  0.00    +0.216 C 
ATOM     27  C   UNL     1      33.985 -11.984 -24.044  0.00  0.00    +0.044 C 
BRANCH  26  31
ATOM     28  F   UNL     1      34.718 -14.649 -22.536  0.00  0.00    -0.163 F 
ATOM     29  F   UNL     1      32.583 -14.951 -22.257  0.00  0.00    -0.163 F 
ATOM     30  F   UNL     1      33.455 -15.155 -24.233  0.00  0.00    -0.163 F 
ATOM     31  C   UNL     1      33.498 -14.371 -23.103  0.00  0.00    +0.451 C 
ENDBRANCH  26  31
ENDBRANCH  22  24
ENDBRANCH   5  22
TORSDOF 3
ENDMDL
MODEL 6
REMARK VINA RESULT:      -7.4      9.843     13.796
REMARK  Name = 49836093
REMARK  3 active torsions:
REMARK  status: ('A' for Active; 'I' for Inactive)
REMARK    1  A    between atoms: N_5  and  C_22
REMARK    2  A    between atoms: C_22  and  C_24
REMARK    3  A    between atoms: C_26  and  C_31
REMARK                            x       y       z     vdW  Elec       q    Type
REMARK                         _______ _______ _______ _____ _____    ______ ____
ROOT
ATOM      1  O   UNL     1      32.259 -14.798 -26.238  0.00  0.00    -0.474 OA
ATOM      2  O   UNL     1      31.240 -13.315 -23.222  0.00  0.00    -0.274 OA
ATOM      3  O   UNL     1      36.074 -16.519 -22.759  0.00  0.00    -0.435 OA
ATOM      4  O   UNL     1      35.119 -18.170 -24.235  0.00  0.00    -0.435 OA
ATOM      5  N   UNL     1      32.543 -11.347 -23.224  0.00  0.00    -0.251 N 
ATOM      6  C   UNL     1      33.107 -13.018 -24.802  0.00  0.00    +0.151 C 
ATOM      7  C   UNL     1      34.005 -11.820 -24.914  0.00  0.00    +0.007 C 
ATOM      8  C   UNL     1      33.772 -14.324 -24.547  0.00  0.00    +0.030 C 
ATOM      9  C   UNL     1      32.333 -13.358 -26.088  0.00  0.00    +0.222 C 
ATOM     10  C   UNL     1      32.151 -12.624 -23.655  0.00  0.00    +0.240 C 
ATOM     11  C   UNL     1      33.634 -10.869 -23.962  0.00  0.00    +0.051 C 
ATOM     12  C   UNL     1      33.225 -15.288 -25.396  0.00  0.00    +0.139 C 
ATOM     13  C   UNL     1      34.746 -14.659 -23.615  0.00  0.00    +0.040 C 
ATOM     14  C   UNL     1      35.066 -11.582 -25.774  0.00  0.00    -0.002 C 
ATOM     15  C   UNL     1      34.299  -9.661 -23.839  0.00  0.00    +0.015 C 
ATOM     16  C   UNL     1      33.614 -16.617 -25.363  0.00  0.00    +0.077 C 
ATOM     17  C   UNL     1      35.137 -15.984 -23.592  0.00  0.00    +0.176 C 
ATOM     18  C   UNL     1      34.589 -16.933 -24.438  0.00  0.00    +0.179 C 
ATOM     19  C   UNL     1      35.748 -10.368 -25.663  0.00  0.00    -0.000 C 
ATOM     20  C   UNL     1      35.368  -9.416 -24.703  0.00  0.00    +0.001 C 
ATOM     21  C   UNL     1      36.059 -17.900 -23.176  0.00  0.00    +0.429 C 
ENDROOT
BRANCH   5  22
ATOM     22  C   UNL     1      31.917 -10.600 -22.159  0.00  0.00    +0.162 C 
BRANCH  22  24
ATOM     23  O   UNL     1      31.769  -8.212 -21.725  0.00  0.00    -0.452 OA
ATOM     24  C   UNL     1      31.517  -9.221 -22.600  0.00  0.00    +0.143 C 
ATOM     25  C   UNL     1      30.927  -8.734 -23.744  0.00  0.00    +0.038 C 
ATOM     26  C   UNL     1      31.335  -7.068 -22.316  0.00  0.00    +0.216 C 
ATOM     27  C   UNL     1      30.808  -7.335 -23.559  0.00  0.00    +0.044 C 
BRANCH  26  31
ATOM     28  F   UNL     1      32.157  -4.839 -22.235  0.00  0.00    -0.163 F 
ATOM     29  F   UNL     1      30.334  -5.251 -21.125  0.00  0.00    -0.163 F 
ATOM     30  F   UNL     1      32.239  -5.981 -20.386  0.00  0.00    -0.163 F 
ATOM     31  C   UNL     1      31.508  -5.831 -21.542  0.00  0.00    +0.451 C 
ENDBRANCH  26  31
ENDBRANCH  22  24
ENDBRANCH   5  22
TORSDOF 3
ENDMDL
MODEL 7
REMARK VINA RESULT:      -6.7      4.680      9.810
REMARK  Name = 49836093
REMARK  3 active torsions:
REMARK  status: ('A' for Active; 'I' for Inactive)
REMARK    1  A    between atoms: N_5  and  C_22
REMARK    2  A    between atoms: C_22  and  C_24
REMARK    3  A    between atoms: C_26  and  C_31
REMARK                            x       y       z     vdW  Elec       q    Type
REMARK                         _______ _______ _______ _____ _____    ______ ____
ROOT
ATOM      1  O   UNL     1      33.977 -14.865 -20.670  0.00  0.00    -0.474 OA
ATOM      2  O   UNL     1      31.870 -17.670 -20.811  0.00  0.00    -0.274 OA
ATOM      3  O   UNL     1      33.785 -15.896 -26.009  0.00  0.00    -0.435 OA
ATOM      4  O   UNL     1      33.495 -13.600 -25.331  0.00  0.00    -0.435 OA
ATOM      5  N   UNL     1      33.451 -19.423 -20.825  0.00  0.00    -0.251 N 
ATOM      6  C   UNL     1      34.264 -17.230 -21.190  0.00  0.00    +0.151 C 
ATOM      7  C   UNL     1      35.369 -18.246 -21.218  0.00  0.00    +0.007 C 
ATOM      8  C   UNL     1      34.104 -16.392 -22.409  0.00  0.00    +0.030 C 
ATOM      9  C   UNL     1      34.433 -16.130 -20.128  0.00  0.00    +0.222 C 
ATOM     10  C   UNL     1      33.012 -18.092 -20.916  0.00  0.00    +0.240 C 
ATOM     11  C   UNL     1      34.838 -19.519 -21.001  0.00  0.00    +0.051 C 
ATOM     12  C   UNL     1      33.935 -15.059 -22.027  0.00  0.00    +0.139 C 
ATOM     13  C   UNL     1      34.063 -16.765 -23.746  0.00  0.00    +0.040 C 
ATOM     14  C   UNL     1      36.729 -18.074 -21.420  0.00  0.00    -0.002 C 
ATOM     15  C   UNL     1      35.636 -20.649 -20.978  0.00  0.00    +0.015 C 
ATOM     16  C   UNL     1      33.718 -14.043 -22.943  0.00  0.00    +0.077 C 
ATOM     17  C   UNL     1      33.857 -15.746 -24.657  0.00  0.00    +0.176 C 
ATOM     18  C   UNL     1      33.690 -14.428 -24.268  0.00  0.00    +0.179 C 
ATOM     19  C   UNL     1      37.550 -19.205 -21.400  0.00  0.00    -0.000 C 
ATOM     20  C   UNL     1      37.007 -20.481 -21.182  0.00  0.00    +0.001 C 
ATOM     21  C   UNL     1      33.560 -14.533 -26.427  0.00  0.00    +0.429 C 
ENDROOT
BRANCH   5  22
ATOM     22  C   UNL     1      32.602 -20.564 -20.580  0.00  0.00    +0.162 C 
BRANCH  22  24
ATOM     23  O   UNL     1      32.159 -21.801 -18.535  0.00  0.00    -0.452 OA
ATOM     24  C   UNL     1      33.096 -21.395 -19.431  0.00  0.00    +0.143 C 
ATOM     25  C   UNL     1      34.342 -21.856 -19.070  0.00  0.00    +0.038 C 
ATOM     26  C   UNL     1      32.812 -22.529 -17.591  0.00  0.00    +0.216 C 
ATOM     27  C   UNL     1      34.157 -22.592 -17.876  0.00  0.00    +0.044 C 
BRANCH  26  31
ATOM     28  F   UNL     1      32.099 -24.439 -16.368  0.00  0.00    -0.163 F 
ATOM     29  F   UNL     1      32.280 -22.578 -15.259  0.00  0.00    -0.163 F 
ATOM     30  F   UNL     1      30.637 -22.854 -16.650  0.00  0.00    -0.163 F 
ATOM     31  C   UNL     1      31.987 -23.078 -16.507  0.00  0.00    +0.451 C 
ENDBRANCH  26  31
ENDBRANCH  22  24
ENDBRANCH   5  22
TORSDOF 3
ENDMDL
MODEL 8
REMARK VINA RESULT:      -6.6      8.960     14.510
REMARK  Name = 49836093
REMARK  3 active torsions:
REMARK  status: ('A' for Active; 'I' for Inactive)
REMARK    1  A    between atoms: N_5  and  C_22
REMARK    2  A    between atoms: C_22  and  C_24
REMARK    3  A    between atoms: C_26  and  C_31
REMARK                            x       y       z     vdW  Elec       q    Type
REMARK                         _______ _______ _______ _____ _____    ______ ____
ROOT
ATOM      1  O   UNL     1      35.458  -9.286 -23.625  0.00  0.00    -0.474 OA
ATOM      2  O   UNL     1      33.496 -11.462 -21.690  0.00  0.00    -0.274 OA
ATOM      3  O   UNL     1      30.430  -7.411 -24.524  0.00  0.00    -0.435 OA
ATOM      4  O   UNL     1      32.130  -5.776 -24.024  0.00  0.00    -0.435 OA
ATOM      5  N   UNL     1      32.873 -13.066 -23.305  0.00  0.00    -0.251 N 
ATOM      6  C   UNL     1      33.853 -11.062 -24.094  0.00  0.00    +0.151 C 
ATOM      7  C   UNL     1      33.512 -11.995 -25.219  0.00  0.00    +0.007 C 
ATOM      8  C   UNL     1      33.240  -9.707 -24.147  0.00  0.00    +0.030 C 
ATOM      9  C   UNL     1      35.342 -10.679 -24.011  0.00  0.00    +0.222 C 
ATOM     10  C   UNL     1      33.403 -11.850 -22.845  0.00  0.00    +0.240 C 
ATOM     11  C   UNL     1      32.935 -13.157 -24.702  0.00  0.00    +0.051 C 
ATOM     12  C   UNL     1      34.217  -8.752 -23.858  0.00  0.00    +0.139 C 
ATOM     13  C   UNL     1      31.922  -9.336 -24.384  0.00  0.00    +0.040 C 
ATOM     14  C   UNL     1      33.685 -11.842 -26.586  0.00  0.00    -0.002 C 
ATOM     15  C   UNL     1      32.519 -14.192 -25.521  0.00  0.00    +0.015 C 
ATOM     16  C   UNL     1      33.937  -7.397 -23.789  0.00  0.00    +0.077 C 
ATOM     17  C   UNL     1      31.650  -7.983 -24.324  0.00  0.00    +0.176 C 
ATOM     18  C   UNL     1      32.625  -7.044 -24.036  0.00  0.00    +0.179 C 
ATOM     19  C   UNL     1      33.270 -12.877 -27.427  0.00  0.00    -0.000 C 
ATOM     20  C   UNL     1      32.691 -14.042 -26.898  0.00  0.00    +0.001 C 
ATOM     21  C   UNL     1      30.744  -6.016 -24.337  0.00  0.00    +0.429 C 
ENDROOT
BRANCH   5  22
ATOM     22  C   UNL     1      32.328 -14.107 -22.466  0.00  0.00    +0.162 C 
BRANCH  22  24
ATOM     23  O   UNL     1      33.763 -16.023 -22.888  0.00  0.00    -0.452 OA
ATOM     24  C   UNL     1      33.387 -15.065 -22.001  0.00  0.00    +0.143 C 
ATOM     25  C   UNL     1      34.090 -15.192 -20.825  0.00  0.00    +0.038 C 
ATOM     26  C   UNL     1      34.717 -16.770 -22.273  0.00  0.00    +0.216 C 
ATOM     27  C   UNL     1      34.954 -16.299 -21.002  0.00  0.00    +0.044 C 
BRANCH  26  31
ATOM     28  F   UNL     1      34.537 -19.034 -22.974  0.00  0.00    -0.163 F 
ATOM     29  F   UNL     1      35.387 -17.632 -24.402  0.00  0.00    -0.163 F 
ATOM     30  F   UNL     1      36.546 -18.257 -22.678  0.00  0.00    -0.163 F 
ATOM     31  C   UNL     1      35.278 -17.880 -23.054  0.00  0.00    +0.451 C 
ENDBRANCH  26  31
ENDBRANCH  22  24
ENDBRANCH   5  22
TORSDOF 3
ENDMDL
MODEL 9
REMARK VINA RESULT:      -6.5      6.928     12.517
REMARK  Name = 49836093
REMARK  3 active torsions:
REMARK  status: ('A' for Active; 'I' for Inactive)
REMARK    1  A    between atoms: N_5  and  C_22
REMARK    2  A    between atoms: C_22  and  C_24
REMARK    3  A    between atoms: C_26  and  C_31
REMARK                            x       y       z     vdW  Elec       q    Type
REMARK                         _______ _______ _______ _____ _____    ______ ____
ROOT
ATOM      1  O   UNL     1      32.505 -14.127 -25.916  0.00  0.00    -0.474 OA
ATOM      2  O   UNL     1      34.718 -15.307 -23.457  0.00  0.00    -0.274 OA
ATOM      3  O   UNL     1      36.013  -9.993 -25.441  0.00  0.00    -0.435 OA
ATOM      4  O   UNL     1      35.448 -10.692 -27.679  0.00  0.00    -0.435 OA
ATOM      5  N   UNL     1      33.782 -14.354 -21.512  0.00  0.00    -0.251 N 
ATOM      6  C   UNL     1      32.990 -13.555 -23.595  0.00  0.00    +0.151 C 
ATOM      7  C   UNL     1      32.311 -12.874 -22.442  0.00  0.00    +0.007 C 
ATOM      8  C   UNL     1      33.700 -12.674 -24.561  0.00  0.00    +0.030 C 
ATOM      9  C   UNL     1      32.038 -14.293 -24.553  0.00  0.00    +0.222 C 
ATOM     10  C   UNL     1      33.956 -14.536 -22.893  0.00  0.00    +0.240 C 
ATOM     11  C   UNL     1      32.814 -13.377 -21.241  0.00  0.00    +0.051 C 
ATOM     12  C   UNL     1      33.380 -13.072 -25.861  0.00  0.00    +0.139 C 
ATOM     13  C   UNL     1      34.592 -11.635 -24.328  0.00  0.00    +0.040 C 
ATOM     14  C   UNL     1      31.335 -11.890 -22.442  0.00  0.00    -0.002 C 
ATOM     15  C   UNL     1      32.365 -12.921 -20.014  0.00  0.00    +0.015 C 
ATOM     16  C   UNL     1      33.924 -12.465 -26.981  0.00  0.00    +0.077 C 
ATOM     17  C   UNL     1      35.125 -11.026 -25.448  0.00  0.00    +0.176 C 
ATOM     18  C   UNL     1      34.802 -11.428 -26.733  0.00  0.00    +0.179 C 
ATOM     19  C   UNL     1      30.870 -11.419 -21.212  0.00  0.00    -0.000 C 
ATOM     20  C   UNL     1      31.382 -11.930 -20.008  0.00  0.00    +0.001 C 
ATOM     21  C   UNL     1      36.208  -9.786 -26.856  0.00  0.00    +0.429 C 
ENDROOT
BRANCH   5  22
ATOM     22  C   UNL     1      34.495 -15.070 -20.481  0.00  0.00    +0.162 C 
BRANCH  22  24
ATOM     23  O   UNL     1      35.627 -17.218 -20.601  0.00  0.00    -0.452 OA
ATOM     24  C   UNL     1      34.444 -16.555 -20.692  0.00  0.00    +0.143 C 
ATOM     25  C   UNL     1      33.419 -17.432 -20.969  0.00  0.00    +0.038 C 
ATOM     26  C   UNL     1      35.356 -18.531 -20.821  0.00  0.00    +0.216 C 
ATOM     27  C   UNL     1      34.012 -18.714 -21.053  0.00  0.00    +0.044 C 
BRANCH  26  31
ATOM     28  F   UNL     1      36.243 -20.678 -21.325  0.00  0.00    -0.163 F 
ATOM     29  F   UNL     1      37.622 -19.000 -21.429  0.00  0.00    -0.163 F 
ATOM     30  F   UNL     1      36.949 -19.730 -19.500  0.00  0.00    -0.163 F 
ATOM     31  C   UNL     1      36.501 -19.449 -20.770  0.00  0.00    +0.451 C 
ENDBRANCH  26  31
ENDBRANCH  22  24
ENDBRANCH   5  22
TORSDOF 3
ENDMDL
