MODEL 1
REMARK VINA RESULT:     -10.2      0.000      0.000
REMARK  Name = 5719
REMARK  4 active torsions:
REMARK  status: ('A' for Active; 'I' for Inactive)
REMARK    1  A    between atoms: C_1  and  C_10
REMARK    2  A    between atoms: C_2  and  N_19
REMARK    3  A    between atoms: C_13  and  C_17
REMARK    4  A    between atoms: N_19  and  C_22
REMARK                            x       y       z     vdW  Elec       q    Type
REMARK                         _______ _______ _______ _____ _____    ______ ____
ROOT
ATOM      1  C   UNL     1      34.986 -18.018 -22.592  0.00  0.00    +0.003 C 
ATOM      2  C   UNL     1      34.055 -15.875 -23.210  0.00  0.00    +0.054 C 
ATOM      3  C   UNL     1      34.479 -16.770 -22.227  0.00  0.00    +0.013 C 
ATOM      4  C   UNL     1      35.070 -18.369 -23.939  0.00  0.00    -0.002 C 
ATOM      5  C   UNL     1      34.138 -16.227 -24.557  0.00  0.00    +0.015 C 
ATOM      6  C   UNL     1      34.644 -17.474 -24.921  0.00  0.00    +0.001 C 
ENDROOT
BRANCH   1  10
ATOM      7  N   UNL     1      34.543 -19.843 -20.919  0.00  0.00    -0.191 N 
ATOM      8  N   UNL     1      33.198 -19.957 -21.112  0.00  0.00    -0.178 NA
ATOM      9  N   UNL     1      36.294 -20.810 -19.572  0.00  0.00    -0.231 NA
ATOM     10  C   UNL     1      35.436 -18.963 -21.555  0.00  0.00    +0.143 C 
ATOM     11  C   UNL     1      34.985 -20.744 -19.945  0.00  0.00    +0.148 C 
ATOM     12  C   UNL     1      36.736 -18.997 -21.216  0.00  0.00    +0.020 C 
ATOM     13  C   UNL     1      33.877 -21.446 -19.528  0.00  0.00    +0.189 C 
ATOM     14  C   UNL     1      37.097 -19.989 -20.173  0.00  0.00    +0.098 C 
ATOM     15  C   UNL     1      32.817 -20.921 -20.277  0.00  0.00    +0.114 C 
BRANCH  13  17
ATOM     16  N   UNL     1      33.817 -23.321 -17.742  0.00  0.00    -0.195 NA
ATOM     17  C   UNL     1      33.844 -22.474 -18.549  0.00  0.00    +0.086 C 
ENDBRANCH  13  17
ENDBRANCH   1  10
BRANCH   2  19
ATOM     18  O   UNL     1      31.966 -15.383 -21.265  0.00  0.00    -0.275 OA
ATOM     19  N   UNL     1      33.548 -14.627 -22.845  0.00  0.00    -0.259 N 
ATOM     20  C   UNL     1      32.534 -14.452 -21.841  0.00  0.00    +0.230 C 
ATOM     21  C   UNL     1      32.164 -13.042 -21.438  0.00  0.00    +0.095 C 
BRANCH  19  22
ATOM     22  C   UNL     1      34.153 -13.405 -23.461  0.00  0.00    +0.098 C 
ATOM     23  C   UNL     1      33.385 -13.015 -24.709  0.00  0.00    +0.024 C 
ENDBRANCH  19  22
ENDBRANCH   2  19
TORSDOF 4
ENDMDL
MODEL 2
REMARK VINA RESULT:      -9.8      1.089      1.540
REMARK  Name = 5719
REMARK  4 active torsions:
REMARK  status: ('A' for Active; 'I' for Inactive)
REMARK    1  A    between atoms: C_1  and  C_10
REMARK    2  A    between atoms: C_2  and  N_19
REMARK    3  A    between atoms: C_13  and  C_17
REMARK    4  A    between atoms: N_19  and  C_22
REMARK                            x       y       z     vdW  Elec       q    Type
REMARK                         _______ _______ _______ _____ _____    ______ ____
ROOT
ATOM      1  C   UNL     1      35.061 -18.081 -22.677  0.00  0.00    +0.003 C 
ATOM      2  C   UNL     1      34.342 -15.874 -23.355  0.00  0.00    +0.054 C 
ATOM      3  C   UNL     1      34.749 -16.759 -22.356  0.00  0.00    +0.013 C 
ATOM      4  C   UNL     1      34.965 -18.517 -23.999  0.00  0.00    -0.002 C 
ATOM      5  C   UNL     1      34.247 -16.312 -24.676  0.00  0.00    +0.015 C 
ATOM      6  C   UNL     1      34.557 -17.632 -24.998  0.00  0.00    +0.001 C 
ENDROOT
BRANCH   1  10
ATOM      7  N   UNL     1      34.582 -19.862 -20.968  0.00  0.00    -0.191 N 
ATOM      8  N   UNL     1      33.234 -19.952 -21.156  0.00  0.00    -0.178 NA
ATOM      9  N   UNL     1      36.314 -20.841 -19.606  0.00  0.00    -0.231 NA
ATOM     10  C   UNL     1      35.492 -19.015 -21.622  0.00  0.00    +0.143 C 
ATOM     11  C   UNL     1      35.006 -20.754 -19.978  0.00  0.00    +0.148 C 
ATOM     12  C   UNL     1      36.791 -19.070 -21.285  0.00  0.00    +0.020 C 
ATOM     13  C   UNL     1      33.884 -21.424 -19.545  0.00  0.00    +0.189 C 
ATOM     14  C   UNL     1      37.133 -20.049 -20.224  0.00  0.00    +0.098 C 
ATOM     15  C   UNL     1      32.834 -20.891 -20.302  0.00  0.00    +0.114 C 
BRANCH  13  17
ATOM     16  N   UNL     1      33.787 -23.260 -17.722  0.00  0.00    -0.195 NA
ATOM     17  C   UNL     1      33.831 -22.431 -18.545  0.00  0.00    +0.086 C 
ENDBRANCH  13  17
ENDBRANCH   1  10
BRANCH   2  19
ATOM     18  O   UNL     1      33.540 -13.809 -25.219  0.00  0.00    -0.275 OA
ATOM     19  N   UNL     1      34.031 -14.553 -23.033  0.00  0.00    -0.259 N 
ATOM     20  C   UNL     1      33.602 -13.586 -24.008  0.00  0.00    +0.230 C 
ATOM     21  C   UNL     1      33.164 -12.225 -23.517  0.00  0.00    +0.095 C 
BRANCH  19  22
ATOM     22  C   UNL     1      34.057 -14.145 -21.595  0.00  0.00    +0.098 C 
ATOM     23  C   UNL     1      32.725 -14.456 -20.940  0.00  0.00    +0.024 C 
ENDBRANCH  19  22
ENDBRANCH   2  19
TORSDOF 4
ENDMDL
MODEL 3
REMARK VINA RESULT:      -9.5      3.592      8.918
REMARK  Name = 5719
REMARK  4 active torsions:
REMARK  status: ('A' for Active; 'I' for Inactive)
REMARK    1  A    between atoms: C_1  and  C_10
REMARK    2  A    between atoms: C_2  and  N_19
REMARK    3  A    between atoms: C_13  and  C_17
REMARK    4  A    between atoms: N_19  and  C_22
REMARK                            x       y       z     vdW  Elec       q    Type
REMARK                         _______ _______ _______ _____ _____    ______ ____
ROOT
ATOM      1  C   UNL     1      33.746 -12.665 -24.332  0.00  0.00    +0.003 C 
ATOM      2  C   UNL     1      33.977 -14.930 -23.519  0.00  0.00    +0.054 C 
ATOM      3  C   UNL     1      34.097 -13.555 -23.315  0.00  0.00    +0.013 C 
ATOM      4  C   UNL     1      33.276 -13.151 -25.552  0.00  0.00    -0.002 C 
ATOM      5  C   UNL     1      33.507 -15.415 -24.740  0.00  0.00    +0.015 C 
ATOM      6  C   UNL     1      33.158 -14.527 -25.756  0.00  0.00    +0.001 C 
ENDROOT
BRANCH   1  10
ATOM      7  N   UNL     1      33.030 -10.522 -23.226  0.00  0.00    -0.191 N 
ATOM      8  N   UNL     1      32.009 -11.026 -22.475  0.00  0.00    -0.178 NA
ATOM      9  N   UNL     1      34.116  -8.416 -23.672  0.00  0.00    -0.231 NA
ATOM     10  C   UNL     1      33.870 -11.212 -24.116  0.00  0.00    +0.143 C 
ATOM     11  C   UNL     1      33.167  -9.146 -23.021  0.00  0.00    +0.148 C 
ATOM     12  C   UNL     1      34.820 -10.530 -24.777  0.00  0.00    +0.020 C 
ATOM     13  C   UNL     1      32.204  -8.787 -22.106  0.00  0.00    +0.189 C 
ATOM     14  C   UNL     1      34.878  -9.076 -24.487  0.00  0.00    +0.098 C 
ATOM     15  C   UNL     1      31.529  -9.978 -21.809  0.00  0.00    +0.114 C 
BRANCH  13  17
ATOM     16  N   UNL     1      31.770  -6.413 -21.167  0.00  0.00    -0.195 NA
ATOM     17  C   UNL     1      31.966  -7.485 -21.591  0.00  0.00    +0.086 C 
ENDBRANCH  13  17
ENDBRANCH   1  10
BRANCH   2  19
ATOM     18  O   UNL     1      35.318 -17.473 -23.864  0.00  0.00    -0.275 OA
ATOM     19  N   UNL     1      34.326 -15.819 -22.502  0.00  0.00    -0.259 N 
ATOM     20  C   UNL     1      35.027 -17.051 -22.742  0.00  0.00    +0.230 C 
ATOM     21  C   UNL     1      35.469 -17.865 -21.546  0.00  0.00    +0.095 C 
BRANCH  19  22
ATOM     22  C   UNL     1      34.040 -15.431 -21.086  0.00  0.00    +0.098 C 
ATOM     23  C   UNL     1      32.563 -15.598 -20.787  0.00  0.00    +0.024 C 
ENDBRANCH  19  22
ENDBRANCH   2  19
TORSDOF 4
ENDMDL
MODEL 4
REMARK VINA RESULT:      -9.3      3.678      6.738
REMARK  Name = 5719
REMARK  4 active torsions:
REMARK  status: ('A' for Active; 'I' for Inactive)
REMARK    1  A    between atoms: C_1  and  C_10
REMARK    2  A    between atoms: C_2  and  N_19
REMARK    3  A    between atoms: C_13  and  C_17
REMARK    4  A    between atoms: N_19  and  C_22
REMARK                            x       y       z     vdW  Elec       q    Type
REMARK                         _______ _______ _______ _____ _____    ______ ____
ROOT
ATOM      1  C   UNL     1      32.592 -12.307 -22.993  0.00  0.00    +0.003 C 
ATOM      2  C   UNL     1      32.605  -9.905 -22.721  0.00  0.00    +0.054 C 
ATOM      3  C   UNL     1      33.012 -11.045 -23.415  0.00  0.00    +0.013 C 
ATOM      4  C   UNL     1      31.764 -12.429 -21.877  0.00  0.00    -0.002 C 
ATOM      5  C   UNL     1      31.777 -10.028 -21.604  0.00  0.00    +0.015 C 
ATOM      6  C   UNL     1      31.358 -11.289 -21.182  0.00  0.00    +0.001 C 
ENDROOT
BRANCH   1  10
ATOM      7  N   UNL     1      33.711 -14.557 -23.092  0.00  0.00    -0.191 N 
ATOM      8  N   UNL     1      34.101 -14.635 -21.788  0.00  0.00    -0.178 NA
ATOM      9  N   UNL     1      33.829 -15.850 -25.123  0.00  0.00    -0.231 NA
ATOM     10  C   UNL     1      33.020 -13.511 -23.727  0.00  0.00    +0.143 C 
ATOM     11  C   UNL     1      34.100 -15.701 -23.797  0.00  0.00    +0.148 C 
ATOM     12  C   UNL     1      32.733 -13.619 -25.035  0.00  0.00    +0.020 C 
ATOM     13  C   UNL     1      34.746 -16.516 -22.896  0.00  0.00    +0.189 C 
ATOM     14  C   UNL     1      33.192 -14.871 -25.686  0.00  0.00    +0.098 C 
ATOM     15  C   UNL     1      34.715 -15.811 -21.687  0.00  0.00    +0.114 C 
BRANCH  13  17
ATOM     16  N   UNL     1      35.782 -18.840 -23.380  0.00  0.00    -0.195 NA
ATOM     17  C   UNL     1      35.314 -17.791 -23.162  0.00  0.00    +0.086 C 
ENDBRANCH  13  17
ENDBRANCH   1  10
BRANCH   2  19
ATOM     18  O   UNL     1      35.177  -9.263 -23.884  0.00  0.00    -0.275 OA
ATOM     19  N   UNL     1      33.023  -8.643 -23.143  0.00  0.00    -0.259 N 
ATOM     20  C   UNL     1      34.305  -8.402 -23.749  0.00  0.00    +0.230 C 
ATOM     21  C   UNL     1      34.590  -7.018 -24.288  0.00  0.00    +0.095 C 
BRANCH  19  22
ATOM     22  C   UNL     1      32.060  -7.503 -23.046  0.00  0.00    +0.098 C 
ATOM     23  C   UNL     1      30.981  -7.641 -24.102  0.00  0.00    +0.024 C 
ENDBRANCH  19  22
ENDBRANCH   2  19
TORSDOF 4
ENDMDL
MODEL 5
REMARK VINA RESULT:      -9.1      3.701      8.884
REMARK  Name = 5719
REMARK  4 active torsions:
REMARK  status: ('A' for Active; 'I' for Inactive)
REMARK    1  A    between atoms: C_1  and  C_10
REMARK    2  A    between atoms: C_2  and  N_19
REMARK    3  A    between atoms: C_13  and  C_17
REMARK    4  A    between atoms: N_19  and  C_22
REMARK                            x       y       z     vdW  Elec       q    Type
REMARK                         _______ _______ _______ _____ _____    ______ ____
ROOT
ATOM      1  C   UNL     1      33.707 -12.454 -24.581  0.00  0.00    +0.003 C 
ATOM      2  C   UNL     1      33.890 -14.791 -23.992  0.00  0.00    +0.054 C 
ATOM      3  C   UNL     1      34.047 -13.445 -23.660  0.00  0.00    +0.013 C 
ATOM      4  C   UNL     1      33.211 -12.810 -25.836  0.00  0.00    -0.002 C 
ATOM      5  C   UNL     1      33.394 -15.146 -25.247  0.00  0.00    +0.015 C 
ATOM      6  C   UNL     1      33.055 -14.156 -26.168  0.00  0.00    +0.001 C 
ENDROOT
BRANCH   1  10
ATOM      7  N   UNL     1      33.039 -10.403 -23.288  0.00  0.00    -0.191 N 
ATOM      8  N   UNL     1      31.996 -10.944 -22.597  0.00  0.00    -0.178 NA
ATOM      9  N   UNL     1      34.191  -8.298 -23.524  0.00  0.00    -0.231 NA
ATOM     10  C   UNL     1      33.871 -11.032 -24.231  0.00  0.00    +0.143 C 
ATOM     11  C   UNL     1      33.214  -9.056 -22.954  0.00  0.00    +0.148 C 
ATOM     12  C   UNL     1      34.848 -10.320 -24.816  0.00  0.00    +0.020 C 
ATOM     13  C   UNL     1      32.250  -8.756 -22.019  0.00  0.00    +0.189 C 
ATOM     14  C   UNL     1      34.944  -8.902 -24.390  0.00  0.00    +0.098 C 
ATOM     15  C   UNL     1      31.537  -9.948 -21.841  0.00  0.00    +0.114 C 
BRANCH  13  17
ATOM     16  N   UNL     1      31.872  -6.467 -20.867  0.00  0.00    -0.195 NA
ATOM     17  C   UNL     1      32.043  -7.501 -21.387  0.00  0.00    +0.086 C 
ENDBRANCH  13  17
ENDBRANCH   1  10
BRANCH   2  19
ATOM     18  O   UNL     1      32.527 -15.337 -21.496  0.00  0.00    -0.275 OA
ATOM     19  N   UNL     1      34.229 -15.782 -23.070  0.00  0.00    -0.259 N 
ATOM     20  C   UNL     1      33.483 -16.023 -21.865  0.00  0.00    +0.230 C 
ATOM     21  C   UNL     1      33.867 -17.213 -21.014  0.00  0.00    +0.095 C 
BRANCH  19  22
ATOM     22  C   UNL     1      35.366 -16.698 -23.394  0.00  0.00    +0.098 C 
ATOM     23  C   UNL     1      34.884 -17.842 -24.264  0.00  0.00    +0.024 C 
ENDBRANCH  19  22
ENDBRANCH   2  19
TORSDOF 4
ENDMDL
MODEL 6
REMARK VINA RESULT:      -9.1      3.540      6.421
REMARK  Name = 5719
REMARK  4 active torsions:
REMARK  status: ('A' for Active; 'I' for Inactive)
REMARK    1  A    between atoms: C_1  and  C_10
REMARK    2  A    between atoms: C_2  and  N_19
REMARK    3  A    between atoms: C_13  and  C_17
REMARK    4  A    between atoms: N_19  and  C_22
REMARK                            x       y       z     vdW  Elec       q    Type
REMARK                         _______ _______ _______ _____ _____    ______ ____
ROOT
ATOM      1  C   UNL     1      33.580 -12.124 -24.387  0.00  0.00    +0.003 C 
ATOM      2  C   UNL     1      32.835 -10.452 -22.808  0.00  0.00    +0.054 C 
ATOM      3  C   UNL     1      32.801 -11.762 -23.287  0.00  0.00    +0.013 C 
ATOM      4  C   UNL     1      34.392 -11.174 -25.008  0.00  0.00    -0.002 C 
ATOM      5  C   UNL     1      33.648  -9.503 -23.430  0.00  0.00    +0.015 C 
ATOM      6  C   UNL     1      34.425  -9.864 -24.529  0.00  0.00    +0.001 C 
ENDROOT
BRANCH   1  10
ATOM      7  N   UNL     1      34.058 -14.581 -24.143  0.00  0.00    -0.191 N 
ATOM      8  N   UNL     1      34.654 -14.540 -22.918  0.00  0.00    -0.178 NA
ATOM      9  N   UNL     1      33.463 -16.184 -25.843  0.00  0.00    -0.231 NA
ATOM     10  C   UNL     1      33.546 -13.507 -24.893  0.00  0.00    +0.143 C 
ATOM     11  C   UNL     1      34.007 -15.891 -24.629  0.00  0.00    +0.148 C 
ATOM     12  C   UNL     1      33.000 -13.754 -26.095  0.00  0.00    +0.020 C 
ATOM     13  C   UNL     1      34.585 -16.689 -23.667  0.00  0.00    +0.189 C 
ATOM     14  C   UNL     1      32.999 -15.177 -26.514  0.00  0.00    +0.098 C 
ATOM     15  C   UNL     1      34.960 -15.806 -22.647  0.00  0.00    +0.114 C 
BRANCH  13  17
ATOM     16  N   UNL     1      34.892 -19.259 -23.769  0.00  0.00    -0.195 NA
ATOM     17  C   UNL     1      34.754 -18.098 -23.724  0.00  0.00    +0.086 C 
ENDBRANCH  13  17
ENDBRANCH   1  10
BRANCH   2  19
ATOM     18  O   UNL     1      31.860 -12.238 -20.749  0.00  0.00    -0.275 OA
ATOM     19  N   UNL     1      32.058 -10.091 -21.707  0.00  0.00    -0.259 N 
ATOM     20  C   UNL     1      31.639 -11.026 -20.699  0.00  0.00    +0.230 C 
ATOM     21  C   UNL     1      30.915 -10.490 -19.485  0.00  0.00    +0.095 C 
BRANCH  19  22
ATOM     22  C   UNL     1      31.721  -8.646 -21.516  0.00  0.00    +0.098 C 
ATOM     23  C   UNL     1      32.774  -7.974 -20.656  0.00  0.00    +0.024 C 
ENDBRANCH  19  22
ENDBRANCH   2  19
TORSDOF 4
ENDMDL
MODEL 7
REMARK VINA RESULT:      -9.1      1.678      2.628
REMARK  Name = 5719
REMARK  4 active torsions:
REMARK  status: ('A' for Active; 'I' for Inactive)
REMARK    1  A    between atoms: C_1  and  C_10
REMARK    2  A    between atoms: C_2  and  N_19
REMARK    3  A    between atoms: C_13  and  C_17
REMARK    4  A    between atoms: N_19  and  C_22
REMARK                            x       y       z     vdW  Elec       q    Type
REMARK                         _______ _______ _______ _____ _____    ______ ____
ROOT
ATOM      1  C   UNL     1      34.395 -18.732 -22.379  0.00  0.00    +0.003 C 
ATOM      2  C   UNL     1      34.387 -16.460 -23.206  0.00  0.00    +0.054 C 
ATOM      3  C   UNL     1      34.212 -17.366 -22.159  0.00  0.00    +0.013 C 
ATOM      4  C   UNL     1      34.754 -19.191 -23.646  0.00  0.00    -0.002 C 
ATOM      5  C   UNL     1      34.746 -16.921 -24.473  0.00  0.00    +0.015 C 
ATOM      6  C   UNL     1      34.929 -18.285 -24.693  0.00  0.00    +0.001 C 
ENDROOT
BRANCH   1  10
ATOM      7  N   UNL     1      35.286 -20.098 -20.464  0.00  0.00    -0.191 N 
ATOM      8  N   UNL     1      36.596 -19.731 -20.560  0.00  0.00    -0.178 NA
ATOM      9  N   UNL     1      33.869 -21.513 -19.121  0.00  0.00    -0.231 NA
ATOM     10  C   UNL     1      34.212 -19.689 -21.273  0.00  0.00    +0.143 C 
ATOM     11  C   UNL     1      35.096 -20.996 -19.409  0.00  0.00    +0.148 C 
ATOM     12  C   UNL     1      32.985 -20.174 -21.022  0.00  0.00    +0.020 C 
ATOM     13  C   UNL     1      36.329 -21.186 -18.828  0.00  0.00    +0.189 C 
ATOM     14  C   UNL     1      32.896 -21.120 -19.883  0.00  0.00    +0.098 C 
ATOM     15  C   UNL     1      37.204 -20.387 -19.574  0.00  0.00    +0.114 C 
BRANCH  13  17
ATOM     16  N   UNL     1      36.866 -22.704 -16.799  0.00  0.00    -0.195 NA
ATOM     17  C   UNL     1      36.623 -22.018 -17.715  0.00  0.00    +0.086 C 
ENDBRANCH  13  17
ENDBRANCH   1  10
BRANCH   2  19
ATOM     18  O   UNL     1      33.295 -14.559 -25.096  0.00  0.00    -0.275 OA
ATOM     19  N   UNL     1      34.205 -15.095 -22.985  0.00  0.00    -0.259 N 
ATOM     20  C   UNL     1      33.619 -14.213 -23.959  0.00  0.00    +0.230 C 
ATOM     21  C   UNL     1      33.350 -12.781 -23.552  0.00  0.00    +0.095 C 
BRANCH  19  22
ATOM     22  C   UNL     1      34.548 -14.538 -21.641  0.00  0.00    +0.098 C 
ATOM     23  C   UNL     1      33.335 -14.579 -20.733  0.00  0.00    +0.024 C 
ENDBRANCH  19  22
ENDBRANCH   2  19
TORSDOF 4
ENDMDL
MODEL 8
REMARK VINA RESULT:      -9.1      1.823      6.654
REMARK  Name = 5719
REMARK  4 active torsions:
REMARK  status: ('A' for Active; 'I' for Inactive)
REMARK    1  A    between atoms: C_1  and  C_10
REMARK    2  A    between atoms: C_2  and  N_19
REMARK    3  A    between atoms: C_13  and  C_17
REMARK    4  A    between atoms: N_19  and  C_22
REMARK                            x       y       z     vdW  Elec       q    Type
REMARK                         _______ _______ _______ _____ _____    ______ ____
ROOT
ATOM      1  C   UNL     1      34.207 -16.876 -23.350  0.00  0.00    +0.003 C 
ATOM      2  C   UNL     1      34.589 -19.021 -22.304  0.00  0.00    +0.054 C 
ATOM      3  C   UNL     1      34.217 -17.680 -22.209  0.00  0.00    +0.013 C 
ATOM      4  C   UNL     1      34.569 -17.414 -24.585  0.00  0.00    -0.002 C 
ATOM      5  C   UNL     1      34.951 -19.559 -23.539  0.00  0.00    +0.015 C 
ATOM      6  C   UNL     1      34.942 -18.756 -24.679  0.00  0.00    +0.001 C 
ENDROOT
BRANCH   1  10
ATOM      7  N   UNL     1      33.235 -14.932 -22.083  0.00  0.00    -0.191 N 
ATOM      8  N   UNL     1      32.933 -15.589 -20.927  0.00  0.00    -0.178 NA
ATOM      9  N   UNL     1      33.073 -12.724 -23.036  0.00  0.00    -0.231 NA
ATOM     10  C   UNL     1      33.813 -15.459 -23.251  0.00  0.00    +0.143 C 
ATOM     11  C   UNL     1      32.877 -13.583 -21.998  0.00  0.00    +0.148 C 
ATOM     12  C   UNL     1      34.024 -14.645 -24.298  0.00  0.00    +0.020 C 
ATOM     13  C   UNL     1      32.344 -13.397 -20.743  0.00  0.00    +0.189 C 
ATOM     14  C   UNL     1      33.608 -13.234 -24.101  0.00  0.00    +0.098 C 
ATOM     15  C   UNL     1      32.405 -14.657 -20.136  0.00  0.00    +0.114 C 
BRANCH  13  17
ATOM     16  N   UNL     1      31.435 -11.178 -19.763  0.00  0.00    -0.195 NA
ATOM     17  C   UNL     1      31.845 -12.180 -20.205  0.00  0.00    +0.086 C 
ENDBRANCH  13  17
ENDBRANCH   1  10
BRANCH   2  19
ATOM     18  O   UNL     1      32.266 -20.151 -20.995  0.00  0.00    -0.275 OA
ATOM     19  N   UNL     1      34.598 -19.825 -21.164  0.00  0.00    -0.259 N 
ATOM     20  C   UNL     1      33.405 -20.386 -20.587  0.00  0.00    +0.230 C 
ATOM     21  C   UNL     1      33.557 -21.351 -19.433  0.00  0.00    +0.095 C 
BRANCH  19  22
ATOM     22  C   UNL     1      35.917 -20.199 -20.565  0.00  0.00    +0.098 C 
ATOM     23  C   UNL     1      36.945 -19.123 -20.855  0.00  0.00    +0.024 C 
ENDBRANCH  19  22
ENDBRANCH   2  19
TORSDOF 4
ENDMDL
MODEL 9
REMARK VINA RESULT:      -9.0      2.155      6.724
REMARK  Name = 5719
REMARK  4 active torsions:
REMARK  status: ('A' for Active; 'I' for Inactive)
REMARK    1  A    between atoms: C_1  and  C_10
REMARK    2  A    between atoms: C_2  and  N_19
REMARK    3  A    between atoms: C_13  and  C_17
REMARK    4  A    between atoms: N_19  and  C_22
REMARK                            x       y       z     vdW  Elec       q    Type
REMARK                         _______ _______ _______ _____ _____    ______ ____
ROOT
ATOM      1  C   UNL     1      34.238 -16.850 -23.477  0.00  0.00    +0.003 C 
ATOM      2  C   UNL     1      34.901 -18.954 -22.488  0.00  0.00    +0.054 C 
ATOM      3  C   UNL     1      34.530 -17.616 -22.347  0.00  0.00    +0.013 C 
ATOM      4  C   UNL     1      34.319 -17.422 -24.747  0.00  0.00    -0.002 C 
ATOM      5  C   UNL     1      34.982 -19.525 -23.758  0.00  0.00    +0.015 C 
ATOM      6  C   UNL     1      34.692 -18.759 -24.887  0.00  0.00    +0.001 C 
ENDROOT
BRANCH   1  10
ATOM      7  N   UNL     1      33.261 -14.953 -22.146  0.00  0.00    -0.191 N 
ATOM      8  N   UNL     1      32.954 -15.650 -21.015  0.00  0.00    -0.178 NA
ATOM      9  N   UNL     1      33.103 -12.711 -23.020  0.00  0.00    -0.231 NA
ATOM     10  C   UNL     1      33.844 -15.438 -23.329  0.00  0.00    +0.143 C 
ATOM     11  C   UNL     1      32.903 -13.607 -22.014  0.00  0.00    +0.148 C 
ATOM     12  C   UNL     1      34.059 -14.586 -24.345  0.00  0.00    +0.020 C 
ATOM     13  C   UNL     1      32.364 -13.466 -20.755  0.00  0.00    +0.189 C 
ATOM     14  C   UNL     1      33.643 -13.184 -24.100  0.00  0.00    +0.098 C 
ATOM     15  C   UNL     1      32.423 -14.747 -20.193  0.00  0.00    +0.114 C 
BRANCH  13  17
ATOM     16  N   UNL     1      31.451 -11.284 -19.700  0.00  0.00    -0.195 NA
ATOM     17  C   UNL     1      31.863 -12.269 -20.176  0.00  0.00    +0.086 C 
ENDBRANCH  13  17
ENDBRANCH   1  10
BRANCH   2  19
ATOM     18  O   UNL     1      37.456 -19.094 -21.131  0.00  0.00    -0.275 OA
ATOM     19  N   UNL     1      35.191 -19.720 -21.359  0.00  0.00    -0.259 N 
ATOM     20  C   UNL     1      36.475 -19.713 -20.712  0.00  0.00    +0.230 C 
ATOM     21  C   UNL     1      36.626 -20.481 -19.417  0.00  0.00    +0.095 C 
BRANCH  19  22
ATOM     22  C   UNL     1      34.089 -20.516 -20.735  0.00  0.00    +0.098 C 
ATOM     23  C   UNL     1      32.822 -19.686 -20.662  0.00  0.00    +0.024 C 
ENDBRANCH  19  22
ENDBRANCH   2  19
TORSDOF 4
ENDMDL
