MODEL 1
REMARK VINA RESULT:      -7.9      0.000      0.000
REMARK  Name = 3169
REMARK  6 active torsions:
REMARK  status: ('A' for Active; 'I' for Inactive)
REMARK    1  A    between atoms: N_1  and  C_14
REMARK    2  A    between atoms: N_2  and  C_8
REMARK    3  A    between atoms: C_14  and  C_15
REMARK    4  A    between atoms: C_15  and  O_16
REMARK    5  A    between atoms: C_15  and  C_18
REMARK    6  A    between atoms: C_18  and  O_19
REMARK                            x       y       z     vdW  Elec       q    Type
REMARK                         _______ _______ _______ _____ _____    ______ ____
ROOT
ATOM      1  N   UNL     1      34.339 -16.603 -23.269  0.00  0.00    +0.391 N 
ATOM      2  N   UNL     1      34.616 -18.829 -21.499  0.00  0.00    -0.312 N 
ATOM      3  C   UNL     1      34.494 -16.390 -21.825  0.00  0.00    -0.055 C 
ATOM      4  C   UNL     1      35.098 -17.790 -23.682  0.00  0.00    -0.055 C 
ATOM      5  C   UNL     1      33.979 -17.594 -21.032  0.00  0.00    +0.068 C 
ATOM      6  C   UNL     1      34.601 -19.041 -22.952  0.00  0.00    +0.068 C 
ATOM      7  H   UNL     1      33.352 -16.754 -23.475  0.00  0.00    -0.079 HD
ENDROOT
BRANCH   2   8
ATOM      8  C   UNL     1      34.636 -19.956 -20.671  0.00  0.00    +0.048 C 
ATOM      9  C   UNL     1      35.854 -20.543 -20.274  0.00  0.00    +0.015 C 
ATOM     10  C   UNL     1      33.440 -20.538 -20.207  0.00  0.00    +0.015 C 
ATOM     11  C   UNL     1      35.875 -21.666 -19.446  0.00  0.00    +0.001 C 
ATOM     12  C   UNL     1      33.460 -21.660 -19.380  0.00  0.00    +0.001 C 
ATOM     13  C   UNL     1      34.677 -22.225 -18.999  0.00  0.00    +0.000 C 
ENDBRANCH   2   8
BRANCH   1  14
ATOM     14  C   UNL     1      34.785 -15.425 -24.011  0.00  0.00    -0.045 C 
BRANCH  14  15
ATOM     15  C   UNL     1      33.643 -14.440 -24.266  0.00  0.00    +0.119 C 
BRANCH  15  16
ATOM     16  O   UNL     1      34.127 -13.119 -24.008  0.00  0.00    -0.384 OA
ATOM     17  H   UNL     1      33.378 -12.528 -23.834  0.00  0.00    +0.210 HD
ENDBRANCH  15  16
BRANCH  15  18
ATOM     18  C   UNL     1      33.109 -14.490 -25.696  0.00  0.00    +0.164 C 
BRANCH  18  19
ATOM     19  O   UNL     1      33.635 -15.646 -26.342  0.00  0.00    -0.380 OA
ATOM     20  H   UNL     1      34.179 -15.374 -27.098  0.00  0.00    +0.211 HD
ENDBRANCH  18  19
ENDBRANCH  15  18
ENDBRANCH  14  15
ENDBRANCH   1  14
TORSDOF 6
ENDMDL
MODEL 2
REMARK VINA RESULT:      -7.8      0.680      1.328
REMARK  Name = 3169
REMARK  6 active torsions:
REMARK  status: ('A' for Active; 'I' for Inactive)
REMARK    1  A    between atoms: N_1  and  C_14
REMARK    2  A    between atoms: N_2  and  C_8
REMARK    3  A    between atoms: C_14  and  C_15
REMARK    4  A    between atoms: C_15  and  O_16
REMARK    5  A    between atoms: C_15  and  C_18
REMARK    6  A    between atoms: C_18  and  O_19
REMARK                            x       y       z     vdW  Elec       q    Type
REMARK                         _______ _______ _______ _____ _____    ______ ____
ROOT
ATOM      1  N   UNL     1      35.262 -16.525 -23.256  0.00  0.00    +0.391 N 
ATOM      2  N   UNL     1      34.755 -18.788 -21.588  0.00  0.00    -0.312 N 
ATOM      3  C   UNL     1      34.583 -17.709 -23.795  0.00  0.00    -0.055 C 
ATOM      4  C   UNL     1      34.900 -16.341 -21.845  0.00  0.00    -0.055 C 
ATOM      5  C   UNL     1      34.979 -18.971 -23.025  0.00  0.00    +0.068 C 
ATOM      6  C   UNL     1      35.308 -17.558 -21.010  0.00  0.00    +0.068 C 
ATOM      7  H   UNL     1      36.271 -16.666 -23.322  0.00  0.00    -0.079 HD
ENDROOT
BRANCH   2   8
ATOM      8  C   UNL     1      34.632 -19.907 -20.757  0.00  0.00    +0.048 C 
ATOM      9  C   UNL     1      35.770 -20.602 -20.303  0.00  0.00    +0.015 C 
ATOM     10  C   UNL     1      33.366 -20.373 -20.348  0.00  0.00    +0.015 C 
ATOM     11  C   UNL     1      35.648 -21.716 -19.473  0.00  0.00    +0.001 C 
ATOM     12  C   UNL     1      33.244 -21.486 -19.519  0.00  0.00    +0.001 C 
ATOM     13  C   UNL     1      34.384 -22.159 -19.081  0.00  0.00    +0.000 C 
ENDBRANCH   2   8
BRANCH   1  14
ATOM     14  C   UNL     1      34.917 -15.336 -24.033  0.00  0.00    -0.045 C 
BRANCH  14  15
ATOM     15  C   UNL     1      33.410 -15.222 -24.272  0.00  0.00    +0.119 C 
BRANCH  15  16
ATOM     16  O   UNL     1      32.878 -14.286 -23.330  0.00  0.00    -0.384 OA
ATOM     17  H   UNL     1      33.260 -13.411 -23.494  0.00  0.00    +0.210 HD
ENDBRANCH  15  16
BRANCH  15  18
ATOM     18  C   UNL     1      33.055 -14.749 -25.680  0.00  0.00    +0.164 C 
BRANCH  18  19
ATOM     19  O   UNL     1      33.428 -15.759 -26.612  0.00  0.00    -0.380 OA
ATOM     20  H   UNL     1      32.775 -16.475 -26.591  0.00  0.00    +0.211 HD
ENDBRANCH  18  19
ENDBRANCH  15  18
ENDBRANCH  14  15
ENDBRANCH   1  14
TORSDOF 6
ENDMDL
MODEL 3
REMARK VINA RESULT:      -7.6      4.274      7.399
REMARK  Name = 3169
REMARK  6 active torsions:
REMARK  status: ('A' for Active; 'I' for Inactive)
REMARK    1  A    between atoms: N_1  and  C_14
REMARK    2  A    between atoms: N_2  and  C_8
REMARK    3  A    between atoms: C_14  and  C_15
REMARK    4  A    between atoms: C_15  and  O_16
REMARK    5  A    between atoms: C_15  and  C_18
REMARK    6  A    between atoms: C_18  and  O_19
REMARK                            x       y       z     vdW  Elec       q    Type
REMARK                         _______ _______ _______ _____ _____    ______ ____
ROOT
ATOM      1  N   UNL     1      35.042 -20.827 -19.409  0.00  0.00    +0.391 N 
ATOM      2  N   UNL     1      34.881 -19.207 -21.756  0.00  0.00    -0.312 N 
ATOM      3  C   UNL     1      33.823 -20.822 -20.227  0.00  0.00    -0.055 C 
ATOM      4  C   UNL     1      36.220 -20.644 -20.266  0.00  0.00    -0.055 C 
ATOM      5  C   UNL     1      33.671 -19.499 -20.982  0.00  0.00    +0.068 C 
ATOM      6  C   UNL     1      36.147 -19.314 -21.021  0.00  0.00    +0.068 C 
ATOM      7  H   UNL     1      34.995 -20.055 -18.744  0.00  0.00    -0.079 HD
ENDROOT
BRANCH   2   8
ATOM      8  C   UNL     1      34.819 -18.312 -22.830  0.00  0.00    +0.048 C 
ATOM      9  C   UNL     1      35.007 -16.930 -22.635  0.00  0.00    +0.015 C 
ATOM     10  C   UNL     1      34.567 -18.767 -24.140  0.00  0.00    +0.015 C 
ATOM     11  C   UNL     1      34.947 -16.038 -23.706  0.00  0.00    +0.001 C 
ATOM     12  C   UNL     1      34.507 -17.876 -25.211  0.00  0.00    +0.001 C 
ATOM     13  C   UNL     1      34.696 -16.511 -24.995  0.00  0.00    +0.000 C 
ENDBRANCH   2   8
BRANCH   1  14
ATOM     14  C   UNL     1      35.146 -22.074 -18.653  0.00  0.00    -0.045 C 
BRANCH  14  15
ATOM     15  C   UNL     1      33.820 -22.837 -18.614  0.00  0.00    +0.119 C 
BRANCH  15  16
ATOM     16  O   UNL     1      33.960 -24.014 -19.415  0.00  0.00    -0.384 OA
ATOM     17  H   UNL     1      33.828 -24.799 -18.861  0.00  0.00    +0.210 HD
ENDBRANCH  15  16
BRANCH  15  18
ATOM     18  C   UNL     1      33.404 -23.254 -17.206  0.00  0.00    +0.164 C 
BRANCH  18  19
ATOM     19  O   UNL     1      34.526 -23.834 -16.547  0.00  0.00    -0.380 OA
ATOM     20  H   UNL     1      35.324 -23.685 -17.077  0.00  0.00    +0.211 HD
ENDBRANCH  18  19
ENDBRANCH  15  18
ENDBRANCH  14  15
ENDBRANCH   1  14
TORSDOF 6
ENDMDL
MODEL 4
REMARK VINA RESULT:      -7.5      1.367      2.427
REMARK  Name = 3169
REMARK  6 active torsions:
REMARK  status: ('A' for Active; 'I' for Inactive)
REMARK    1  A    between atoms: N_1  and  C_14
REMARK    2  A    between atoms: N_2  and  C_8
REMARK    3  A    between atoms: C_14  and  C_15
REMARK    4  A    between atoms: C_15  and  O_16
REMARK    5  A    between atoms: C_15  and  C_18
REMARK    6  A    between atoms: C_18  and  O_19
REMARK                            x       y       z     vdW  Elec       q    Type
REMARK                         _______ _______ _______ _____ _____    ______ ____
ROOT
ATOM      1  N   UNL     1      34.791 -15.813 -23.289  0.00  0.00    +0.391 N 
ATOM      2  N   UNL     1      34.849 -18.220 -21.752  0.00  0.00    -0.312 N 
ATOM      3  C   UNL     1      34.560 -17.112 -23.932  0.00  0.00    -0.055 C 
ATOM      4  C   UNL     1      34.259 -15.832 -21.920  0.00  0.00    -0.055 C 
ATOM      5  C   UNL     1      35.251 -18.239 -23.161  0.00  0.00    +0.068 C 
ATOM      6  C   UNL     1      34.942 -16.917 -21.082  0.00  0.00    +0.068 C 
ATOM      7  H   UNL     1      35.795 -15.638 -23.250  0.00  0.00    -0.079 HD
ENDROOT
BRANCH   2   8
ATOM      8  C   UNL     1      34.998 -19.372 -20.972  0.00  0.00    +0.048 C 
ATOM      9  C   UNL     1      33.875 -20.098 -20.527  0.00  0.00    +0.015 C 
ATOM     10  C   UNL     1      36.276 -19.842 -20.608  0.00  0.00    +0.015 C 
ATOM     11  C   UNL     1      34.024 -21.247 -19.751  0.00  0.00    +0.001 C 
ATOM     12  C   UNL     1      36.424 -20.991 -19.832  0.00  0.00    +0.001 C 
ATOM     13  C   UNL     1      35.299 -21.694 -19.403  0.00  0.00    +0.000 C 
ENDBRANCH   2   8
BRANCH   1  14
ATOM     14  C   UNL     1      34.171 -14.739 -24.064  0.00  0.00    -0.045 C 
BRANCH  14  15
ATOM     15  C   UNL     1      33.802 -13.537 -23.191  0.00  0.00    +0.119 C 
BRANCH  15  16
ATOM     16  O   UNL     1      34.335 -12.360 -23.804  0.00  0.00    -0.384 OA
ATOM     17  H   UNL     1      34.336 -11.633 -23.162  0.00  0.00    +0.210 HD
ENDBRANCH  15  16
BRANCH  15  18
ATOM     18  C   UNL     1      32.296 -13.357 -23.017  0.00  0.00    +0.164 C 
BRANCH  18  19
ATOM     19  O   UNL     1      32.030 -12.987 -21.667  0.00  0.00    -0.380 OA
ATOM     20  H   UNL     1      32.701 -13.379 -21.087  0.00  0.00    +0.211 HD
ENDBRANCH  18  19
ENDBRANCH  15  18
ENDBRANCH  14  15
ENDBRANCH   1  14
TORSDOF 6
ENDMDL
MODEL 5
REMARK VINA RESULT:      -7.5      7.295     10.510
REMARK  Name = 3169
REMARK  6 active torsions:
REMARK  status: ('A' for Active; 'I' for Inactive)
REMARK    1  A    between atoms: N_1  and  C_14
REMARK    2  A    between atoms: N_2  and  C_8
REMARK    3  A    between atoms: C_14  and  C_15
REMARK    4  A    between atoms: C_15  and  O_16
REMARK    5  A    between atoms: C_15  and  C_18
REMARK    6  A    between atoms: C_18  and  O_19
REMARK                            x       y       z     vdW  Elec       q    Type
REMARK                         _______ _______ _______ _____ _____    ______ ____
ROOT
ATOM      1  N   UNL     1      36.590 -23.610 -14.564  0.00  0.00    +0.391 N 
ATOM      2  N   UNL     1      35.812 -22.538 -17.095  0.00  0.00    -0.312 N 
ATOM      3  C   UNL     1      35.421 -24.146 -15.271  0.00  0.00    -0.055 C 
ATOM      4  C   UNL     1      37.607 -23.182 -15.533  0.00  0.00    -0.055 C 
ATOM      5  C   UNL     1      34.800 -23.091 -16.190  0.00  0.00    +0.068 C 
ATOM      6  C   UNL     1      37.058 -22.094 -16.459  0.00  0.00    +0.068 C 
ATOM      7  H   UNL     1      36.299 -22.802 -14.013  0.00  0.00    -0.079 HD
ENDROOT
BRANCH   2   8
ATOM      8  C   UNL     1      35.413 -21.902 -18.276  0.00  0.00    +0.048 C 
ATOM      9  C   UNL     1      34.065 -21.912 -18.685  0.00  0.00    +0.015 C 
ATOM     10  C   UNL     1      36.348 -21.232 -19.091  0.00  0.00    +0.015 C 
ATOM     11  C   UNL     1      33.667 -21.276 -19.862  0.00  0.00    +0.001 C 
ATOM     12  C   UNL     1      35.950 -20.597 -20.266  0.00  0.00    +0.001 C 
ATOM     13  C   UNL     1      34.610 -20.619 -20.653  0.00  0.00    +0.000 C 
ENDBRANCH   2   8
BRANCH   1  14
ATOM     14  C   UNL     1      37.140 -24.610 -13.650  0.00  0.00    -0.045 C 
BRANCH  14  15
ATOM     15  C   UNL     1      36.436 -24.598 -12.292  0.00  0.00    +0.119 C 
BRANCH  15  16
ATOM     16  O   UNL     1      36.754 -25.817 -11.613  0.00  0.00    -0.384 OA
ATOM     17  H   UNL     1      37.206 -26.418 -12.225  0.00  0.00    +0.210 HD
ENDBRANCH  15  16
BRANCH  15  18
ATOM     18  C   UNL     1      36.850 -23.426 -11.406  0.00  0.00    +0.164 C 
BRANCH  18  19
ATOM     19  O   UNL     1      38.019 -22.825 -11.956  0.00  0.00    -0.380 OA
ATOM     20  H   UNL     1      37.762 -22.101 -12.548  0.00  0.00    +0.211 HD
ENDBRANCH  18  19
ENDBRANCH  15  18
ENDBRANCH  14  15
ENDBRANCH   1  14
TORSDOF 6
ENDMDL
MODEL 6
REMARK VINA RESULT:      -7.5      1.491      2.425
REMARK  Name = 3169
REMARK  6 active torsions:
REMARK  status: ('A' for Active; 'I' for Inactive)
REMARK    1  A    between atoms: N_1  and  C_14
REMARK    2  A    between atoms: N_2  and  C_8
REMARK    3  A    between atoms: C_14  and  C_15
REMARK    4  A    between atoms: C_15  and  O_16
REMARK    5  A    between atoms: C_15  and  C_18
REMARK    6  A    between atoms: C_18  and  O_19
REMARK                            x       y       z     vdW  Elec       q    Type
REMARK                         _______ _______ _______ _____ _____    ______ ____
ROOT
ATOM      1  N   UNL     1      33.870 -14.874 -23.665  0.00  0.00    +0.391 N 
ATOM      2  N   UNL     1      34.425 -17.300 -22.264  0.00  0.00    -0.312 N 
ATOM      3  C   UNL     1      34.106 -16.121 -24.403  0.00  0.00    -0.055 C 
ATOM      4  C   UNL     1      33.199 -15.165 -22.392  0.00  0.00    -0.055 C 
ATOM      5  C   UNL     1      34.989 -17.078 -23.599  0.00  0.00    +0.068 C 
ATOM      6  C   UNL     1      34.054 -16.090 -21.521  0.00  0.00    +0.068 C 
ATOM      7  H   UNL     1      34.769 -14.431 -23.471  0.00  0.00    -0.079 HD
ENDROOT
BRANCH   2   8
ATOM      8  C   UNL     1      34.800 -18.432 -21.531  0.00  0.00    +0.048 C 
ATOM      9  C   UNL     1      36.154 -18.693 -21.242  0.00  0.00    +0.015 C 
ATOM     10  C   UNL     1      33.835 -19.344 -21.060  0.00  0.00    +0.015 C 
ATOM     11  C   UNL     1      36.528 -19.820 -20.510  0.00  0.00    +0.001 C 
ATOM     12  C   UNL     1      34.209 -20.471 -20.328  0.00  0.00    +0.001 C 
ATOM     13  C   UNL     1      35.555 -20.710 -20.053  0.00  0.00    +0.000 C 
ENDBRANCH   2   8
BRANCH   1  14
ATOM     14  C   UNL     1      33.071 -13.948 -24.466  0.00  0.00    -0.045 C 
BRANCH  14  15
ATOM     15  C   UNL     1      33.244 -14.187 -25.968  0.00  0.00    +0.119 C 
BRANCH  15  16
ATOM     16  O   UNL     1      32.000 -14.662 -26.490  0.00  0.00    -0.384 OA
ATOM     17  H   UNL     1      31.279 -14.400 -25.897  0.00  0.00    +0.210 HD
ENDBRANCH  15  16
BRANCH  15  18
ATOM     18  C   UNL     1      33.647 -12.932 -26.737  0.00  0.00    +0.164 C 
BRANCH  18  19
ATOM     19  O   UNL     1      34.185 -13.318 -27.998  0.00  0.00    -0.380 OA
ATOM     20  H   UNL     1      34.288 -12.534 -28.559  0.00  0.00    +0.211 HD
ENDBRANCH  18  19
ENDBRANCH  15  18
ENDBRANCH  14  15
ENDBRANCH   1  14
TORSDOF 6
ENDMDL
MODEL 7
REMARK VINA RESULT:      -7.4      4.090      7.297
REMARK  Name = 3169
REMARK  6 active torsions:
REMARK  status: ('A' for Active; 'I' for Inactive)
REMARK    1  A    between atoms: N_1  and  C_14
REMARK    2  A    between atoms: N_2  and  C_8
REMARK    3  A    between atoms: C_14  and  C_15
REMARK    4  A    between atoms: C_15  and  O_16
REMARK    5  A    between atoms: C_15  and  C_18
REMARK    6  A    between atoms: C_18  and  O_19
REMARK                            x       y       z     vdW  Elec       q    Type
REMARK                         _______ _______ _______ _____ _____    ______ ____
ROOT
ATOM      1  N   UNL     1      35.328 -21.006 -20.355  0.00  0.00    +0.391 N 
ATOM      2  N   UNL     1      34.971 -18.274 -21.112  0.00  0.00    -0.312 N 
ATOM      3  C   UNL     1      36.391 -20.023 -20.115  0.00  0.00    -0.055 C 
ATOM      4  C   UNL     1      34.014 -20.364 -20.220  0.00  0.00    -0.055 C 
ATOM      5  C   UNL     1      36.311 -18.868 -21.117  0.00  0.00    +0.068 C 
ATOM      6  C   UNL     1      33.855 -19.222 -21.227  0.00  0.00    +0.068 C 
ATOM      7  H   UNL     1      35.422 -21.367 -21.305  0.00  0.00    -0.079 HD
ENDROOT
BRANCH   2   8
ATOM      8  C   UNL     1      34.785 -16.977 -21.602  0.00  0.00    +0.048 C 
ATOM      9  C   UNL     1      34.513 -15.904 -20.730  0.00  0.00    +0.015 C 
ATOM     10  C   UNL     1      34.864 -16.704 -22.982  0.00  0.00    +0.015 C 
ATOM     11  C   UNL     1      34.329 -14.610 -21.219  0.00  0.00    +0.001 C 
ATOM     12  C   UNL     1      34.681 -15.411 -23.470  0.00  0.00    +0.001 C 
ATOM     13  C   UNL     1      34.413 -14.364 -22.589  0.00  0.00    +0.000 C 
ENDBRANCH   2   8
BRANCH   1  14
ATOM     14  C   UNL     1      35.448 -22.128 -19.427  0.00  0.00    -0.045 C 
BRANCH  14  15
ATOM     15  C   UNL     1      34.088 -22.744 -19.088  0.00  0.00    +0.119 C 
BRANCH  15  16
ATOM     16  O   UNL     1      33.977 -23.990 -19.783  0.00  0.00    -0.384 OA
ATOM     17  H   UNL     1      33.465 -23.862 -20.596  0.00  0.00    +0.210 HD
ENDBRANCH  15  16
BRANCH  15  18
ATOM     18  C   UNL     1      33.896 -23.001 -17.596  0.00  0.00    +0.164 C 
BRANCH  18  19
ATOM     19  O   UNL     1      35.163 -22.923 -16.949  0.00  0.00    -0.380 OA
ATOM     20  H   UNL     1      35.849 -23.273 -17.538  0.00  0.00    +0.211 HD
ENDBRANCH  18  19
ENDBRANCH  15  18
ENDBRANCH  14  15
ENDBRANCH   1  14
TORSDOF 6
ENDMDL
MODEL 8
REMARK VINA RESULT:      -7.3      6.311      9.447
REMARK  Name = 3169
REMARK  6 active torsions:
REMARK  status: ('A' for Active; 'I' for Inactive)
REMARK    1  A    between atoms: N_1  and  C_14
REMARK    2  A    between atoms: N_2  and  C_8
REMARK    3  A    between atoms: C_14  and  C_15
REMARK    4  A    between atoms: C_15  and  O_16
REMARK    5  A    between atoms: C_15  and  C_18
REMARK    6  A    between atoms: C_18  and  O_19
REMARK                            x       y       z     vdW  Elec       q    Type
REMARK                         _______ _______ _______ _____ _____    ______ ____
ROOT
ATOM      1  N   UNL     1      35.626 -23.558 -16.132  0.00  0.00    +0.391 N 
ATOM      2  N   UNL     1      34.933 -21.826 -18.295  0.00  0.00    -0.312 N 
ATOM      3  C   UNL     1      36.452 -22.385 -16.438  0.00  0.00    -0.055 C 
ATOM      4  C   UNL     1      34.217 -23.269 -16.429  0.00  0.00    -0.055 C 
ATOM      5  C   UNL     1      36.338 -22.001 -17.916  0.00  0.00    +0.068 C 
ATOM      6  C   UNL     1      34.030 -22.916 -17.907  0.00  0.00    +0.068 C 
ATOM      7  H   UNL     1      35.932 -24.338 -16.715  0.00  0.00    -0.079 HD
ENDROOT
BRANCH   2   8
ATOM      8  C   UNL     1      34.609 -21.077 -19.432  0.00  0.00    +0.048 C 
ATOM      9  C   UNL     1      35.617 -20.540 -20.258  0.00  0.00    +0.015 C 
ATOM     10  C   UNL     1      33.266 -20.838 -19.786  0.00  0.00    +0.015 C 
ATOM     11  C   UNL     1      35.294 -19.795 -21.392  0.00  0.00    +0.001 C 
ATOM     12  C   UNL     1      32.944 -20.093 -20.919  0.00  0.00    +0.001 C 
ATOM     13  C   UNL     1      33.957 -19.571 -21.723  0.00  0.00    +0.000 C 
ENDBRANCH   2   8
BRANCH   1  14
ATOM     14  C   UNL     1      35.785 -23.946 -14.732  0.00  0.00    -0.045 C 
BRANCH  14  15
ATOM     15  C   UNL     1      36.478 -25.303 -14.585  0.00  0.00    +0.119 C 
BRANCH  15  16
ATOM     16  O   UNL     1      36.091 -26.123 -15.692  0.00  0.00    -0.384 OA
ATOM     17  H   UNL     1      36.567 -25.839 -16.487  0.00  0.00    +0.210 HD
ENDBRANCH  15  16
BRANCH  15  18
ATOM     18  C   UNL     1      38.001 -25.204 -14.563  0.00  0.00    +0.164 C 
BRANCH  18  19
ATOM     19  O   UNL     1      38.539 -26.191 -15.439  0.00  0.00    -0.380 OA
ATOM     20  H   UNL     1      37.877 -26.883 -15.591  0.00  0.00    +0.211 HD
ENDBRANCH  18  19
ENDBRANCH  15  18
ENDBRANCH  14  15
ENDBRANCH   1  14
TORSDOF 6
ENDMDL
MODEL 9
REMARK VINA RESULT:      -7.2      4.724      9.337
REMARK  Name = 3169
REMARK  6 active torsions:
REMARK  status: ('A' for Active; 'I' for Inactive)
REMARK    1  A    between atoms: N_1  and  C_14
REMARK    2  A    between atoms: N_2  and  C_8
REMARK    3  A    between atoms: C_14  and  C_15
REMARK    4  A    between atoms: C_15  and  O_16
REMARK    5  A    between atoms: C_15  and  C_18
REMARK    6  A    between atoms: C_18  and  O_19
REMARK                            x       y       z     vdW  Elec       q    Type
REMARK                         _______ _______ _______ _____ _____    ______ ____
ROOT
ATOM      1  N   UNL     1      32.681 -13.605 -22.756  0.00  0.00    +0.391 N 
ATOM      2  N   UNL     1      33.023 -10.807 -23.223  0.00  0.00    -0.312 N 
ATOM      3  C   UNL     1      33.882 -13.106 -23.436  0.00  0.00    -0.055 C 
ATOM      4  C   UNL     1      32.227 -12.626 -21.761  0.00  0.00    -0.055 C 
ATOM      5  C   UNL     1      33.601 -11.783 -24.152  0.00  0.00    +0.068 C 
ATOM      6  C   UNL     1      31.890 -11.287 -22.422  0.00  0.00    +0.068 C 
ATOM      7  H   UNL     1      31.943 -13.738 -23.448  0.00  0.00    -0.079 HD
ENDROOT
BRANCH   2   8
ATOM      8  C   UNL     1      33.085  -9.442 -23.522  0.00  0.00    +0.048 C 
ATOM      9  C   UNL     1      31.916  -8.657 -23.575  0.00  0.00    +0.015 C 
ATOM     10  C   UNL     1      34.318  -8.810 -23.778  0.00  0.00    +0.015 C 
ATOM     11  C   UNL     1      31.978  -7.295 -23.872  0.00  0.00    +0.001 C 
ATOM     12  C   UNL     1      34.380  -7.449 -24.074  0.00  0.00    +0.001 C 
ATOM     13  C   UNL     1      33.210  -6.691 -24.122  0.00  0.00    +0.000 C 
ENDBRANCH   2   8
BRANCH   1  14
ATOM     14  C   UNL     1      32.949 -14.895 -22.122  0.00  0.00    -0.045 C 
BRANCH  14  15
ATOM     15  C   UNL     1      34.444 -15.117 -21.879  0.00  0.00    +0.119 C 
BRANCH  15  16
ATOM     16  O   UNL     1      34.676 -15.083 -20.467  0.00  0.00    -0.384 OA
ATOM     17  H   UNL     1      33.838 -15.219 -19.999  0.00  0.00    +0.210 HD
ENDBRANCH  15  16
BRANCH  15  18
ATOM     18  C   UNL     1      34.953 -16.449 -22.423  0.00  0.00    +0.164 C 
BRANCH  18  19
ATOM     19  O   UNL     1      35.709 -16.204 -23.606  0.00  0.00    -0.380 OA
ATOM     20  H   UNL     1      36.105 -15.320 -23.558  0.00  0.00    +0.211 HD
ENDBRANCH  18  19
ENDBRANCH  15  18
ENDBRANCH  14  15
ENDBRANCH   1  14
TORSDOF 6
ENDMDL
