MODEL 1
REMARK VINA RESULT:      -9.8      0.000      0.000
REMARK  Name = 121301826
REMARK  4 active torsions:
REMARK  status: ('A' for Active; 'I' for Inactive)
REMARK    1  A    between atoms: N_3  and  O_22
REMARK    2  A    between atoms: C_5  and  C_12
REMARK    3  A    between atoms: N_11  and  C_15
REMARK    4  A    between atoms: O_22  and  S_23
REMARK                            x       y       z     vdW  Elec       q    Type
REMARK                         _______ _______ _______ _____ _____    ______ ____
ROOT
ATOM      1  O   UNL     1      36.803 -27.089 -15.687  0.00  0.00    -0.250 OA
ATOM      2  N   UNL     1      36.098 -24.804 -15.354  0.00  0.00    -0.254 N 
ATOM      3  N   UNL     1      38.150 -25.432 -14.668  0.00  0.00    -0.126 N 
ATOM      4  C   UNL     1      37.857 -24.126 -14.097  0.00  0.00    +0.127 C 
ATOM      5  C   UNL     1      35.049 -24.971 -14.356  0.00  0.00    +0.153 C 
ATOM      6  C   UNL     1      36.928 -23.612 -15.182  0.00  0.00    +0.118 C 
ATOM      7  C   UNL     1      37.018 -24.225 -12.796  0.00  0.00    +0.026 C 
ATOM      8  C   UNL     1      35.686 -25.020 -12.945  0.00  0.00    +0.031 C 
ATOM      9  C   UNL     1      37.032 -25.936 -15.353  0.00  0.00    +0.332 C 
ENDROOT
BRANCH   5  12
ATOM     10  O   UNL     1      34.332 -22.785 -14.989  0.00  0.00    -0.273 OA
ATOM     11  N   UNL     1      32.804 -24.225 -13.984  0.00  0.00    -0.305 N 
ATOM     12  C   UNL     1      34.042 -23.871 -14.493  0.00  0.00    +0.241 C 
ATOM     13  H   UNL     1      32.693 -25.129 -13.609  0.00  0.00    +0.149 HD
BRANCH  11  15
ATOM     14  N   UNL     1      29.527 -24.434 -15.594  0.00  0.00    +0.384 N 
ATOM     15  C   UNL     1      31.668 -23.333 -13.974  0.00  0.00    +0.067 C 
ATOM     16  C   UNL     1      31.367 -22.817 -15.385  0.00  0.00    -0.004 C 
ATOM     17  C   UNL     1      30.439 -24.004 -13.350  0.00  0.00    -0.004 C 
ATOM     18  C   UNL     1      29.808 -25.048 -14.262  0.00  0.00    -0.080 C 
ATOM     19  C   UNL     1      30.735 -23.881 -16.274  0.00  0.00    -0.080 C 
ATOM     20  H   UNL     1      28.857 -23.677 -15.463  0.00  0.00    -0.085 HD
ATOM     21  H   UNL     1      29.166 -25.177 -16.192  0.00  0.00    -0.085 HD
ENDBRANCH  11  15
ENDBRANCH   5  12
BRANCH   3  22
ATOM     22  O   UNL     1      39.067 -26.255 -14.030  0.00  0.00    -0.094 OA
BRANCH  22  23
ATOM     23  S   UNL     1      40.626 -25.970 -14.496  0.00  0.00    +0.258 S 
ATOM     24  O   UNL     1      41.394 -27.020 -13.829  0.00  0.00    -0.114 OA
ATOM     25  O   UNL     1      40.908 -24.622 -14.004  0.00  0.00    -0.114 OA
ATOM     26  O   UNL     1      40.588 -26.077 -15.953  0.00  0.00    -0.020 OA
ENDBRANCH  22  23
ENDBRANCH   3  22
TORSDOF 4
ENDMDL
MODEL 2
REMARK VINA RESULT:      -9.3      4.384      8.067
REMARK  Name = 121301826
REMARK  4 active torsions:
REMARK  status: ('A' for Active; 'I' for Inactive)
REMARK    1  A    between atoms: N_3  and  O_22
REMARK    2  A    between atoms: C_5  and  C_12
REMARK    3  A    between atoms: N_11  and  C_15
REMARK    4  A    between atoms: O_22  and  S_23
REMARK                            x       y       z     vdW  Elec       q    Type
REMARK                         _______ _______ _______ _____ _____    ______ ____
ROOT
ATOM      1  O   UNL     1      30.435 -26.005 -14.641  0.00  0.00    -0.250 OA
ATOM      2  N   UNL     1      31.895 -24.262 -13.831  0.00  0.00    -0.254 N 
ATOM      3  N   UNL     1      30.400 -23.780 -15.445  0.00  0.00    -0.126 N 
ATOM      4  C   UNL     1      31.340 -22.674 -15.348  0.00  0.00    +0.127 C 
ATOM      5  C   UNL     1      33.189 -24.722 -14.321  0.00  0.00    +0.153 C 
ATOM      6  C   UNL     1      31.697 -22.814 -13.879  0.00  0.00    +0.118 C 
ATOM      7  C   UNL     1      32.641 -22.931 -16.154  0.00  0.00    +0.026 C 
ATOM      8  C   UNL     1      33.379 -24.252 -15.785  0.00  0.00    +0.031 C 
ATOM      9  C   UNL     1      30.787 -24.836 -14.604  0.00  0.00    +0.332 C 
ENDROOT
BRANCH   5  12
ATOM     10  O   UNL     1      34.035 -23.784 -12.296  0.00  0.00    -0.273 OA
ATOM     11  N   UNL     1      35.527 -24.323 -13.999  0.00  0.00    -0.305 N 
ATOM     12  C   UNL     1      34.275 -24.230 -13.415  0.00  0.00    +0.241 C 
ATOM     13  H   UNL     1      35.594 -24.700 -14.907  0.00  0.00    +0.149 HD
BRANCH  11  15
ATOM     14  N   UNL     1      38.724 -26.010 -13.436  0.00  0.00    +0.384 N 
ATOM     15  C   UNL     1      36.741 -23.894 -13.343  0.00  0.00    +0.067 C 
ATOM     16  C   UNL     1      37.047 -24.776 -12.129  0.00  0.00    -0.004 C 
ATOM     17  C   UNL     1      37.921 -23.859 -14.321  0.00  0.00    -0.004 C 
ATOM     18  C   UNL     1      38.426 -25.249 -14.686  0.00  0.00    -0.080 C 
ATOM     19  C   UNL     1      37.552 -26.158 -12.523  0.00  0.00    -0.080 C 
ATOM     20  H   UNL     1      39.463 -25.522 -12.932  0.00  0.00    -0.085 HD
ATOM     21  H   UNL     1      38.997 -26.950 -13.720  0.00  0.00    -0.085 HD
ENDBRANCH  11  15
ENDBRANCH   5  12
BRANCH   3  22
ATOM     22  O   UNL     1      29.728 -23.989 -16.641  0.00  0.00    -0.094 OA
BRANCH  22  23
ATOM     23  S   UNL     1      28.232 -23.290 -16.673  0.00  0.00    +0.258 S 
ATOM     24  O   UNL     1      27.495 -24.070 -17.665  0.00  0.00    -0.114 OA
ATOM     25  O   UNL     1      28.489 -21.907 -17.073  0.00  0.00    -0.114 OA
ATOM     26  O   UNL     1      27.743 -23.432 -15.302  0.00  0.00    -0.020 OA
ENDBRANCH  22  23
ENDBRANCH   3  22
TORSDOF 4
ENDMDL
MODEL 3
REMARK VINA RESULT:      -9.3      1.376      2.147
REMARK  Name = 121301826
REMARK  4 active torsions:
REMARK  status: ('A' for Active; 'I' for Inactive)
REMARK    1  A    between atoms: N_3  and  O_22
REMARK    2  A    between atoms: C_5  and  C_12
REMARK    3  A    between atoms: N_11  and  C_15
REMARK    4  A    between atoms: O_22  and  S_23
REMARK                            x       y       z     vdW  Elec       q    Type
REMARK                         _______ _______ _______ _____ _____    ______ ____
ROOT
ATOM      1  O   UNL     1      37.515 -22.265 -14.933  0.00  0.00    -0.250 OA
ATOM      2  N   UNL     1      35.978 -23.612 -13.649  0.00  0.00    -0.254 N 
ATOM      3  N   UNL     1      37.887 -24.540 -14.401  0.00  0.00    -0.126 N 
ATOM      4  C   UNL     1      37.016 -25.606 -13.931  0.00  0.00    +0.127 C 
ATOM      5  C   UNL     1      34.851 -23.716 -14.568  0.00  0.00    +0.153 C 
ATOM      6  C   UNL     1      36.255 -24.822 -12.876  0.00  0.00    +0.118 C 
ATOM      7  C   UNL     1      35.981 -26.040 -15.002  0.00  0.00    +0.026 C 
ATOM      8  C   UNL     1      35.103 -24.880 -15.559  0.00  0.00    +0.031 C 
ATOM      9  C   UNL     1      37.227 -23.301 -14.355  0.00  0.00    +0.332 C 
ENDROOT
BRANCH   5  12
ATOM     10  O   UNL     1      33.565 -24.408 -12.682  0.00  0.00    -0.273 OA
ATOM     11  N   UNL     1      32.477 -23.416 -14.484  0.00  0.00    -0.305 N 
ATOM     12  C   UNL     1      33.581 -23.887 -13.794  0.00  0.00    +0.241 C 
ATOM     13  H   UNL     1      32.617 -23.016 -15.374  0.00  0.00    +0.149 HD
BRANCH  11  15
ATOM     14  N   UNL     1      29.343 -24.565 -15.981  0.00  0.00    +0.384 N 
ATOM     15  C   UNL     1      31.130 -23.485 -13.965  0.00  0.00    +0.067 C 
ATOM     16  C   UNL     1      30.186 -22.593 -14.778  0.00  0.00    -0.004 C 
ATOM     17  C   UNL     1      30.627 -24.932 -13.914  0.00  0.00    -0.004 C 
ATOM     18  C   UNL     1      30.291 -25.490 -15.291  0.00  0.00    -0.080 C 
ATOM     19  C   UNL     1      29.866 -23.176 -16.148  0.00  0.00    -0.080 C 
ATOM     20  H   UNL     1      28.484 -24.520 -15.434  0.00  0.00    -0.085 HD
ATOM     21  H   UNL     1      29.194 -24.939 -16.917  0.00  0.00    -0.085 HD
ENDBRANCH  11  15
ENDBRANCH   5  12
BRANCH   3  22
ATOM     22  O   UNL     1      38.856 -24.832 -15.350  0.00  0.00    -0.094 OA
BRANCH  22  23
ATOM     23  S   UNL     1      40.202 -25.539 -14.705  0.00  0.00    +0.258 S 
ATOM     24  O   UNL     1      41.003 -24.413 -14.229  0.00  0.00    -0.114 OA
ATOM     25  O   UNL     1      40.801 -26.263 -15.827  0.00  0.00    -0.114 OA
ATOM     26  O   UNL     1      39.679 -26.404 -13.649  0.00  0.00    -0.020 OA
ENDBRANCH  22  23
ENDBRANCH   3  22
TORSDOF 4
ENDMDL
MODEL 4
REMARK VINA RESULT:      -8.6      3.989      5.358
REMARK  Name = 121301826
REMARK  4 active torsions:
REMARK  status: ('A' for Active; 'I' for Inactive)
REMARK    1  A    between atoms: N_3  and  O_22
REMARK    2  A    between atoms: C_5  and  C_12
REMARK    3  A    between atoms: N_11  and  C_15
REMARK    4  A    between atoms: O_22  and  S_23
REMARK                            x       y       z     vdW  Elec       q    Type
REMARK                         _______ _______ _______ _____ _____    ______ ____
ROOT
ATOM      1  O   UNL     1      33.241 -23.643 -13.069  0.00  0.00    -0.250 OA
ATOM      2  N   UNL     1      34.296 -24.238 -15.156  0.00  0.00    -0.254 N 
ATOM      3  N   UNL     1      35.555 -24.083 -13.295  0.00  0.00    -0.126 N 
ATOM      4  C   UNL     1      36.445 -24.153 -14.443  0.00  0.00    +0.127 C 
ATOM      5  C   UNL     1      34.168 -22.995 -15.907  0.00  0.00    +0.153 C 
ATOM      6  C   UNL     1      35.551 -24.959 -15.369  0.00  0.00    +0.118 C 
ATOM      7  C   UNL     1      36.656 -22.770 -15.114  0.00  0.00    +0.026 C 
ATOM      8  C   UNL     1      35.341 -22.051 -15.540  0.00  0.00    +0.031 C 
ATOM      9  C   UNL     1      34.215 -24.009 -13.709  0.00  0.00    +0.332 C 
ENDROOT
BRANCH   5  12
ATOM     10  O   UNL     1      33.594 -24.321 -17.805  0.00  0.00    -0.273 OA
ATOM     11  N   UNL     1      34.712 -22.305 -18.134  0.00  0.00    -0.305 N 
ATOM     12  C   UNL     1      34.110 -23.293 -17.373  0.00  0.00    +0.241 C 
ATOM     13  H   UNL     1      35.093 -21.524 -17.671  0.00  0.00    +0.149 HD
BRANCH  11  15
ATOM     14  N   UNL     1      34.998 -19.685 -20.670  0.00  0.00    +0.384 N 
ATOM     15  C   UNL     1      34.809 -22.365 -19.574  0.00  0.00    +0.067 C 
ATOM     16  C   UNL     1      33.614 -21.669 -20.232  0.00  0.00    -0.004 C 
ATOM     17  C   UNL     1      36.138 -21.781 -20.067  0.00  0.00    -0.004 C 
ATOM     18  C   UNL     1      36.186 -20.261 -19.972  0.00  0.00    -0.080 C 
ATOM     19  C   UNL     1      33.690 -20.151 -20.124  0.00  0.00    -0.080 C 
ATOM     20  H   UNL     1      35.047 -19.946 -21.654  0.00  0.00    -0.085 HD
ATOM     21  H   UNL     1      35.034 -18.676 -20.530  0.00  0.00    -0.085 HD
ENDBRANCH  11  15
ENDBRANCH   5  12
BRANCH   3  22
ATOM     22  O   UNL     1      36.008 -23.483 -12.128  0.00  0.00    -0.094 OA
BRANCH  22  23
ATOM     23  S   UNL     1      36.724 -24.549 -11.089  0.00  0.00    +0.258 S 
ATOM     24  O   UNL     1      36.165 -24.205  -9.784  0.00  0.00    -0.114 OA
ATOM     25  O   UNL     1      38.155 -24.269 -11.218  0.00  0.00    -0.114 OA
ATOM     26  O   UNL     1      36.326 -25.862 -11.594  0.00  0.00    -0.020 OA
ENDBRANCH  22  23
ENDBRANCH   3  22
TORSDOF 4
ENDMDL
MODEL 5
REMARK VINA RESULT:      -8.2     11.552     14.043
REMARK  Name = 121301826
REMARK  4 active torsions:
REMARK  status: ('A' for Active; 'I' for Inactive)
REMARK    1  A    between atoms: N_3  and  O_22
REMARK    2  A    between atoms: C_5  and  C_12
REMARK    3  A    between atoms: N_11  and  C_15
REMARK    4  A    between atoms: O_22  and  S_23
REMARK                            x       y       z     vdW  Elec       q    Type
REMARK                         _______ _______ _______ _____ _____    ______ ____
ROOT
ATOM      1  O   UNL     1      33.097 -11.900 -23.159  0.00  0.00    -0.250 OA
ATOM      2  N   UNL     1      32.981 -14.302 -22.954  0.00  0.00    -0.254 N 
ATOM      3  N   UNL     1      32.369 -13.019 -21.207  0.00  0.00    -0.126 N 
ATOM      4  C   UNL     1      32.496 -14.392 -20.742  0.00  0.00    +0.127 C 
ATOM      5  C   UNL     1      34.394 -14.660 -22.976  0.00  0.00    +0.153 C 
ATOM      6  C   UNL     1      32.159 -15.099 -22.044  0.00  0.00    +0.118 C 
ATOM      7  C   UNL     1      33.960 -14.766 -20.393  0.00  0.00    +0.026 C 
ATOM      8  C   UNL     1      34.980 -14.528 -21.547  0.00  0.00    +0.031 C 
ATOM      9  C   UNL     1      32.782 -12.907 -22.544  0.00  0.00    +0.332 C 
ENDROOT
BRANCH   5  12
ATOM     10  O   UNL     1      34.082 -16.356 -24.624  0.00  0.00    -0.273 OA
ATOM     11  N   UNL     1      35.267 -16.871 -22.688  0.00  0.00    -0.305 N 
ATOM     12  C   UNL     1      34.558 -16.038 -23.537  0.00  0.00    +0.241 C 
ATOM     13  H   UNL     1      35.600 -16.499 -21.839  0.00  0.00    +0.149 HD
BRANCH  11  15
ATOM     14  N   UNL     1      35.405 -19.842 -20.559  0.00  0.00    +0.384 N 
ATOM     15  C   UNL     1      35.542 -18.257 -22.986  0.00  0.00    +0.067 C 
ATOM     16  C   UNL     1      36.800 -18.734 -22.254  0.00  0.00    -0.004 C 
ATOM     17  C   UNL     1      34.335 -19.146 -22.663  0.00  0.00    -0.004 C 
ATOM     18  C   UNL     1      34.134 -19.347 -21.166  0.00  0.00    -0.080 C 
ATOM     19  C   UNL     1      36.569 -18.928 -20.761  0.00  0.00    -0.080 C 
ATOM     20  H   UNL     1      35.630 -20.744 -20.976  0.00  0.00    -0.085 HD
ATOM     21  H   UNL     1      35.248 -19.902 -19.553  0.00  0.00    -0.085 HD
ENDBRANCH  11  15
ENDBRANCH   5  12
BRANCH   3  22
ATOM     22  O   UNL     1      32.512 -11.985 -20.293  0.00  0.00    -0.094 OA
BRANCH  22  23
ATOM     23  S   UNL     1      31.270 -10.897 -20.347  0.00  0.00    +0.258 S 
ATOM     24  O   UNL     1      30.255 -11.555 -21.167  0.00  0.00    -0.114 OA
ATOM     25  O   UNL     1      31.859  -9.709 -20.966  0.00  0.00    -0.114 OA
ATOM     26  O   UNL     1      30.895 -10.714 -18.946  0.00  0.00    -0.020 OA
ENDBRANCH  22  23
ENDBRANCH   3  22
TORSDOF 4
ENDMDL
MODEL 6
REMARK VINA RESULT:      -8.1     12.498     14.871
REMARK  Name = 121301826
REMARK  4 active torsions:
REMARK  status: ('A' for Active; 'I' for Inactive)
REMARK    1  A    between atoms: N_3  and  O_22
REMARK    2  A    between atoms: C_5  and  C_12
REMARK    3  A    between atoms: N_11  and  C_15
REMARK    4  A    between atoms: O_22  and  S_23
REMARK                            x       y       z     vdW  Elec       q    Type
REMARK                         _______ _______ _______ _____ _____    ______ ____
ROOT
ATOM      1  O   UNL     1      34.487 -11.584 -24.276  0.00  0.00    -0.250 OA
ATOM      2  N   UNL     1      33.581 -13.817 -24.138  0.00  0.00    -0.254 N 
ATOM      3  N   UNL     1      32.690 -12.189 -22.861  0.00  0.00    -0.126 N 
ATOM      4  C   UNL     1      32.187 -13.468 -22.386  0.00  0.00    +0.127 C 
ATOM      5  C   UNL     1      34.686 -14.536 -23.517  0.00  0.00    +0.153 C 
ATOM      6  C   UNL     1      32.250 -14.232 -23.696  0.00  0.00    +0.118 C 
ATOM      7  C   UNL     1      33.171 -14.166 -21.410  0.00  0.00    +0.026 C 
ATOM      8  C   UNL     1      34.608 -14.369 -21.979  0.00  0.00    +0.031 C 
ATOM      9  C   UNL     1      33.652 -12.376 -23.867  0.00  0.00    +0.332 C 
ENDROOT
BRANCH   5  12
ATOM     10  O   UNL     1      34.080 -16.335 -24.963  0.00  0.00    -0.273 OA
ATOM     11  N   UNL     1      35.312 -16.798 -23.043  0.00  0.00    -0.305 N 
ATOM     12  C   UNL     1      34.654 -15.973 -23.939  0.00  0.00    +0.241 C 
ATOM     13  H   UNL     1      35.736 -16.389 -22.254  0.00  0.00    +0.149 HD
BRANCH  11  15
ATOM     14  N   UNL     1      35.254 -19.542 -20.624  0.00  0.00    +0.384 N 
ATOM     15  C   UNL     1      35.405 -18.231 -23.209  0.00  0.00    +0.067 C 
ATOM     16  C   UNL     1      36.648 -18.782 -22.502  0.00  0.00    -0.004 C 
ATOM     17  C   UNL     1      34.130 -18.931 -22.726  0.00  0.00    -0.004 C 
ATOM     18  C   UNL     1      34.009 -18.959 -21.208  0.00  0.00    -0.080 C 
ATOM     19  C   UNL     1      36.498 -18.799 -20.986  0.00  0.00    -0.080 C 
ATOM     20  H   UNL     1      35.345 -20.501 -20.956  0.00  0.00    -0.085 HD
ATOM     21  H   UNL     1      35.160 -19.484 -19.611  0.00  0.00    -0.085 HD
ENDBRANCH  11  15
ENDBRANCH   5  12
BRANCH   3  22
ATOM     22  O   UNL     1      32.728 -11.113 -21.985  0.00  0.00    -0.094 OA
BRANCH  22  23
ATOM     23  S   UNL     1      31.617  -9.945 -22.345  0.00  0.00    +0.258 S 
ATOM     24  O   UNL     1      30.350 -10.669 -22.416  0.00  0.00    -0.114 OA
ATOM     25  O   UNL     1      32.067  -9.404 -23.627  0.00  0.00    -0.114 OA
ATOM     26  O   UNL     1      31.718  -9.002 -21.232  0.00  0.00    -0.020 OA
ENDBRANCH  22  23
ENDBRANCH   3  22
TORSDOF 4
ENDMDL
MODEL 7
REMARK VINA RESULT:      -7.7      1.262      2.144
REMARK  Name = 121301826
REMARK  4 active torsions:
REMARK  status: ('A' for Active; 'I' for Inactive)
REMARK    1  A    between atoms: N_3  and  O_22
REMARK    2  A    between atoms: C_5  and  C_12
REMARK    3  A    between atoms: N_11  and  C_15
REMARK    4  A    between atoms: O_22  and  S_23
REMARK                            x       y       z     vdW  Elec       q    Type
REMARK                         _______ _______ _______ _____ _____    ______ ____
ROOT
ATOM      1  O   UNL     1      36.723 -25.582 -11.777  0.00  0.00    -0.250 OA
ATOM      2  N   UNL     1      35.816 -25.316 -13.998  0.00  0.00    -0.254 N 
ATOM      3  N   UNL     1      38.015 -25.733 -13.753  0.00  0.00    -0.126 N 
ATOM      4  C   UNL     1      37.780 -25.323 -15.128  0.00  0.00    +0.127 C 
ATOM      5  C   UNL     1      35.464 -23.901 -13.996  0.00  0.00    +0.153 C 
ATOM      6  C   UNL     1      36.350 -25.815 -15.265  0.00  0.00    +0.118 C 
ATOM      7  C   UNL     1      37.742 -23.780 -15.288  0.00  0.00    +0.026 C 
ATOM      8  C   UNL     1      36.713 -23.061 -14.364  0.00  0.00    +0.031 C 
ATOM      9  C   UNL     1      36.840 -25.621 -12.992  0.00  0.00    +0.332 C 
ENDROOT
BRANCH   5  12
ATOM     10  O   UNL     1      34.405 -22.889 -15.880  0.00  0.00    -0.273 OA
ATOM     11  N   UNL     1      33.193 -24.390 -14.577  0.00  0.00    -0.305 N 
ATOM     12  C   UNL     1      34.318 -23.664 -14.930  0.00  0.00    +0.241 C 
ATOM     13  H   UNL     1      33.246 -24.981 -13.791  0.00  0.00    +0.149 HD
BRANCH  11  15
ATOM     14  N   UNL     1      29.824 -23.403 -13.550  0.00  0.00    +0.384 N 
ATOM     15  C   UNL     1      31.946 -24.321 -15.303  0.00  0.00    +0.067 C 
ATOM     16  C   UNL     1      30.912 -25.280 -14.705  0.00  0.00    -0.004 C 
ATOM     17  C   UNL     1      31.412 -22.885 -15.357  0.00  0.00    -0.004 C 
ATOM     18  C   UNL     1      30.840 -22.417 -14.025  0.00  0.00    -0.080 C 
ATOM     19  C   UNL     1      30.357 -24.786 -13.376  0.00  0.00    -0.080 C 
ATOM     20  H   UNL     1      29.066 -23.435 -14.231  0.00  0.00    -0.085 HD
ATOM     21  H   UNL     1      29.514 -23.088 -12.632  0.00  0.00    -0.085 HD
ENDBRANCH  11  15
ENDBRANCH   5  12
BRANCH   3  22
ATOM     22  O   UNL     1      39.278 -25.553 -13.204  0.00  0.00    -0.094 OA
BRANCH  22  23
ATOM     23  S   UNL     1      40.498 -25.939 -14.247  0.00  0.00    +0.258 S 
ATOM     24  O   UNL     1      39.816 -26.562 -15.380  0.00  0.00    -0.114 OA
ATOM     25  O   UNL     1      41.346 -26.856 -13.485  0.00  0.00    -0.114 OA
ATOM     26  O   UNL     1      41.129 -24.656 -14.549  0.00  0.00    -0.020 OA
ENDBRANCH  22  23
ENDBRANCH   3  22
TORSDOF 4
ENDMDL
MODEL 8
REMARK VINA RESULT:      -7.5      4.342      8.291
REMARK  Name = 121301826
REMARK  4 active torsions:
REMARK  status: ('A' for Active; 'I' for Inactive)
REMARK    1  A    between atoms: N_3  and  O_22
REMARK    2  A    between atoms: C_5  and  C_12
REMARK    3  A    between atoms: N_11  and  C_15
REMARK    4  A    between atoms: O_22  and  S_23
REMARK                            x       y       z     vdW  Elec       q    Type
REMARK                         _______ _______ _______ _____ _____    ______ ____
ROOT
ATOM      1  O   UNL     1      30.690 -21.637 -13.882  0.00  0.00    -0.250 OA
ATOM      2  N   UNL     1      32.257 -23.009 -15.101  0.00  0.00    -0.254 N 
ATOM      3  N   UNL     1      30.057 -23.195 -15.545  0.00  0.00    -0.126 N 
ATOM      4  C   UNL     1      30.745 -24.311 -16.174  0.00  0.00    +0.127 C 
ATOM      5  C   UNL     1      32.739 -23.896 -14.049  0.00  0.00    +0.153 C 
ATOM      6  C   UNL     1      32.087 -23.641 -16.409  0.00  0.00    +0.118 C 
ATOM      7  C   UNL     1      30.994 -25.484 -15.190  0.00  0.00    +0.026 C 
ATOM      8  C   UNL     1      31.760 -25.087 -13.892  0.00  0.00    +0.031 C 
ATOM      9  C   UNL     1      30.947 -22.436 -14.768  0.00  0.00    +0.332 C 
ENDROOT
BRANCH   5  12
ATOM     10  O   UNL     1      34.361 -25.342 -15.035  0.00  0.00    -0.273 OA
ATOM     11  N   UNL     1      35.089 -23.511 -13.796  0.00  0.00    -0.305 N 
ATOM     12  C   UNL     1      34.135 -24.339 -14.363  0.00  0.00    +0.241 C 
ATOM     13  H   UNL     1      34.783 -22.733 -13.275  0.00  0.00    +0.149 HD
BRANCH  11  15
ATOM     14  N   UNL     1      37.679 -24.285 -11.331  0.00  0.00    +0.384 N 
ATOM     15  C   UNL     1      36.510 -23.733 -13.930  0.00  0.00    +0.067 C 
ATOM     16  C   UNL     1      37.304 -22.677 -13.153  0.00  0.00    -0.004 C 
ATOM     17  C   UNL     1      36.895 -25.153 -13.496  0.00  0.00    -0.004 C 
ATOM     18  C   UNL     1      36.851 -25.341 -11.985  0.00  0.00    -0.080 C 
ATOM     19  C   UNL     1      37.243 -22.892 -11.647  0.00  0.00    -0.080 C 
ATOM     20  H   UNL     1      38.644 -24.397 -11.640  0.00  0.00    -0.085 HD
ATOM     21  H   UNL     1      37.572 -24.407 -10.325  0.00  0.00    -0.085 HD
ENDBRANCH  11  15
ENDBRANCH   5  12
BRANCH   3  22
ATOM     22  O   UNL     1      28.714 -23.329 -15.221  0.00  0.00    -0.094 OA
BRANCH  22  23
ATOM     23  S   UNL     1      27.704 -22.857 -16.440  0.00  0.00    +0.258 S 
ATOM     24  O   UNL     1      26.484 -22.441 -15.751  0.00  0.00    -0.114 OA
ATOM     25  O   UNL     1      27.544 -24.058 -17.260  0.00  0.00    -0.114 OA
ATOM     26  O   UNL     1      28.428 -21.774 -17.104  0.00  0.00    -0.020 OA
ENDBRANCH  22  23
ENDBRANCH   3  22
TORSDOF 4
ENDMDL
MODEL 9
REMARK VINA RESULT:      -7.5     11.525     13.259
REMARK  Name = 121301826
REMARK  4 active torsions:
REMARK  status: ('A' for Active; 'I' for Inactive)
REMARK    1  A    between atoms: N_3  and  O_22
REMARK    2  A    between atoms: C_5  and  C_12
REMARK    3  A    between atoms: N_11  and  C_15
REMARK    4  A    between atoms: O_22  and  S_23
REMARK                            x       y       z     vdW  Elec       q    Type
REMARK                         _______ _______ _______ _____ _____    ______ ____
ROOT
ATOM      1  O   UNL     1      35.342 -15.321 -19.706  0.00  0.00    -0.250 OA
ATOM      2  N   UNL     1      33.318 -14.932 -20.961  0.00  0.00    -0.254 N 
ATOM      3  N   UNL     1      34.416 -16.881 -21.225  0.00  0.00    -0.126 N 
ATOM      4  C   UNL     1      33.427 -16.768 -22.285  0.00  0.00    +0.127 C 
ATOM      5  C   UNL     1      33.741 -13.871 -21.866  0.00  0.00    +0.153 C 
ATOM      6  C   UNL     1      32.408 -15.916 -21.549  0.00  0.00    +0.118 C 
ATOM      7  C   UNL     1      33.936 -15.925 -23.483  0.00  0.00    +0.026 C 
ATOM      8  C   UNL     1      34.433 -14.497 -23.103  0.00  0.00    +0.031 C 
ATOM      9  C   UNL     1      34.460 -15.705 -20.459  0.00  0.00    +0.332 C 
ENDROOT
BRANCH   5  12
ATOM     10  O   UNL     1      32.055 -13.071 -23.353  0.00  0.00    -0.273 OA
ATOM     11  N   UNL     1      32.163 -12.199 -21.198  0.00  0.00    -0.305 N 
ATOM     12  C   UNL     1      32.564 -13.023 -22.236  0.00  0.00    +0.241 C 
ATOM     13  H   UNL     1      32.652 -12.250 -20.344  0.00  0.00    +0.149 HD
BRANCH  11  15
ATOM     14  N   UNL     1      31.932  -8.613 -20.511  0.00  0.00    +0.384 N 
ATOM     15  C   UNL     1      31.065 -11.267 -21.306  0.00  0.00    +0.067 C 
ATOM     16  C   UNL     1      30.717 -10.672 -19.937  0.00  0.00    -0.004 C 
ATOM     17  C   UNL     1      31.366 -10.169 -22.332  0.00  0.00    -0.004 C 
ATOM     18  C   UNL     1      32.382  -9.152 -21.829  0.00  0.00    -0.080 C 
ATOM     19  C   UNL     1      31.749  -9.659 -19.461  0.00  0.00    -0.080 C 
ATOM     20  H   UNL     1      31.041  -8.136 -20.647  0.00  0.00    -0.085 HD
ATOM     21  H   UNL     1      32.666  -7.988 -20.181  0.00  0.00    -0.085 HD
ENDBRANCH  11  15
ENDBRANCH   5  12
BRANCH   3  22
ATOM     22  O   UNL     1      35.533 -17.678 -21.430  0.00  0.00    -0.094 OA
BRANCH  22  23
ATOM     23  S   UNL     1      35.195 -19.294 -21.368  0.00  0.00    +0.258 S 
ATOM     24  O   UNL     1      35.076 -19.687 -22.771  0.00  0.00    -0.114 OA
ATOM     25  O   UNL     1      33.941 -19.371 -20.619  0.00  0.00    -0.114 OA
ATOM     26  O   UNL     1      36.342 -19.872 -20.670  0.00  0.00    -0.020 OA
ENDBRANCH  22  23
ENDBRANCH   3  22
TORSDOF 4
ENDMDL
