MODEL 1
REMARK VINA RESULT:      -9.8      0.000      0.000
REMARK  Name = 16736529
REMARK  3 active torsions:
REMARK  status: ('A' for Active; 'I' for Inactive)
REMARK    1  A    between atoms: N_2  and  C_14
REMARK    2  A    between atoms: C_14  and  C_16
REMARK    3  A    between atoms: C_18  and  O_23
REMARK                            x       y       z     vdW  Elec       q    Type
REMARK                         _______ _______ _______ _____ _____    ______ ____
ROOT
ATOM      1 CL   UNL     1      32.056 -12.425 -21.860  0.00  0.00    -0.045 Cl
ATOM      2  N   UNL     1      34.766 -16.449 -21.845  0.00  0.00    -0.255 N 
ATOM      3  N   UNL     1      33.817 -14.814 -20.664  0.00  0.00    -0.241 NA
ATOM      4  N   UNL     1      34.053 -15.818 -24.079  0.00  0.00    -0.311 NA
ATOM      5  N   UNL     1      32.695 -13.790 -24.037  0.00  0.00    -0.315 NA
ATOM      6  N   UNL     1      33.179 -14.895 -26.045  0.00  0.00    -0.283 N 
ATOM      7  C   UNL     1      34.117 -15.658 -22.749  0.00  0.00    +0.220 C 
ATOM      8  C   UNL     1      33.536 -14.649 -21.997  0.00  0.00    +0.164 C 
ATOM      9  C   UNL     1      34.557 -15.902 -20.608  0.00  0.00    +0.222 C 
ATOM     10  C   UNL     1      32.802 -13.691 -22.690  0.00  0.00    +0.223 C 
ATOM     11  C   UNL     1      33.318 -14.832 -24.639  0.00  0.00    +0.198 C 
ATOM     12  H   UNL     1      33.605 -15.625 -26.549  0.00  0.00    +0.156 HD
ATOM     13  H   UNL     1      32.657 -14.208 -26.520  0.00  0.00    +0.156 HD
ENDROOT
BRANCH   2  14
ATOM     14  C   UNL     1      35.529 -17.640 -22.130  0.00  0.00    +0.141 C 
BRANCH  14  16
ATOM     15  N   UNL     1      33.677 -18.923 -21.247  0.00  0.00    -0.247 NA
ATOM     16  C   UNL     1      35.021 -18.819 -21.342  0.00  0.00    +0.078 C 
ATOM     17  C   UNL     1      35.912 -19.713 -20.769  0.00  0.00    +0.027 C 
ATOM     18  C   UNL     1      35.389 -20.783 -20.053  0.00  0.00    +0.133 C 
ATOM     19  C   UNL     1      34.010 -20.924 -19.932  0.00  0.00    +0.031 C 
ATOM     20  C   UNL     1      37.386 -19.538 -20.911  0.00  0.00    +0.036 C 
ATOM     21  C   UNL     1      33.205 -19.977 -20.543  0.00  0.00    +0.097 C 
ATOM     22  C   UNL     1      33.401 -22.053 -19.176  0.00  0.00    +0.036 C 
BRANCH  18  23
ATOM     23  O   UNL     1      36.221 -21.691 -19.469  0.00  0.00    -0.472 OA
ATOM     24  C   UNL     1      36.612 -21.437 -18.121  0.00  0.00    +0.252 C 
ENDBRANCH  18  23
ENDBRANCH  14  16
ENDBRANCH   2  14
TORSDOF 3
ENDMDL
MODEL 2
REMARK VINA RESULT:      -9.5      1.639      2.379
REMARK  Name = 16736529
REMARK  3 active torsions:
REMARK  status: ('A' for Active; 'I' for Inactive)
REMARK    1  A    between atoms: N_2  and  C_14
REMARK    2  A    between atoms: C_14  and  C_16
REMARK    3  A    between atoms: C_18  and  O_23
REMARK                            x       y       z     vdW  Elec       q    Type
REMARK                         _______ _______ _______ _____ _____    ______ ____
ROOT
ATOM      1 CL   UNL     1      32.685 -15.107 -27.024  0.00  0.00    -0.045 Cl
ATOM      2  N   UNL     1      35.011 -16.933 -23.179  0.00  0.00    -0.255 N 
ATOM      3  N   UNL     1      34.307 -17.236 -25.271  0.00  0.00    -0.241 NA
ATOM      4  N   UNL     1      34.194 -14.680 -22.786  0.00  0.00    -0.311 NA
ATOM      5  N   UNL     1      33.032 -13.804 -24.745  0.00  0.00    -0.315 NA
ATOM      6  N   UNL     1      33.263 -12.533 -22.791  0.00  0.00    -0.283 N 
ATOM      7  C   UNL     1      34.371 -15.780 -23.533  0.00  0.00    +0.220 C 
ATOM      8  C   UNL     1      33.942 -15.989 -24.833  0.00  0.00    +0.164 C 
ATOM      9  C   UNL     1      34.947 -17.776 -24.255  0.00  0.00    +0.222 C 
ATOM     10  C   UNL     1      33.248 -14.946 -25.442  0.00  0.00    +0.223 C 
ATOM     11  C   UNL     1      33.511 -13.743 -23.480  0.00  0.00    +0.198 C 
ATOM     12  H   UNL     1      33.582 -12.418 -21.867  0.00  0.00    +0.156 HD
ATOM     13  H   UNL     1      32.769 -11.805 -23.236  0.00  0.00    +0.156 HD
ENDROOT
BRANCH   2  14
ATOM     14  C   UNL     1      35.642 -17.218 -21.912  0.00  0.00    +0.141 C 
BRANCH  14  16
ATOM     15  N   UNL     1      33.722 -18.500 -21.188  0.00  0.00    -0.247 NA
ATOM     16  C   UNL     1      35.070 -18.459 -21.280  0.00  0.00    +0.078 C 
ATOM     17  C   UNL     1      35.910 -19.467 -20.835  0.00  0.00    +0.027 C 
ATOM     18  C   UNL     1      35.328 -20.591 -20.260  0.00  0.00    +0.133 C 
ATOM     19  C   UNL     1      33.944 -20.670 -20.147  0.00  0.00    +0.031 C 
ATOM     20  C   UNL     1      37.391 -19.358 -20.965  0.00  0.00    +0.036 C 
ATOM     21  C   UNL     1      33.193 -19.609 -20.623  0.00  0.00    +0.097 C 
ATOM     22  C   UNL     1      33.273 -21.852 -19.539  0.00  0.00    +0.036 C 
BRANCH  18  23
ATOM     23  O   UNL     1      36.109 -21.612 -19.805  0.00  0.00    -0.472 OA
ATOM     24  C   UNL     1      36.449 -21.599 -18.420  0.00  0.00    +0.252 C 
ENDBRANCH  18  23
ENDBRANCH  14  16
ENDBRANCH   2  14
TORSDOF 3
ENDMDL
MODEL 3
REMARK VINA RESULT:      -9.5      3.896      7.448
REMARK  Name = 16736529
REMARK  3 active torsions:
REMARK  status: ('A' for Active; 'I' for Inactive)
REMARK    1  A    between atoms: N_2  and  C_14
REMARK    2  A    between atoms: C_14  and  C_16
REMARK    3  A    between atoms: C_18  and  O_23
REMARK                            x       y       z     vdW  Elec       q    Type
REMARK                         _______ _______ _______ _____ _____    ______ ____
ROOT
ATOM      1 CL   UNL     1      32.620 -23.312 -17.254  0.00  0.00    -0.045 Cl
ATOM      2  N   UNL     1      35.015 -20.464 -20.366  0.00  0.00    -0.255 N 
ATOM      3  N   UNL     1      33.074 -21.376 -19.761  0.00  0.00    -0.241 NA
ATOM      4  N   UNL     1      36.459 -21.370 -18.636  0.00  0.00    -0.311 NA
ATOM      5  N   UNL     1      35.212 -22.795 -17.097  0.00  0.00    -0.315 NA
ATOM      6  N   UNL     1      37.510 -22.427 -16.832  0.00  0.00    -0.283 N 
ATOM      7  C   UNL     1      35.279 -21.209 -19.253  0.00  0.00    +0.220 C 
ATOM      8  C   UNL     1      34.063 -21.767 -18.894  0.00  0.00    +0.164 C 
ATOM      9  C   UNL     1      33.679 -20.596 -20.632  0.00  0.00    +0.222 C 
ATOM     10  C   UNL     1      34.054 -22.588 -17.770  0.00  0.00    +0.223 C 
ATOM     11  C   UNL     1      36.326 -22.183 -17.565  0.00  0.00    +0.198 C 
ATOM     12  H   UNL     1      38.358 -22.015 -17.115  0.00  0.00    +0.156 HD
ATOM     13  H   UNL     1      37.487 -23.011 -16.039  0.00  0.00    +0.156 HD
ENDROOT
BRANCH   2  14
ATOM     14  C   UNL     1      35.960 -19.679 -21.125  0.00  0.00    +0.141 C 
BRANCH  14  16
ATOM     15  N   UNL     1      35.338 -17.410 -20.558  0.00  0.00    -0.247 NA
ATOM     16  C   UNL     1      35.373 -18.352 -21.528  0.00  0.00    +0.078 C 
ATOM     17  C   UNL     1      34.912 -18.155 -22.819  0.00  0.00    +0.027 C 
ATOM     18  C   UNL     1      34.380 -16.910 -23.136  0.00  0.00    +0.133 C 
ATOM     19  C   UNL     1      34.327 -15.915 -22.166  0.00  0.00    +0.031 C 
ATOM     20  C   UNL     1      34.978 -19.239 -23.841  0.00  0.00    +0.036 C 
ATOM     21  C   UNL     1      34.815 -16.213 -20.905  0.00  0.00    +0.097 C 
ATOM     22  C   UNL     1      33.767 -14.566 -22.456  0.00  0.00    +0.036 C 
BRANCH  18  23
ATOM     23  O   UNL     1      33.911 -16.664 -24.392  0.00  0.00    -0.472 OA
ATOM     24  C   UNL     1      34.874 -16.326 -25.388  0.00  0.00    +0.252 C 
ENDBRANCH  18  23
ENDBRANCH  14  16
ENDBRANCH   2  14
TORSDOF 3
ENDMDL
MODEL 4
REMARK VINA RESULT:      -9.2      3.923      7.441
REMARK  Name = 16736529
REMARK  3 active torsions:
REMARK  status: ('A' for Active; 'I' for Inactive)
REMARK    1  A    between atoms: N_2  and  C_14
REMARK    2  A    between atoms: C_14  and  C_16
REMARK    3  A    between atoms: C_18  and  O_23
REMARK                            x       y       z     vdW  Elec       q    Type
REMARK                         _______ _______ _______ _____ _____    ______ ____
ROOT
ATOM      1 CL   UNL     1      37.541 -22.106 -16.536  0.00  0.00    -0.045 Cl
ATOM      2  N   UNL     1      35.344 -20.433 -20.525  0.00  0.00    -0.255 N 
ATOM      3  N   UNL     1      37.165 -20.437 -19.240  0.00  0.00    -0.241 NA
ATOM      4  N   UNL     1      33.944 -21.968 -19.268  0.00  0.00    -0.311 NA
ATOM      5  N   UNL     1      35.089 -22.782 -17.272  0.00  0.00    -0.315 NA
ATOM      6  N   UNL     1      32.912 -23.470 -17.798  0.00  0.00    -0.283 N 
ATOM      7  C   UNL     1      35.072 -21.276 -19.486  0.00  0.00    +0.220 C 
ATOM      8  C   UNL     1      36.213 -21.264 -18.700  0.00  0.00    +0.164 C 
ATOM      9  C   UNL     1      36.613 -19.955 -20.333  0.00  0.00    +0.222 C 
ATOM     10  C   UNL     1      36.197 -22.055 -17.555  0.00  0.00    +0.223 C 
ATOM     11  C   UNL     1      34.047 -22.695 -18.133  0.00  0.00    +0.198 C 
ATOM     12  H   UNL     1      32.118 -23.455 -18.378  0.00  0.00    +0.156 HD
ATOM     13  H   UNL     1      32.917 -24.024 -16.984  0.00  0.00    +0.156 HD
ENDROOT
BRANCH   2  14
ATOM     14  C   UNL     1      34.469 -20.105 -21.624  0.00  0.00    +0.141 C 
BRANCH  14  16
ATOM     15  N   UNL     1      34.296 -17.814 -20.864  0.00  0.00    -0.247 NA
ATOM     16  C   UNL     1      34.493 -18.629 -21.924  0.00  0.00    +0.078 C 
ATOM     17  C   UNL     1      34.707 -18.183 -23.218  0.00  0.00    +0.027 C 
ATOM     18  C   UNL     1      34.720 -16.810 -23.438  0.00  0.00    +0.133 C 
ATOM     19  C   UNL     1      34.521 -15.939 -22.373  0.00  0.00    +0.031 C 
ATOM     20  C   UNL     1      34.917 -19.137 -24.344  0.00  0.00    +0.036 C 
ATOM     21  C   UNL     1      34.315 -16.486 -21.117  0.00  0.00    +0.097 C 
ATOM     22  C   UNL     1      34.525 -14.461 -22.557  0.00  0.00    +0.036 C 
BRANCH  18  23
ATOM     23  O   UNL     1      34.926 -16.317 -24.693  0.00  0.00    -0.472 OA
ATOM     24  C   UNL     1      33.769 -15.955 -25.443  0.00  0.00    +0.252 C 
ENDBRANCH  18  23
ENDBRANCH  14  16
ENDBRANCH   2  14
TORSDOF 3
ENDMDL
MODEL 5
REMARK VINA RESULT:      -9.2      3.749      7.267
REMARK  Name = 16736529
REMARK  3 active torsions:
REMARK  status: ('A' for Active; 'I' for Inactive)
REMARK    1  A    between atoms: N_2  and  C_14
REMARK    2  A    between atoms: C_14  and  C_16
REMARK    3  A    between atoms: C_18  and  O_23
REMARK                            x       y       z     vdW  Elec       q    Type
REMARK                         _______ _______ _______ _____ _____    ______ ____
ROOT
ATOM      1 CL   UNL     1      32.638 -23.021 -18.168  0.00  0.00    -0.045 Cl
ATOM      2  N   UNL     1      35.040 -19.724 -20.795  0.00  0.00    -0.255 N 
ATOM      3  N   UNL     1      33.107 -20.750 -20.372  0.00  0.00    -0.241 NA
ATOM      4  N   UNL     1      36.463 -20.831 -19.168  0.00  0.00    -0.311 NA
ATOM      5  N   UNL     1      35.214 -22.479 -17.872  0.00  0.00    -0.315 NA
ATOM      6  N   UNL     1      37.496 -22.105 -17.498  0.00  0.00    -0.283 N 
ATOM      7  C   UNL     1      35.295 -20.610 -19.788  0.00  0.00    +0.220 C 
ATOM      8  C   UNL     1      34.083 -21.236 -19.542  0.00  0.00    +0.164 C 
ATOM      9  C   UNL     1      33.714 -19.845 -21.112  0.00  0.00    +0.222 C 
ATOM     10  C   UNL     1      34.067 -22.204 -18.540  0.00  0.00    +0.223 C 
ATOM     11  C   UNL     1      36.324 -21.786 -18.222  0.00  0.00    +0.198 C 
ATOM     12  H   UNL     1      38.340 -21.641 -17.699  0.00  0.00    +0.156 HD
ATOM     13  H   UNL     1      37.467 -22.793 -16.793  0.00  0.00    +0.156 HD
ENDROOT
BRANCH   2  14
ATOM     14  C   UNL     1      35.984 -18.824 -21.413  0.00  0.00    +0.141 C 
BRANCH  14  16
ATOM     15  N   UNL     1      35.431 -18.520 -23.749  0.00  0.00    -0.247 NA
ATOM     16  C   UNL     1      35.334 -18.010 -22.501  0.00  0.00    +0.078 C 
ATOM     17  C   UNL     1      34.692 -16.821 -22.195  0.00  0.00    +0.027 C 
ATOM     18  C   UNL     1      34.110 -16.110 -23.238  0.00  0.00    +0.133 C 
ATOM     19  C   UNL     1      34.188 -16.602 -24.537  0.00  0.00    +0.031 C 
ATOM     20  C   UNL     1      34.623 -16.314 -20.795  0.00  0.00    +0.036 C 
ATOM     21  C   UNL     1      34.853 -17.800 -24.737  0.00  0.00    +0.097 C 
ATOM     22  C   UNL     1      33.581 -15.878 -25.688  0.00  0.00    +0.036 C 
BRANCH  18  23
ATOM     23  O   UNL     1      33.466 -14.934 -22.992  0.00  0.00    -0.472 OA
ATOM     24  C   UNL     1      34.229 -13.737 -23.128  0.00  0.00    +0.252 C 
ENDBRANCH  18  23
ENDBRANCH  14  16
ENDBRANCH   2  14
TORSDOF 3
ENDMDL
MODEL 6
REMARK VINA RESULT:      -8.9      4.498      8.312
REMARK  Name = 16736529
REMARK  3 active torsions:
REMARK  status: ('A' for Active; 'I' for Inactive)
REMARK    1  A    between atoms: N_2  and  C_14
REMARK    2  A    between atoms: C_14  and  C_16
REMARK    3  A    between atoms: C_18  and  O_23
REMARK                            x       y       z     vdW  Elec       q    Type
REMARK                         _______ _______ _______ _____ _____    ______ ____
ROOT
ATOM      1 CL   UNL     1      35.463 -17.397 -20.642  0.00  0.00    -0.045 Cl
ATOM      2  N   UNL     1      32.770 -13.829 -22.527  0.00  0.00    -0.255 N 
ATOM      3  N   UNL     1      33.597 -14.798 -20.699  0.00  0.00    -0.241 NA
ATOM      4  N   UNL     1      33.697 -15.292 -24.230  0.00  0.00    -0.311 NA
ATOM      5  N   UNL     1      35.041 -17.070 -23.236  0.00  0.00    -0.315 NA
ATOM      6  N   UNL     1      34.756 -16.905 -25.555  0.00  0.00    -0.283 N 
ATOM      7  C   UNL     1      33.503 -14.895 -22.964  0.00  0.00    +0.220 C 
ATOM      8  C   UNL     1      34.006 -15.483 -21.814  0.00  0.00    +0.164 C 
ATOM      9  C   UNL     1      32.857 -13.812 -21.161  0.00  0.00    +0.222 C 
ATOM     10  C   UNL     1      34.804 -16.612 -21.982  0.00  0.00    +0.223 C 
ATOM     11  C   UNL     1      34.481 -16.392 -24.266  0.00  0.00    +0.198 C 
ATOM     12  H   UNL     1      34.382 -16.463 -26.351  0.00  0.00    +0.156 HD
ATOM     13  H   UNL     1      35.321 -17.705 -25.656  0.00  0.00    +0.156 HD
ENDROOT
BRANCH   2  14
ATOM     14  C   UNL     1      32.040 -12.890 -23.344  0.00  0.00    +0.141 C 
BRANCH  14  16
ATOM     15  N   UNL     1      33.829 -11.446 -24.101  0.00  0.00    -0.247 NA
ATOM     16  C   UNL     1      32.705 -11.538 -23.355  0.00  0.00    +0.078 C 
ATOM     17  C   UNL     1      32.164 -10.488 -22.632  0.00  0.00    +0.027 C 
ATOM     18  C   UNL     1      32.819  -9.262 -22.677  0.00  0.00    +0.133 C 
ATOM     19  C   UNL     1      33.978  -9.127 -23.433  0.00  0.00    +0.031 C 
ATOM     20  C   UNL     1      30.920 -10.658 -21.827  0.00  0.00    +0.036 C 
ATOM     21  C   UNL     1      34.437 -10.239 -24.121  0.00  0.00    +0.097 C 
ATOM     22  C   UNL     1      34.716  -7.836 -23.515  0.00  0.00    +0.036 C 
BRANCH  18  23
ATOM     23  O   UNL     1      32.329  -8.196 -21.983  0.00  0.00    -0.472 OA
ATOM     24  C   UNL     1      32.757  -8.052 -20.631  0.00  0.00    +0.252 C 
ENDBRANCH  18  23
ENDBRANCH  14  16
ENDBRANCH   2  14
TORSDOF 3
ENDMDL
MODEL 7
REMARK VINA RESULT:      -8.8      5.049      8.176
REMARK  Name = 16736529
REMARK  3 active torsions:
REMARK  status: ('A' for Active; 'I' for Inactive)
REMARK    1  A    between atoms: N_2  and  C_14
REMARK    2  A    between atoms: C_14  and  C_16
REMARK    3  A    between atoms: C_18  and  O_23
REMARK                            x       y       z     vdW  Elec       q    Type
REMARK                         _______ _______ _______ _____ _____    ______ ____
ROOT
ATOM      1 CL   UNL     1      31.946 -22.851 -13.005  0.00  0.00    -0.045 Cl
ATOM      2  N   UNL     1      33.701 -23.151 -17.518  0.00  0.00    -0.255 N 
ATOM      3  N   UNL     1      34.129 -23.092 -15.332  0.00  0.00    -0.241 NA
ATOM      4  N   UNL     1      31.278 -22.989 -17.473  0.00  0.00    -0.311 NA
ATOM      5  N   UNL     1      30.442 -22.839 -15.185  0.00  0.00    -0.315 NA
ATOM      6  N   UNL     1      28.988 -22.818 -17.022  0.00  0.00    -0.283 N 
ATOM      7  C   UNL     1      32.488 -23.046 -16.898  0.00  0.00    +0.220 C 
ATOM      8  C   UNL     1      32.776 -23.009 -15.543  0.00  0.00    +0.164 C 
ATOM      9  C   UNL     1      34.654 -23.175 -16.536  0.00  0.00    +0.222 C 
ATOM     10  C   UNL     1      31.695 -22.902 -14.673  0.00  0.00    +0.223 C 
ATOM     11  C   UNL     1      30.313 -22.886 -16.532  0.00  0.00    +0.198 C 
ATOM     12  H   UNL     1      28.818 -22.846 -17.990  0.00  0.00    +0.156 HD
ATOM     13  H   UNL     1      28.234 -22.741 -16.392  0.00  0.00    +0.156 HD
ENDROOT
BRANCH   2  14
ATOM     14  C   UNL     1      33.941 -23.227 -18.939  0.00  0.00    +0.141 C 
BRANCH  14  16
ATOM     15  N   UNL     1      32.781 -21.414 -20.046  0.00  0.00    -0.247 NA
ATOM     16  C   UNL     1      33.965 -21.858 -19.566  0.00  0.00    +0.078 C 
ATOM     17  C   UNL     1      35.146 -21.136 -19.625  0.00  0.00    +0.027 C 
ATOM     18  C   UNL     1      35.110 -19.878 -20.215  0.00  0.00    +0.133 C 
ATOM     19  C   UNL     1      33.911 -19.387 -20.720  0.00  0.00    +0.031 C 
ATOM     20  C   UNL     1      36.420 -21.686 -19.078  0.00  0.00    +0.036 C 
ATOM     21  C   UNL     1      32.786 -20.186 -20.611  0.00  0.00    +0.097 C 
ATOM     22  C   UNL     1      33.821 -18.046 -21.361  0.00  0.00    +0.036 C 
BRANCH  18  23
ATOM     23  O   UNL     1      36.245 -19.127 -20.300  0.00  0.00    -0.472 OA
ATOM     24  C   UNL     1      36.859 -19.026 -21.582  0.00  0.00    +0.252 C 
ENDBRANCH  18  23
ENDBRANCH  14  16
ENDBRANCH   2  14
TORSDOF 3
ENDMDL
MODEL 8
REMARK VINA RESULT:      -8.8      3.867      6.326
REMARK  Name = 16736529
REMARK  3 active torsions:
REMARK  status: ('A' for Active; 'I' for Inactive)
REMARK    1  A    between atoms: N_2  and  C_14
REMARK    2  A    between atoms: C_14  and  C_16
REMARK    3  A    between atoms: C_18  and  O_23
REMARK                            x       y       z     vdW  Elec       q    Type
REMARK                         _______ _______ _______ _____ _____    ______ ____
ROOT
ATOM      1 CL   UNL     1      34.810  -7.036 -24.214  0.00  0.00    -0.045 Cl
ATOM      2  N   UNL     1      33.044 -11.478 -23.386  0.00  0.00    -0.255 N 
ATOM      3  N   UNL     1      34.302 -10.162 -24.672  0.00  0.00    -0.241 NA
ATOM      4  N   UNL     1      32.307  -9.863 -21.730  0.00  0.00    -0.311 NA
ATOM      5  N   UNL     1      33.218  -7.645 -22.187  0.00  0.00    -0.315 NA
ATOM      6  N   UNL     1      31.819  -8.037 -20.349  0.00  0.00    -0.283 N 
ATOM      7  C   UNL     1      32.982 -10.234 -22.828  0.00  0.00    +0.220 C 
ATOM      8  C   UNL     1      33.767  -9.432 -23.640  0.00  0.00    +0.164 C 
ATOM      9  C   UNL     1      33.848 -11.384 -24.490  0.00  0.00    +0.222 C 
ATOM     10  C   UNL     1      33.874  -8.090 -23.286  0.00  0.00    +0.223 C 
ATOM     11  C   UNL     1      32.486  -8.545 -21.488  0.00  0.00    +0.198 C 
ATOM     12  H   UNL     1      31.269  -8.634 -19.793  0.00  0.00    +0.156 HD
ATOM     13  H   UNL     1      31.905  -7.084 -20.112  0.00  0.00    +0.156 HD
ENDROOT
BRANCH   2  14
ATOM     14  C   UNL     1      32.392 -12.674 -22.909  0.00  0.00    +0.141 C 
BRANCH  14  16
ATOM     15  N   UNL     1      32.825 -14.170 -24.761  0.00  0.00    -0.247 NA
ATOM     16  C   UNL     1      33.051 -13.914 -23.453  0.00  0.00    +0.078 C 
ATOM     17  C   UNL     1      33.828 -14.711 -22.628  0.00  0.00    +0.027 C 
ATOM     18  C   UNL     1      34.412 -15.844 -23.182  0.00  0.00    +0.133 C 
ATOM     19  C   UNL     1      34.204 -16.141 -24.525  0.00  0.00    +0.031 C 
ATOM     20  C   UNL     1      34.035 -14.372 -21.191  0.00  0.00    +0.036 C 
ATOM     21  C   UNL     1      33.410 -15.280 -25.264  0.00  0.00    +0.097 C 
ATOM     22  C   UNL     1      34.808 -17.342 -25.165  0.00  0.00    +0.036 C 
BRANCH  18  23
ATOM     23  O   UNL     1      35.186 -16.663 -22.415  0.00  0.00    -0.472 OA
ATOM     24  C   UNL     1      34.524 -17.727 -21.733  0.00  0.00    +0.252 C 
ENDBRANCH  18  23
ENDBRANCH  14  16
ENDBRANCH   2  14
TORSDOF 3
ENDMDL
MODEL 9
REMARK VINA RESULT:      -8.7      3.625      6.048
REMARK  Name = 16736529
REMARK  3 active torsions:
REMARK  status: ('A' for Active; 'I' for Inactive)
REMARK    1  A    between atoms: N_2  and  C_14
REMARK    2  A    between atoms: C_14  and  C_16
REMARK    3  A    between atoms: C_18  and  O_23
REMARK                            x       y       z     vdW  Elec       q    Type
REMARK                         _______ _______ _______ _____ _____    ______ ____
ROOT
ATOM      1 CL   UNL     1      34.945  -7.533 -23.757  0.00  0.00    -0.045 Cl
ATOM      2  N   UNL     1      33.080 -12.002 -24.042  0.00  0.00    -0.255 N 
ATOM      3  N   UNL     1      34.497 -10.497 -24.875  0.00  0.00    -0.241 NA
ATOM      4  N   UNL     1      32.134 -10.716 -22.211  0.00  0.00    -0.311 NA
ATOM      5  N   UNL     1      33.101  -8.477 -22.108  0.00  0.00    -0.315 NA
ATOM      6  N   UNL     1      31.472  -9.178 -20.577  0.00  0.00    -0.283 N 
ATOM      7  C   UNL     1      32.947 -10.887 -23.265  0.00  0.00    +0.220 C 
ATOM      8  C   UNL     1      33.833  -9.966 -23.798  0.00  0.00    +0.164 C 
ATOM      9  C   UNL     1      34.022 -11.719 -24.994  0.00  0.00    +0.222 C 
ATOM     10  C   UNL     1      33.895  -8.720 -23.179  0.00  0.00    +0.223 C 
ATOM     11  C   UNL     1      32.282  -9.475 -21.697  0.00  0.00    +0.198 C 
ATOM     12  H   UNL     1      30.853  -9.855 -20.223  0.00  0.00    +0.156 HD
ATOM     13  H   UNL     1      31.528  -8.291 -20.151  0.00  0.00    +0.156 HD
ENDROOT
BRANCH   2  14
ATOM     14  C   UNL     1      32.369 -13.249 -23.893  0.00  0.00    +0.141 C 
BRANCH  14  16
ATOM     15  N   UNL     1      33.679 -14.407 -22.221  0.00  0.00    -0.247 NA
ATOM     16  C   UNL     1      33.300 -14.371 -23.518  0.00  0.00    +0.078 C 
ATOM     17  C   UNL     1      33.715 -15.285 -24.474  0.00  0.00    +0.027 C 
ATOM     18  C   UNL     1      34.575 -16.300 -24.072  0.00  0.00    +0.133 C 
ATOM     19  C   UNL     1      34.987 -16.371 -22.745  0.00  0.00    +0.031 C 
ATOM     20  C   UNL     1      33.260 -15.187 -25.890  0.00  0.00    +0.036 C 
ATOM     21  C   UNL     1      34.515 -15.409 -21.867  0.00  0.00    +0.097 C 
ATOM     22  C   UNL     1      35.906 -17.439 -22.265  0.00  0.00    +0.036 C 
BRANCH  18  23
ATOM     23  O   UNL     1      35.014 -17.225 -24.972  0.00  0.00    -0.472 OA
ATOM     24  C   UNL     1      34.269 -18.436 -25.072  0.00  0.00    +0.252 C 
ENDBRANCH  18  23
ENDBRANCH  14  16
ENDBRANCH   2  14
TORSDOF 3
ENDMDL
