MODEL 1
REMARK VINA RESULT:      -6.7      0.000      0.000
REMARK  Name = 19
REMARK  4 active torsions:
REMARK  status: ('A' for Active; 'I' for Inactive)
REMARK    1  A    between atoms: C_1  and  C_12
REMARK    2  A    between atoms: C_2  and  O_7
REMARK    3  A    between atoms: C_3  and  O_9
REMARK    4  A    between atoms: C_12  and  O_13
REMARK                            x       y       z     vdW  Elec       q    Type
REMARK                         _______ _______ _______ _____ _____    ______ ____
ROOT
ATOM      1  C   UNL     1      38.979 -25.631 -14.145  0.00  0.00    +0.112 C 
ATOM      2  C   UNL     1      37.756 -25.943 -14.737  0.00  0.00    +0.174 C 
ATOM      3  C   UNL     1      36.566 -25.518 -14.145  0.00  0.00    +0.168 C 
ATOM      4  C   UNL     1      39.014 -24.893 -12.962  0.00  0.00    +0.010 C 
ATOM      5  C   UNL     1      36.600 -24.780 -12.962  0.00  0.00    +0.040 C 
ATOM      6  C   UNL     1      37.824 -24.466 -12.371  0.00  0.00    +0.004 C 
ENDROOT
BRANCH   2   7
ATOM      7  O   UNL     1      37.715 -26.665 -15.894  0.00  0.00    -0.503 OA
ATOM      8  H   UNL     1      37.121 -26.422 -16.576  0.00  0.00    +0.292 HD
ENDBRANCH   2   7
BRANCH   3   9
ATOM      9  O   UNL     1      35.364 -25.816 -14.711  0.00  0.00    -0.503 OA
ATOM     10  H   UNL     1      35.291 -26.540 -15.302  0.00  0.00    +0.292 HD
ENDBRANCH   3   9
BRANCH   1  12
ATOM     11  O   UNL     1      41.153 -26.630 -14.145  0.00  0.00    -0.245 OA
ATOM     12  C   UNL     1      40.234 -26.066 -14.744  0.00  0.00    +0.341 C 
BRANCH  12  13
ATOM     13  O   UNL     1      40.298 -25.785 -16.074  0.00  0.00    -0.477 OA
ATOM     14  H   UNL     1      40.218 -24.900 -16.370  0.00  0.00    +0.295 HD
ENDBRANCH  12  13
ENDBRANCH   1  12
TORSDOF 4
ENDMDL
MODEL 2
REMARK VINA RESULT:      -6.6      7.871      8.894
REMARK  Name = 19
REMARK  4 active torsions:
REMARK  status: ('A' for Active; 'I' for Inactive)
REMARK    1  A    between atoms: C_1  and  C_12
REMARK    2  A    between atoms: C_2  and  O_7
REMARK    3  A    between atoms: C_3  and  O_9
REMARK    4  A    between atoms: C_12  and  O_13
REMARK                            x       y       z     vdW  Elec       q    Type
REMARK                         _______ _______ _______ _____ _____    ______ ____
ROOT
ATOM      1  C   UNL     1      34.377 -21.318 -19.673  0.00  0.00    +0.112 C 
ATOM      2  C   UNL     1      35.478 -20.630 -20.184  0.00  0.00    +0.174 C 
ATOM      3  C   UNL     1      35.288 -19.483 -20.954  0.00  0.00    +0.168 C 
ATOM      4  C   UNL     1      33.086 -20.859 -19.932  0.00  0.00    +0.010 C 
ATOM      5  C   UNL     1      33.997 -19.023 -21.213  0.00  0.00    +0.040 C 
ATOM      6  C   UNL     1      32.896 -19.710 -20.702  0.00  0.00    +0.004 C 
ENDROOT
BRANCH   2   7
ATOM      7  O   UNL     1      36.744 -21.075 -19.933  0.00  0.00    -0.503 OA
ATOM      8  H   UNL     1      37.129 -20.939 -19.091  0.00  0.00    +0.292 HD
ENDBRANCH   2   7
BRANCH   3   9
ATOM      9  O   UNL     1      36.354 -18.802 -21.459  0.00  0.00    -0.503 OA
ATOM     10  H   UNL     1      36.298 -17.876 -21.591  0.00  0.00    +0.292 HD
ENDBRANCH   3   9
BRANCH   1  12
ATOM     11  O   UNL     1      35.212 -22.591 -17.828  0.00  0.00    -0.245 OA
ATOM     12  C   UNL     1      34.552 -22.519 -18.868  0.00  0.00    +0.341 C 
BRANCH  12  13
ATOM     13  O   UNL     1      33.895 -23.591 -19.387  0.00  0.00    -0.477 OA
ATOM     14  H   UNL     1      33.520 -23.542 -20.244  0.00  0.00    +0.295 HD
ENDBRANCH  12  13
ENDBRANCH   1  12
TORSDOF 4
ENDMDL
MODEL 3
REMARK VINA RESULT:      -6.5      7.759      8.975
REMARK  Name = 19
REMARK  4 active torsions:
REMARK  status: ('A' for Active; 'I' for Inactive)
REMARK    1  A    between atoms: C_1  and  C_12
REMARK    2  A    between atoms: C_2  and  O_7
REMARK    3  A    between atoms: C_3  and  O_9
REMARK    4  A    between atoms: C_12  and  O_13
REMARK                            x       y       z     vdW  Elec       q    Type
REMARK                         _______ _______ _______ _____ _____    ______ ____
ROOT
ATOM      1  C   UNL     1      34.373 -21.519 -19.589  0.00  0.00    +0.112 C 
ATOM      2  C   UNL     1      33.829 -20.464 -20.322  0.00  0.00    +0.174 C 
ATOM      3  C   UNL     1      34.667 -19.500 -20.883  0.00  0.00    +0.168 C 
ATOM      4  C   UNL     1      35.754 -21.610 -19.416  0.00  0.00    +0.010 C 
ATOM      5  C   UNL     1      36.049 -19.591 -20.711  0.00  0.00    +0.040 C 
ATOM      6  C   UNL     1      36.592 -20.646 -19.978  0.00  0.00    +0.004 C 
ENDROOT
BRANCH   2   7
ATOM      7  O   UNL     1      32.480 -20.369 -20.495  0.00  0.00    -0.503 OA
ATOM      8  H   UNL     1      32.044 -20.935 -21.101  0.00  0.00    +0.292 HD
ENDBRANCH   2   7
BRANCH   3   9
ATOM      9  O   UNL     1      34.151 -18.464 -21.601  0.00  0.00    -0.503 OA
ATOM     10  H   UNL     1      33.987 -18.566 -22.518  0.00  0.00    +0.292 HD
ENDBRANCH   3   9
BRANCH   1  12
ATOM     11  O   UNL     1      32.495 -22.314 -18.337  0.00  0.00    -0.245 OA
ATOM     12  C   UNL     1      33.517 -22.536 -18.993  0.00  0.00    +0.341 C 
BRANCH  12  13
ATOM     13  O   UNL     1      33.962 -23.797 -19.240  0.00  0.00    -0.477 OA
ATOM     14  H   UNL     1      34.864 -23.944 -19.446  0.00  0.00    +0.295 HD
ENDBRANCH  12  13
ENDBRANCH   1  12
TORSDOF 4
ENDMDL
MODEL 4
REMARK VINA RESULT:      -6.4      7.337      9.317
REMARK  Name = 19
REMARK  4 active torsions:
REMARK  status: ('A' for Active; 'I' for Inactive)
REMARK    1  A    between atoms: C_1  and  C_12
REMARK    2  A    between atoms: C_2  and  O_7
REMARK    3  A    between atoms: C_3  and  O_9
REMARK    4  A    between atoms: C_12  and  O_13
REMARK                            x       y       z     vdW  Elec       q    Type
REMARK                         _______ _______ _______ _____ _____    ______ ____
ROOT
ATOM      1  C   UNL     1      29.753 -23.558 -16.006  0.00  0.00    +0.112 C 
ATOM      2  C   UNL     1      29.695 -24.347 -14.856  0.00  0.00    +0.174 C 
ATOM      3  C   UNL     1      30.832 -24.511 -14.066  0.00  0.00    +0.168 C 
ATOM      4  C   UNL     1      30.948 -22.934 -16.364  0.00  0.00    +0.010 C 
ATOM      5  C   UNL     1      32.028 -23.887 -14.424  0.00  0.00    +0.040 C 
ATOM      6  C   UNL     1      32.085 -23.098 -15.572  0.00  0.00    +0.004 C 
ENDROOT
BRANCH   2   7
ATOM      7  O   UNL     1      28.530 -24.959 -14.500  0.00  0.00    -0.503 OA
ATOM      8  H   UNL     1      27.937 -24.533 -13.913  0.00  0.00    +0.292 HD
ENDBRANCH   2   7
BRANCH   3   9
ATOM      9  O   UNL     1      30.791 -25.278 -12.941  0.00  0.00    -0.503 OA
ATOM     10  H   UNL     1      31.104 -26.161 -12.964  0.00  0.00    +0.292 HD
ENDBRANCH   3   9
BRANCH   1  12
ATOM     11  O   UNL     1      27.879 -24.281 -17.305  0.00  0.00    -0.245 OA
ATOM     12  C   UNL     1      28.579 -23.374 -16.847  0.00  0.00    +0.341 C 
BRANCH  12  13
ATOM     13  O   UNL     1      28.315 -22.061 -17.087  0.00  0.00    -0.477 OA
ATOM     14  H   UNL     1      27.570 -21.819 -17.601  0.00  0.00    +0.295 HD
ENDBRANCH  12  13
ENDBRANCH   1  12
TORSDOF 4
ENDMDL
MODEL 5
REMARK VINA RESULT:      -6.4      8.250      9.187
REMARK  Name = 19
REMARK  4 active torsions:
REMARK  status: ('A' for Active; 'I' for Inactive)
REMARK    1  A    between atoms: C_1  and  C_12
REMARK    2  A    between atoms: C_2  and  O_7
REMARK    3  A    between atoms: C_3  and  O_9
REMARK    4  A    between atoms: C_12  and  O_13
REMARK                            x       y       z     vdW  Elec       q    Type
REMARK                         _______ _______ _______ _____ _____    ______ ____
ROOT
ATOM      1  C   UNL     1      34.887 -20.059 -20.544  0.00  0.00    +0.112 C 
ATOM      2  C   UNL     1      33.704 -20.658 -20.111  0.00  0.00    +0.174 C 
ATOM      3  C   UNL     1      33.752 -21.737 -19.229  0.00  0.00    +0.168 C 
ATOM      4  C   UNL     1      36.117 -20.537 -20.094  0.00  0.00    +0.010 C 
ATOM      5  C   UNL     1      34.982 -22.217 -18.779  0.00  0.00    +0.040 C 
ATOM      6  C   UNL     1      36.165 -21.617 -19.211  0.00  0.00    +0.004 C 
ENDROOT
BRANCH   2   7
ATOM      7  O   UNL     1      32.498 -20.194 -20.547  0.00  0.00    -0.503 OA
ATOM      8  H   UNL     1      32.023 -19.571 -20.034  0.00  0.00    +0.292 HD
ENDBRANCH   2   7
BRANCH   3   9
ATOM      9  O   UNL     1      32.606 -22.333 -18.798  0.00  0.00    -0.503 OA
ATOM     10  H   UNL     1      32.168 -22.010 -18.035  0.00  0.00    +0.292 HD
ENDBRANCH   3   9
BRANCH   1  12
ATOM     11  O   UNL     1      34.440 -18.968 -22.626  0.00  0.00    -0.245 OA
ATOM     12  C   UNL     1      34.861 -18.931 -21.466  0.00  0.00    +0.341 C 
BRANCH  12  13
ATOM     13  O   UNL     1      35.360 -17.795 -20.910  0.00  0.00    -0.477 OA
ATOM     14  H   UNL     1      36.065 -17.339 -21.325  0.00  0.00    +0.295 HD
ENDBRANCH  12  13
ENDBRANCH   1  12
TORSDOF 4
ENDMDL
MODEL 6
REMARK VINA RESULT:      -6.4     12.340     13.037
REMARK  Name = 19
REMARK  4 active torsions:
REMARK  status: ('A' for Active; 'I' for Inactive)
REMARK    1  A    between atoms: C_1  and  C_12
REMARK    2  A    between atoms: C_2  and  O_7
REMARK    3  A    between atoms: C_3  and  O_9
REMARK    4  A    between atoms: C_12  and  O_13
REMARK                            x       y       z     vdW  Elec       q    Type
REMARK                         _______ _______ _______ _____ _____    ______ ____
ROOT
ATOM      1  C   UNL     1      35.006 -17.669 -22.578  0.00  0.00    +0.112 C 
ATOM      2  C   UNL     1      34.891 -16.697 -23.572  0.00  0.00    +0.174 C 
ATOM      3  C   UNL     1      34.632 -17.074 -24.889  0.00  0.00    +0.168 C 
ATOM      4  C   UNL     1      34.860 -19.018 -22.901  0.00  0.00    +0.010 C 
ATOM      5  C   UNL     1      34.486 -18.423 -25.213  0.00  0.00    +0.040 C 
ATOM      6  C   UNL     1      34.599 -19.395 -24.219  0.00  0.00    +0.004 C 
ENDROOT
BRANCH   2   7
ATOM      7  O   UNL     1      35.032 -15.376 -23.262  0.00  0.00    -0.503 OA
ATOM      8  H   UNL     1      35.280 -15.122 -22.395  0.00  0.00    +0.292 HD
ENDBRANCH   2   7
BRANCH   3   9
ATOM      9  O   UNL     1      34.518 -16.136 -25.870  0.00  0.00    -0.503 OA
ATOM     10  H   UNL     1      34.183 -16.376 -26.711  0.00  0.00    +0.292 HD
ENDBRANCH   3   9
BRANCH   1  12
ATOM     11  O   UNL     1      35.015 -16.206 -20.685  0.00  0.00    -0.245 OA
ATOM     12  C   UNL     1      35.278 -17.299 -21.196  0.00  0.00    +0.341 C 
BRANCH  12  13
ATOM     13  O   UNL     1      35.867 -18.305 -20.496  0.00  0.00    -0.477 OA
ATOM     14  H   UNL     1      36.638 -18.137 -19.990  0.00  0.00    +0.295 HD
ENDBRANCH  12  13
ENDBRANCH   1  12
TORSDOF 4
ENDMDL
MODEL 7
REMARK VINA RESULT:      -6.2     11.143     11.890
REMARK  Name = 19
REMARK  4 active torsions:
REMARK  status: ('A' for Active; 'I' for Inactive)
REMARK    1  A    between atoms: C_1  and  C_12
REMARK    2  A    between atoms: C_2  and  O_7
REMARK    3  A    between atoms: C_3  and  O_9
REMARK    4  A    between atoms: C_12  and  O_13
REMARK                            x       y       z     vdW  Elec       q    Type
REMARK                         _______ _______ _______ _____ _____    ______ ____
ROOT
ATOM      1  C   UNL     1      35.028 -18.730 -21.967  0.00  0.00    +0.112 C 
ATOM      2  C   UNL     1      35.080 -17.344 -21.814  0.00  0.00    +0.174 C 
ATOM      3  C   UNL     1      34.959 -16.515 -22.929  0.00  0.00    +0.168 C 
ATOM      4  C   UNL     1      34.854 -19.286 -23.234  0.00  0.00    +0.010 C 
ATOM      5  C   UNL     1      34.785 -17.071 -24.197  0.00  0.00    +0.040 C 
ATOM      6  C   UNL     1      34.732 -18.456 -24.349  0.00  0.00    +0.004 C 
ENDROOT
BRANCH   2   7
ATOM      7  O   UNL     1      35.248 -16.794 -20.578  0.00  0.00    -0.503 OA
ATOM      8  H   UNL     1      34.504 -16.620 -20.037  0.00  0.00    +0.292 HD
ENDBRANCH   2   7
BRANCH   3   9
ATOM      9  O   UNL     1      35.008 -15.161 -22.796  0.00  0.00    -0.503 OA
ATOM     10  H   UNL     1      35.501 -14.647 -23.405  0.00  0.00    +0.292 HD
ENDBRANCH   3   9
BRANCH   1  12
ATOM     11  O   UNL     1      34.273 -20.374 -20.401  0.00  0.00    -0.245 OA
ATOM     12  C   UNL     1      35.153 -19.615 -20.817  0.00  0.00    +0.341 C 
BRANCH  12  13
ATOM     13  O   UNL     1      36.375 -19.525 -20.225  0.00  0.00    -0.477 OA
ATOM     14  H   UNL     1      36.674 -18.704 -19.888  0.00  0.00    +0.295 HD
ENDBRANCH  12  13
ENDBRANCH   1  12
TORSDOF 4
ENDMDL
MODEL 8
REMARK VINA RESULT:      -6.2      6.854      9.335
REMARK  Name = 19
REMARK  4 active torsions:
REMARK  status: ('A' for Active; 'I' for Inactive)
REMARK    1  A    between atoms: C_1  and  C_12
REMARK    2  A    between atoms: C_2  and  O_7
REMARK    3  A    between atoms: C_3  and  O_9
REMARK    4  A    between atoms: C_12  and  O_13
REMARK                            x       y       z     vdW  Elec       q    Type
REMARK                         _______ _______ _______ _____ _____    ______ ____
ROOT
ATOM      1  C   UNL     1      29.517 -23.679 -16.034  0.00  0.00    +0.112 C 
ATOM      2  C   UNL     1      30.816 -23.225 -16.261  0.00  0.00    +0.174 C 
ATOM      3  C   UNL     1      31.855 -23.642 -15.430  0.00  0.00    +0.168 C 
ATOM      4  C   UNL     1      29.257 -24.551 -14.976  0.00  0.00    +0.010 C 
ATOM      5  C   UNL     1      31.596 -24.513 -14.372  0.00  0.00    +0.040 C 
ATOM      6  C   UNL     1      30.297 -24.968 -14.145  0.00  0.00    +0.004 C 
ENDROOT
BRANCH   2   7
ATOM      7  O   UNL     1      31.077 -22.374 -17.295  0.00  0.00    -0.503 OA
ATOM      8  H   UNL     1      31.450 -21.532 -17.125  0.00  0.00    +0.292 HD
ENDBRANCH   2   7
BRANCH   3   9
ATOM      9  O   UNL     1      33.128 -23.206 -15.639  0.00  0.00    -0.503 OA
ATOM     10  H   UNL     1      33.853 -23.775 -15.467  0.00  0.00    +0.292 HD
ENDBRANCH   3   9
BRANCH   1  12
ATOM     11  O   UNL     1      27.707 -24.008 -17.564  0.00  0.00    -0.245 OA
ATOM     12  C   UNL     1      28.416 -23.256 -16.889  0.00  0.00    +0.341 C 
BRANCH  12  13
ATOM     13  O   UNL     1      28.233 -21.908 -16.870  0.00  0.00    -0.477 OA
ATOM     14  H   UNL     1      28.124 -21.439 -17.673  0.00  0.00    +0.295 HD
ENDBRANCH  12  13
ENDBRANCH   1  12
TORSDOF 4
ENDMDL
MODEL 9
REMARK VINA RESULT:      -6.1     13.103     13.735
REMARK  Name = 19
REMARK  4 active torsions:
REMARK  status: ('A' for Active; 'I' for Inactive)
REMARK    1  A    between atoms: C_1  and  C_12
REMARK    2  A    between atoms: C_2  and  O_7
REMARK    3  A    between atoms: C_3  and  O_9
REMARK    4  A    between atoms: C_12  and  O_13
REMARK                            x       y       z     vdW  Elec       q    Type
REMARK                         _______ _______ _______ _____ _____    ______ ____
ROOT
ATOM      1  C   UNL     1      34.480 -16.022 -22.322  0.00  0.00    +0.112 C 
ATOM      2  C   UNL     1      34.902 -16.681 -23.477  0.00  0.00    +0.174 C 
ATOM      3  C   UNL     1      34.453 -16.255 -24.726  0.00  0.00    +0.168 C 
ATOM      4  C   UNL     1      33.610 -14.936 -22.417  0.00  0.00    +0.010 C 
ATOM      5  C   UNL     1      33.583 -15.169 -24.822  0.00  0.00    +0.040 C 
ATOM      6  C   UNL     1      33.162 -14.509 -23.668  0.00  0.00    +0.004 C 
ENDROOT
BRANCH   2   7
ATOM      7  O   UNL     1      35.753 -17.744 -23.390  0.00  0.00    -0.503 OA
ATOM      8  H   UNL     1      35.916 -18.148 -22.561  0.00  0.00    +0.292 HD
ENDBRANCH   2   7
BRANCH   3   9
ATOM      9  O   UNL     1      34.857 -16.889 -25.862  0.00  0.00    -0.503 OA
ATOM     10  H   UNL     1      34.734 -16.480 -26.696  0.00  0.00    +0.292 HD
ENDBRANCH   3   9
BRANCH   1  12
ATOM     11  O   UNL     1      35.320 -17.589 -20.720  0.00  0.00    -0.245 OA
ATOM     12  C   UNL     1      34.934 -16.452 -21.006  0.00  0.00    +0.341 C 
BRANCH  12  13
ATOM     13  O   UNL     1      34.895 -15.446 -20.091  0.00  0.00    -0.477 OA
ATOM     14  H   UNL     1      35.640 -15.274 -19.550  0.00  0.00    +0.295 HD
ENDBRANCH  12  13
ENDBRANCH   1  12
TORSDOF 4
ENDMDL
