MODEL 1
REMARK VINA RESULT:      -9.0      0.000      0.000
REMARK  Name = 1484819
REMARK  3 active torsions:
REMARK  status: ('A' for Active; 'I' for Inactive)
REMARK    1  A    between atoms: N_2  and  C_8
REMARK    2  A    between atoms: C_5  and  C_16
REMARK    3  A    between atoms: C_16  and  C_17
REMARK                            x       y       z     vdW  Elec       q    Type
REMARK                         _______ _______ _______ _____ _____    ______ ____
ROOT
ATOM      1  S   UNL     1      34.635 -16.049 -20.987  0.00  0.00    -0.052 S 
ATOM      2  N   UNL     1      33.444 -13.913 -22.033  0.00  0.00    -0.307 N 
ATOM      3  N   UNL     1      34.249 -15.583 -23.501  0.00  0.00    -0.370 NA
ATOM      4  C   UNL     1      34.068 -15.116 -22.298  0.00  0.00    +0.209 C 
ATOM      5  C   UNL     1      35.189 -17.217 -22.115  0.00  0.00    +0.183 C 
ATOM      6  C   UNL     1      34.899 -16.798 -23.395  0.00  0.00    +0.174 C 
ATOM      7  H   UNL     1      33.347 -13.635 -21.094  0.00  0.00    +0.150 HD
ATOM      8  N   UNL     1      35.210 -17.503 -24.509  0.00  0.00    -0.335 N 
ATOM      9  H   UNL     1      34.974 -17.151 -25.398  0.00  0.00    +0.144 HD
ATOM     10  H   UNL     1      35.671 -18.369 -24.431  0.00  0.00    +0.144 HD
ENDROOT
BRANCH   2  11
ATOM     11  C   UNL     1      32.925 -13.037 -23.067  0.00  0.00    +0.057 C 
ATOM     12  C   UNL     1      32.180 -13.875 -24.113  0.00  0.00    +0.020 C 
ATOM     13  C   UNL     1      31.964 -12.026 -22.432  0.00  0.00    +0.020 C 
ATOM     14  C   UNL     1      34.089 -12.297 -23.737  0.00  0.00    +0.020 C 
ENDBRANCH   2  11
BRANCH   5  16
ATOM     15  O   UNL     1      37.059 -18.626 -21.804  0.00  0.00    -0.290 OA
ATOM     16  C   UNL     1      35.840 -18.396 -21.646  0.00  0.00    +0.191 C 
BRANCH  16  17
ATOM     17  C   UNL     1      35.084 -19.472 -20.926  0.00  0.00    +0.036 C 
ATOM     18  C   UNL     1      35.797 -20.426 -20.243  0.00  0.00    +0.003 C 
ATOM     19  C   UNL     1      33.713 -19.454 -20.983  0.00  0.00    +0.003 C 
ATOM     20  C   UNL     1      35.092 -21.426 -19.572  0.00  0.00    +0.000 C 
ATOM     21  C   UNL     1      33.007 -20.454 -20.313  0.00  0.00    +0.000 C 
ATOM     22  C   UNL     1      33.698 -21.440 -19.607  0.00  0.00    +0.000 C 
ENDBRANCH  16  17
ENDBRANCH   5  16
TORSDOF 3
ENDMDL
MODEL 2
REMARK VINA RESULT:      -8.9      3.772      5.613
REMARK  Name = 1484819
REMARK  3 active torsions:
REMARK  status: ('A' for Active; 'I' for Inactive)
REMARK    1  A    between atoms: N_2  and  C_8
REMARK    2  A    between atoms: C_5  and  C_16
REMARK    3  A    between atoms: C_16  and  C_17
REMARK                            x       y       z     vdW  Elec       q    Type
REMARK                         _______ _______ _______ _____ _____    ______ ____
ROOT
ATOM      1  S   UNL     1      33.091 -20.886 -20.312  0.00  0.00    -0.052 S 
ATOM      2  N   UNL     1      33.967 -18.636 -21.427  0.00  0.00    -0.307 N 
ATOM      3  N   UNL     1      35.511 -19.978 -20.242  0.00  0.00    -0.370 NA
ATOM      4  C   UNL     1      34.307 -19.747 -20.681  0.00  0.00    +0.209 C 
ATOM      5  C   UNL     1      34.270 -21.806 -19.472  0.00  0.00    +0.183 C 
ATOM      6  C   UNL     1      35.490 -21.168 -19.541  0.00  0.00    +0.174 C 
ATOM      7  H   UNL     1      33.033 -18.539 -21.721  0.00  0.00    +0.150 HD
ATOM      8  N   UNL     1      36.625 -21.645 -18.974  0.00  0.00    -0.335 N 
ATOM      9  H   UNL     1      37.467 -21.143 -19.059  0.00  0.00    +0.144 HD
ATOM     10  H   UNL     1      36.607 -22.495 -18.476  0.00  0.00    +0.144 HD
ENDROOT
BRANCH   2  11
ATOM     11  C   UNL     1      34.916 -17.603 -21.800  0.00  0.00    +0.057 C 
ATOM     12  C   UNL     1      34.505 -17.001 -23.149  0.00  0.00    +0.020 C 
ATOM     13  C   UNL     1      34.919 -16.512 -20.724  0.00  0.00    +0.020 C 
ATOM     14  C   UNL     1      36.316 -18.219 -21.918  0.00  0.00    +0.020 C 
ENDBRANCH   2  11
BRANCH   5  16
ATOM     15  O   UNL     1      33.887 -24.136 -19.419  0.00  0.00    -0.290 OA
ATOM     16  C   UNL     1      33.892 -23.028 -18.841  0.00  0.00    +0.191 C 
BRANCH  16  17
ATOM     17  C   UNL     1      33.452 -23.063 -17.408  0.00  0.00    +0.036 C 
ATOM     18  C   UNL     1      32.108 -22.989 -17.135  0.00  0.00    +0.003 C 
ATOM     19  C   UNL     1      34.413 -23.167 -16.433  0.00  0.00    +0.003 C 
ATOM     20  C   UNL     1      31.700 -23.023 -15.802  0.00  0.00    +0.000 C 
ATOM     21  C   UNL     1      34.005 -23.201 -15.100  0.00  0.00    +0.000 C 
ATOM     22  C   UNL     1      32.648 -23.129 -14.784  0.00  0.00    +0.000 C 
ENDBRANCH  16  17
ENDBRANCH   5  16
TORSDOF 3
ENDMDL
MODEL 3
REMARK VINA RESULT:      -8.7      1.357      2.384
REMARK  Name = 1484819
REMARK  3 active torsions:
REMARK  status: ('A' for Active; 'I' for Inactive)
REMARK    1  A    between atoms: N_2  and  C_8
REMARK    2  A    between atoms: C_5  and  C_16
REMARK    3  A    between atoms: C_16  and  C_17
REMARK                            x       y       z     vdW  Elec       q    Type
REMARK                         _______ _______ _______ _____ _____    ______ ____
ROOT
ATOM      1  S   UNL     1      34.971 -17.447 -23.965  0.00  0.00    -0.052 S 
ATOM      2  N   UNL     1      33.796 -15.307 -25.021  0.00  0.00    -0.307 N 
ATOM      3  N   UNL     1      34.166 -15.349 -22.686  0.00  0.00    -0.370 NA
ATOM      4  C   UNL     1      34.252 -15.902 -23.862  0.00  0.00    +0.209 C 
ATOM      5  C   UNL     1      35.207 -17.401 -22.266  0.00  0.00    +0.183 C 
ATOM      6  C   UNL     1      34.718 -16.216 -21.762  0.00  0.00    +0.174 C 
ATOM      7  H   UNL     1      33.901 -15.794 -25.869  0.00  0.00    +0.150 HD
ATOM      8  N   UNL     1      34.757 -15.879 -20.450  0.00  0.00    -0.335 N 
ATOM      9  H   UNL     1      34.391 -15.016 -20.152  0.00  0.00    +0.144 HD
ATOM     10  H   UNL     1      35.151 -16.499 -19.795  0.00  0.00    +0.144 HD
ENDROOT
BRANCH   2  11
ATOM     11  C   UNL     1      33.168 -13.998 -25.053  0.00  0.00    +0.057 C 
ATOM     12  C   UNL     1      34.238 -12.919 -24.848  0.00  0.00    +0.020 C 
ATOM     13  C   UNL     1      32.487 -13.802 -26.412  0.00  0.00    +0.020 C 
ATOM     14  C   UNL     1      32.126 -13.908 -23.932  0.00  0.00    +0.020 C 
ENDBRANCH   2  11
BRANCH   5  16
ATOM     15  O   UNL     1      37.064 -18.696 -21.593  0.00  0.00    -0.290 OA
ATOM     16  C   UNL     1      35.829 -18.505 -21.611  0.00  0.00    +0.191 C 
BRANCH  16  17
ATOM     17  C   UNL     1      35.020 -19.545 -20.896  0.00  0.00    +0.036 C 
ATOM     18  C   UNL     1      33.650 -19.448 -20.936  0.00  0.00    +0.003 C 
ATOM     19  C   UNL     1      35.685 -20.546 -20.233  0.00  0.00    +0.003 C 
ATOM     20  C   UNL     1      32.899 -20.418 -20.271  0.00  0.00    +0.000 C 
ATOM     21  C   UNL     1      34.933 -21.515 -19.568  0.00  0.00    +0.000 C 
ATOM     22  C   UNL     1      33.540 -21.450 -19.587  0.00  0.00    +0.000 C 
ENDBRANCH  16  17
ENDBRANCH   5  16
TORSDOF 3
ENDMDL
MODEL 4
REMARK VINA RESULT:      -8.4      2.461      6.988
REMARK  Name = 1484819
REMARK  3 active torsions:
REMARK  status: ('A' for Active; 'I' for Inactive)
REMARK    1  A    between atoms: N_2  and  C_8
REMARK    2  A    between atoms: C_5  and  C_16
REMARK    3  A    between atoms: C_16  and  C_17
REMARK                            x       y       z     vdW  Elec       q    Type
REMARK                         _______ _______ _______ _____ _____    ______ ____
ROOT
ATOM      1  S   UNL     1      34.501 -14.517 -22.091  0.00  0.00    -0.052 S 
ATOM      2  N   UNL     1      35.117 -17.056 -21.595  0.00  0.00    -0.307 N 
ATOM      3  N   UNL     1      34.248 -16.506 -23.724  0.00  0.00    -0.370 NA
ATOM      4  C   UNL     1      34.625 -16.163 -22.525  0.00  0.00    +0.209 C 
ATOM      5  C   UNL     1      33.879 -14.197 -23.657  0.00  0.00    +0.183 C 
ATOM      6  C   UNL     1      33.815 -15.369 -24.379  0.00  0.00    +0.174 C 
ATOM      7  H   UNL     1      35.381 -16.713 -20.711  0.00  0.00    +0.150 HD
ATOM      8  N   UNL     1      33.366 -15.448 -25.655  0.00  0.00    -0.335 N 
ATOM      9  H   UNL     1      33.346 -16.316 -26.118  0.00  0.00    +0.144 HD
ATOM     10  H   UNL     1      33.060 -14.635 -26.119  0.00  0.00    +0.144 HD
ENDROOT
BRANCH   2  11
ATOM     11  C   UNL     1      35.266 -18.478 -21.852  0.00  0.00    +0.057 C 
ATOM     12  C   UNL     1      36.417 -19.028 -21.002  0.00  0.00    +0.020 C 
ATOM     13  C   UNL     1      33.961 -19.193 -21.486  0.00  0.00    +0.020 C 
ATOM     14  C   UNL     1      35.577 -18.693 -23.338  0.00  0.00    +0.020 C 
ENDBRANCH   2  11
BRANCH   5  16
ATOM     15  O   UNL     1      33.811 -12.335 -25.109  0.00  0.00    -0.290 OA
ATOM     16  C   UNL     1      33.520 -12.863 -24.014  0.00  0.00    +0.191 C 
BRANCH  16  17
ATOM     17  C   UNL     1      32.762 -11.980 -23.069  0.00  0.00    +0.036 C 
ATOM     18  C   UNL     1      31.994 -12.571 -22.096  0.00  0.00    +0.003 C 
ATOM     19  C   UNL     1      32.871 -10.620 -23.220  0.00  0.00    +0.003 C 
ATOM     20  C   UNL     1      31.291 -11.748 -21.216  0.00  0.00    +0.000 C 
ATOM     21  C   UNL     1      32.167  -9.797 -22.340  0.00  0.00    +0.000 C 
ATOM     22  C   UNL     1      31.377 -10.361 -21.338  0.00  0.00    +0.000 C 
ENDBRANCH  16  17
ENDBRANCH   5  16
TORSDOF 3
ENDMDL
MODEL 5
REMARK VINA RESULT:      -8.4      3.930      5.843
REMARK  Name = 1484819
REMARK  3 active torsions:
REMARK  status: ('A' for Active; 'I' for Inactive)
REMARK    1  A    between atoms: N_2  and  C_8
REMARK    2  A    between atoms: C_5  and  C_16
REMARK    3  A    between atoms: C_16  and  C_17
REMARK                            x       y       z     vdW  Elec       q    Type
REMARK                         _______ _______ _______ _____ _____    ______ ____
ROOT
ATOM      1  S   UNL     1      31.963 -11.568 -22.454  0.00  0.00    -0.052 S 
ATOM      2  N   UNL     1      31.924  -8.930 -22.119  0.00  0.00    -0.307 N 
ATOM      3  N   UNL     1      33.438  -9.842 -23.691  0.00  0.00    -0.370 NA
ATOM      4  C   UNL     1      32.501  -9.986 -22.797  0.00  0.00    +0.209 C 
ATOM      5  C   UNL     1      33.085 -12.153 -23.613  0.00  0.00    +0.183 C 
ATOM      6  C   UNL     1      33.777 -11.095 -24.162  0.00  0.00    +0.174 C 
ATOM      7  H   UNL     1      31.221  -9.127 -21.460  0.00  0.00    +0.150 HD
ATOM      8  N   UNL     1      34.736 -11.230 -25.110  0.00  0.00    -0.335 N 
ATOM      9  H   UNL     1      35.194 -10.434 -25.464  0.00  0.00    +0.144 HD
ATOM     10  H   UNL     1      34.975 -12.125 -25.444  0.00  0.00    +0.144 HD
ENDROOT
BRANCH   2  11
ATOM     11  C   UNL     1      32.302  -7.544 -22.328  0.00  0.00    +0.057 C 
ATOM     12  C   UNL     1      33.807  -7.467 -22.609  0.00  0.00    +0.020 C 
ATOM     13  C   UNL     1      31.522  -6.986 -23.523  0.00  0.00    +0.020 C 
ATOM     14  C   UNL     1      31.972  -6.733 -21.069  0.00  0.00    +0.020 C 
ENDBRANCH   2  11
BRANCH   5  16
ATOM     15  O   UNL     1      32.813 -14.098 -24.924  0.00  0.00    -0.290 OA
ATOM     16  C   UNL     1      33.178 -13.555 -23.859  0.00  0.00    +0.191 C 
BRANCH  16  17
ATOM     17  C   UNL     1      33.720 -14.495 -22.825  0.00  0.00    +0.036 C 
ATOM     18  C   UNL     1      33.377 -14.290 -21.511  0.00  0.00    +0.003 C 
ATOM     19  C   UNL     1      34.535 -15.519 -23.239  0.00  0.00    +0.003 C 
ATOM     20  C   UNL     1      33.881 -15.167 -20.551  0.00  0.00    +0.000 C 
ATOM     21  C   UNL     1      35.040 -16.395 -22.278  0.00  0.00    +0.000 C 
ATOM     22  C   UNL     1      34.712 -16.219 -20.933  0.00  0.00    +0.000 C 
ENDBRANCH  16  17
ENDBRANCH   5  16
TORSDOF 3
ENDMDL
MODEL 6
REMARK VINA RESULT:      -8.3      4.787      6.538
REMARK  Name = 1484819
REMARK  3 active torsions:
REMARK  status: ('A' for Active; 'I' for Inactive)
REMARK    1  A    between atoms: N_2  and  C_8
REMARK    2  A    between atoms: C_5  and  C_16
REMARK    3  A    between atoms: C_16  and  C_17
REMARK                            x       y       z     vdW  Elec       q    Type
REMARK                         _______ _______ _______ _____ _____    ______ ____
ROOT
ATOM      1  S   UNL     1      33.536 -11.243 -23.625  0.00  0.00    -0.052 S 
ATOM      2  N   UNL     1      33.152  -8.621 -23.848  0.00  0.00    -0.307 N 
ATOM      3  N   UNL     1      31.653  -9.867 -22.510  0.00  0.00    -0.370 NA
ATOM      4  C   UNL     1      32.696  -9.797 -23.288  0.00  0.00    +0.209 C 
ATOM      5  C   UNL     1      32.410 -12.077 -22.636  0.00  0.00    +0.183 C 
ATOM      6  C   UNL     1      31.486 -11.185 -22.133  0.00  0.00    +0.174 C 
ATOM      7  H   UNL     1      33.949  -8.657 -24.424  0.00  0.00    +0.150 HD
ATOM      8  N   UNL     1      30.465 -11.537 -21.315  0.00  0.00    -0.335 N 
ATOM      9  H   UNL     1      29.838 -10.852 -20.988  0.00  0.00    +0.144 HD
ATOM     10  H   UNL     1      30.350 -12.477 -21.048  0.00  0.00    +0.144 HD
ENDROOT
BRANCH   2  11
ATOM     11  C   UNL     1      32.517  -7.333 -23.633  0.00  0.00    +0.057 C 
ATOM     12  C   UNL     1      32.655  -6.943 -22.157  0.00  0.00    +0.020 C 
ATOM     13  C   UNL     1      33.201  -6.283 -24.514  0.00  0.00    +0.020 C 
ATOM     14  C   UNL     1      31.032  -7.433 -24.001  0.00  0.00    +0.020 C 
ENDBRANCH   2  11
BRANCH   5  16
ATOM     15  O   UNL     1      32.199 -14.087 -21.415  0.00  0.00    -0.290 OA
ATOM     16  C   UNL     1      32.536 -13.486 -22.458  0.00  0.00    +0.191 C 
BRANCH  16  17
ATOM     17  C   UNL     1      33.109 -14.361 -23.532  0.00  0.00    +0.036 C 
ATOM     18  C   UNL     1      34.022 -15.322 -23.174  0.00  0.00    +0.003 C 
ATOM     19  C   UNL     1      32.694 -14.161 -24.825  0.00  0.00    +0.003 C 
ATOM     20  C   UNL     1      34.552 -16.136 -24.175  0.00  0.00    +0.000 C 
ATOM     21  C   UNL     1      33.226 -14.974 -25.826  0.00  0.00    +0.000 C 
ATOM     22  C   UNL     1      34.155 -15.962 -25.501  0.00  0.00    +0.000 C 
ENDBRANCH  16  17
ENDBRANCH   5  16
TORSDOF 3
ENDMDL
MODEL 7
REMARK VINA RESULT:      -8.1      3.645      5.488
REMARK  Name = 1484819
REMARK  3 active torsions:
REMARK  status: ('A' for Active; 'I' for Inactive)
REMARK    1  A    between atoms: N_2  and  C_8
REMARK    2  A    between atoms: C_5  and  C_16
REMARK    3  A    between atoms: C_16  and  C_17
REMARK                            x       y       z     vdW  Elec       q    Type
REMARK                         _______ _______ _______ _____ _____    ______ ____
ROOT
ATOM      1  S   UNL     1      34.153 -11.409 -24.486  0.00  0.00    -0.052 S 
ATOM      2  N   UNL     1      33.511  -8.902 -23.871  0.00  0.00    -0.307 N 
ATOM      3  N   UNL     1      32.321 -10.656 -22.824  0.00  0.00    -0.370 NA
ATOM      4  C   UNL     1      33.240 -10.237 -23.646  0.00  0.00    +0.209 C 
ATOM      5  C   UNL     1      33.247 -12.625 -23.684  0.00  0.00    +0.183 C 
ATOM      6  C   UNL     1      32.324 -12.038 -22.845  0.00  0.00    +0.174 C 
ATOM      7  H   UNL     1      34.224  -8.672 -24.508  0.00  0.00    +0.150 HD
ATOM      8  N   UNL     1      31.456 -12.733 -22.072  0.00  0.00    -0.335 N 
ATOM      9  H   UNL     1      30.820 -12.255 -21.492  0.00  0.00    +0.144 HD
ATOM     10  H   UNL     1      31.462 -13.718 -22.089  0.00  0.00    +0.144 HD
ENDROOT
BRANCH   2  11
ATOM     11  C   UNL     1      32.799  -7.820 -23.215  0.00  0.00    +0.057 C 
ATOM     12  C   UNL     1      31.290  -8.049 -23.356  0.00  0.00    +0.020 C 
ATOM     13  C   UNL     1      33.184  -7.794 -21.732  0.00  0.00    +0.020 C 
ATOM     14  C   UNL     1      33.181  -6.489 -23.874  0.00  0.00    +0.020 C 
ENDBRANCH   2  11
BRANCH   5  16
ATOM     15  O   UNL     1      33.345 -14.538 -25.065  0.00  0.00    -0.290 OA
ATOM     16  C   UNL     1      33.520 -13.999 -23.951  0.00  0.00    +0.191 C 
BRANCH  16  17
ATOM     17  C   UNL     1      34.035 -14.915 -22.881  0.00  0.00    +0.036 C 
ATOM     18  C   UNL     1      34.099 -14.444 -21.593  0.00  0.00    +0.003 C 
ATOM     19  C   UNL     1      34.417 -16.184 -23.239  0.00  0.00    +0.003 C 
ATOM     20  C   UNL     1      34.576 -15.298 -20.599  0.00  0.00    +0.000 C 
ATOM     21  C   UNL     1      34.895 -17.038 -22.244  0.00  0.00    +0.000 C 
ATOM     22  C   UNL     1      34.974 -16.594 -20.924  0.00  0.00    +0.000 C 
ENDBRANCH  16  17
ENDBRANCH   5  16
TORSDOF 3
ENDMDL
MODEL 8
REMARK VINA RESULT:      -8.0      9.330     10.448
REMARK  Name = 1484819
REMARK  3 active torsions:
REMARK  status: ('A' for Active; 'I' for Inactive)
REMARK    1  A    between atoms: N_2  and  C_8
REMARK    2  A    between atoms: C_5  and  C_16
REMARK    3  A    between atoms: C_16  and  C_17
REMARK                            x       y       z     vdW  Elec       q    Type
REMARK                         _______ _______ _______ _____ _____    ______ ____
ROOT
ATOM      1  S   UNL     1      33.239 -23.296 -17.164  0.00  0.00    -0.052 S 
ATOM      2  N   UNL     1      30.600 -23.316 -16.827  0.00  0.00    -0.307 N 
ATOM      3  N   UNL     1      31.979 -23.511 -14.916  0.00  0.00    -0.370 NA
ATOM      4  C   UNL     1      31.831 -23.384 -16.204  0.00  0.00    +0.209 C 
ATOM      5  C   UNL     1      34.171 -23.439 -15.731  0.00  0.00    +0.183 C 
ATOM      6  C   UNL     1      33.333 -23.544 -14.642  0.00  0.00    +0.174 C 
ATOM      7  H   UNL     1      30.578 -23.218 -17.806  0.00  0.00    +0.150 HD
ATOM      8  N   UNL     1      33.766 -23.670 -13.365  0.00  0.00    -0.335 N 
ATOM      9  H   UNL     1      33.117 -23.740 -12.628  0.00  0.00    +0.144 HD
ATOM     10  H   UNL     1      34.732 -23.693 -13.173  0.00  0.00    +0.144 HD
ENDROOT
BRANCH   2  11
ATOM     11  C   UNL     1      29.338 -23.381 -16.113  0.00  0.00    +0.057 C 
ATOM     12  C   UNL     1      28.183 -23.280 -17.117  0.00  0.00    +0.020 C 
ATOM     13  C   UNL     1      29.256 -24.712 -15.360  0.00  0.00    +0.020 C 
ATOM     14  C   UNL     1      29.257 -22.216 -15.119  0.00  0.00    +0.020 C 
ENDBRANCH   2  11
BRANCH   5  16
ATOM     15  O   UNL     1      36.244 -22.725 -16.608  0.00  0.00    -0.290 OA
ATOM     16  C   UNL     1      35.595 -23.439 -15.814  0.00  0.00    +0.191 C 
BRANCH  16  17
ATOM     17  C   UNL     1      36.427 -24.329 -14.941  0.00  0.00    +0.036 C 
ATOM     18  C   UNL     1      37.261 -23.746 -14.019  0.00  0.00    +0.003 C 
ATOM     19  C   UNL     1      36.317 -25.688 -15.103  0.00  0.00    +0.003 C 
ATOM     20  C   UNL     1      38.033 -24.576 -13.206  0.00  0.00    +0.000 C 
ATOM     21  C   UNL     1      37.090 -26.518 -14.291  0.00  0.00    +0.000 C 
ATOM     22  C   UNL     1      37.948 -25.961 -13.342  0.00  0.00    +0.000 C 
ENDBRANCH  16  17
ENDBRANCH   5  16
TORSDOF 3
ENDMDL
MODEL 9
REMARK VINA RESULT:      -8.0      2.590      7.483
REMARK  Name = 1484819
REMARK  3 active torsions:
REMARK  status: ('A' for Active; 'I' for Inactive)
REMARK    1  A    between atoms: N_2  and  C_8
REMARK    2  A    between atoms: C_5  and  C_16
REMARK    3  A    between atoms: C_16  and  C_17
REMARK                            x       y       z     vdW  Elec       q    Type
REMARK                         _______ _______ _______ _____ _____    ______ ____
ROOT
ATOM      1  S   UNL     1      34.170 -14.495 -21.673  0.00  0.00    -0.052 S 
ATOM      2  N   UNL     1      35.052 -16.997 -21.480  0.00  0.00    -0.307 N 
ATOM      3  N   UNL     1      34.120 -16.288 -23.535  0.00  0.00    -0.370 NA
ATOM      4  C   UNL     1      34.464 -16.054 -22.301  0.00  0.00    +0.209 C 
ATOM      5  C   UNL     1      33.511 -14.055 -23.195  0.00  0.00    +0.183 C 
ATOM      6  C   UNL     1      33.567 -15.133 -24.053  0.00  0.00    +0.174 C 
ATOM      7  H   UNL     1      35.282 -16.736 -20.560  0.00  0.00    +0.150 HD
ATOM      8  N   UNL     1      33.123 -15.103 -25.332  0.00  0.00    -0.335 N 
ATOM      9  H   UNL     1      33.191 -15.907 -25.896  0.00  0.00    +0.144 HD
ATOM     10  H   UNL     1      32.730 -14.278 -25.698  0.00  0.00    +0.144 HD
ENDROOT
BRANCH   2  11
ATOM     11  C   UNL     1      35.347 -18.353 -21.906  0.00  0.00    +0.057 C 
ATOM     12  C   UNL     1      34.099 -19.224 -21.723  0.00  0.00    +0.020 C 
ATOM     13  C   UNL     1      35.758 -18.338 -23.382  0.00  0.00    +0.020 C 
ATOM     14  C   UNL     1      36.493 -18.913 -21.054  0.00  0.00    +0.020 C 
ENDBRANCH   2  11
BRANCH   5  16
ATOM     15  O   UNL     1      31.904 -12.339 -22.970  0.00  0.00    -0.290 OA
ATOM     16  C   UNL     1      33.012 -12.733 -23.392  0.00  0.00    +0.191 C 
BRANCH  16  17
ATOM     17  C   UNL     1      33.799 -11.707 -24.150  0.00  0.00    +0.036 C 
ATOM     18  C   UNL     1      34.052 -10.500 -23.546  0.00  0.00    +0.003 C 
ATOM     19  C   UNL     1      34.232 -12.022 -25.414  0.00  0.00    +0.003 C 
ATOM     20  C   UNL     1      34.786  -9.547 -24.252  0.00  0.00    +0.000 C 
ATOM     21  C   UNL     1      34.966 -11.068 -26.121  0.00  0.00    +0.000 C 
ATOM     22  C   UNL     1      35.243  -9.830 -25.539  0.00  0.00    +0.000 C 
ENDBRANCH  16  17
ENDBRANCH   5  16
TORSDOF 3
ENDMDL
