MODEL 1
REMARK VINA RESULT:     -10.2      0.000      0.000
REMARK  Name = 24831714
REMARK  9 active torsions:
REMARK  status: ('A' for Active; 'I' for Inactive)
REMARK    1  A    between atoms: C_2  and  C_11
REMARK    2  A    between atoms: C_5  and  C_22
REMARK    3  A    between atoms: C_9  and  O_16
REMARK    4  A    between atoms: C_10  and  O_18
REMARK    5  A    between atoms: C_12  and  O_20
REMARK    6  A    between atoms: C_13  and  S_14
REMARK    7  A    between atoms: C_22  and  C_23
REMARK    8  A    between atoms: C_28  and  O_29
REMARK    9  A    between atoms: O_29  and  C_30
REMARK                            x       y       z     vdW  Elec       q    Type
REMARK                         _______ _______ _______ _____ _____    ______ ____
ROOT
ATOM      1 CL   UNL     1      37.023 -21.318 -17.689  0.00  0.00    -0.083 Cl
ATOM      2  C   UNL     1      33.350 -23.568 -16.334  0.00  0.00    +0.007 C 
ATOM      3  C   UNL     1      33.576 -23.379 -17.698  0.00  0.00    -0.005 C 
ATOM      4  C   UNL     1      34.255 -23.064 -15.401  0.00  0.00    -0.001 C 
ATOM      5  C   UNL     1      34.707 -22.685 -18.128  0.00  0.00    -0.007 C 
ATOM      6  C   UNL     1      35.387 -22.371 -15.831  0.00  0.00    +0.011 C 
ATOM      7  C   UNL     1      35.613 -22.181 -17.194  0.00  0.00    +0.054 C 
ENDROOT
BRANCH   2  11
ATOM      8  O   UNL     1      30.973 -23.656 -16.403  0.00  0.00    -0.338 OA
ATOM      9  C   UNL     1      32.035 -24.389 -14.337  0.00  0.00    +0.171 C 
ATOM     10  C   UNL     1      30.716 -25.026 -13.895  0.00  0.00    +0.170 C 
ATOM     11  C   UNL     1      32.120 -24.321 -15.867  0.00  0.00    +0.168 C 
ATOM     12  C   UNL     1      29.517 -24.389 -14.600  0.00  0.00    +0.177 C 
ATOM     13  C   UNL     1      29.750 -24.330 -16.113  0.00  0.00    +0.192 C 
BRANCH  13  14
ATOM     14  S   UNL     1      28.361 -23.464 -16.928  0.00  0.00    -0.109 S 
ATOM     15  C   UNL     1      28.097 -22.187 -15.680  0.00  0.00    +0.072 C 
ENDBRANCH  13  14
BRANCH   9  16
ATOM     16  O   UNL     1      33.115 -25.180 -13.844  0.00  0.00    -0.379 OA
ATOM     17  H   UNL     1      33.930 -24.654 -13.849  0.00  0.00    +0.211 HD
ENDBRANCH   9  16
BRANCH  10  18
ATOM     18  O   UNL     1      30.583 -24.845 -12.484  0.00  0.00    -0.379 OA
ATOM     19  H   UNL     1      31.056 -25.554 -12.021  0.00  0.00    +0.211 HD
ENDBRANCH  10  18
BRANCH  12  20
ATOM     20  O   UNL     1      28.371 -25.187 -14.304  0.00  0.00    -0.379 OA
ATOM     21  H   UNL     1      27.572 -24.643 -14.378  0.00  0.00    +0.211 HD
ENDBRANCH  12  20
ENDBRANCH   2  11
BRANCH   5  22
ATOM     22  C   UNL     1      34.915 -22.505 -19.597  0.00  0.00    +0.053 C 
BRANCH  22  23
ATOM     23  C   UNL     1      34.591 -21.112 -20.093  0.00  0.00    -0.018 C 
ATOM     24  C   UNL     1      35.615 -20.271 -20.531  0.00  0.00    -0.001 C 
ATOM     25  C   UNL     1      33.268 -20.669 -20.114  0.00  0.00    -0.001 C 
ATOM     26  C   UNL     1      35.316 -18.988 -20.989  0.00  0.00    +0.037 C 
ATOM     27  C   UNL     1      32.970 -19.386 -20.571  0.00  0.00    +0.037 C 
ATOM     28  C   UNL     1      33.993 -18.545 -21.008  0.00  0.00    +0.139 C 
BRANCH  28  29
ATOM     29  O   UNL     1      33.701 -17.293 -21.455  0.00  0.00    -0.475 OA
BRANCH  29  30
ATOM     30  C   UNL     1      34.762 -16.339 -21.455  0.00  0.00    +0.206 C 
ATOM     31  C   UNL     1      34.390 -15.186 -20.547  0.00  0.00    +0.051 C 
ENDBRANCH  29  30
ENDBRANCH  28  29
ENDBRANCH  22  23
ENDBRANCH   5  22
TORSDOF 9
ENDMDL
MODEL 2
REMARK VINA RESULT:     -10.2      5.151     11.442
REMARK  Name = 24831714
REMARK  9 active torsions:
REMARK  status: ('A' for Active; 'I' for Inactive)
REMARK    1  A    between atoms: C_2  and  C_11
REMARK    2  A    between atoms: C_5  and  C_22
REMARK    3  A    between atoms: C_9  and  O_16
REMARK    4  A    between atoms: C_10  and  O_18
REMARK    5  A    between atoms: C_12  and  O_20
REMARK    6  A    between atoms: C_13  and  S_14
REMARK    7  A    between atoms: C_22  and  C_23
REMARK    8  A    between atoms: C_28  and  O_29
REMARK    9  A    between atoms: O_29  and  C_30
REMARK                            x       y       z     vdW  Elec       q    Type
REMARK                         _______ _______ _______ _____ _____    ______ ____
ROOT
ATOM      1 CL   UNL     1      35.496 -18.905 -24.108  0.00  0.00    -0.083 Cl
ATOM      2  C   UNL     1      33.757 -14.740 -23.972  0.00  0.00    +0.007 C 
ATOM      3  C   UNL     1      34.324 -15.286 -22.820  0.00  0.00    -0.005 C 
ATOM      4  C   UNL     1      33.730 -15.480 -25.153  0.00  0.00    -0.001 C 
ATOM      5  C   UNL     1      34.864 -16.572 -22.850  0.00  0.00    -0.007 C 
ATOM      6  C   UNL     1      34.270 -16.766 -25.184  0.00  0.00    +0.011 C 
ATOM      7  C   UNL     1      34.837 -17.312 -24.033  0.00  0.00    +0.054 C 
ENDROOT
BRANCH   2  11
ATOM      8  O   UNL     1      34.208 -12.424 -24.282  0.00  0.00    -0.338 OA
ATOM      9  C   UNL     1      32.583 -13.000 -22.562  0.00  0.00    +0.171 C 
ATOM     10  C   UNL     1      32.127 -11.541 -22.515  0.00  0.00    +0.170 C 
ATOM     11  C   UNL     1      33.169 -13.344 -23.938  0.00  0.00    +0.168 C 
ATOM     12  C   UNL     1      33.213 -10.594 -23.031  0.00  0.00    +0.177 C 
ATOM     13  C   UNL     1      33.753 -11.076 -24.381  0.00  0.00    +0.192 C 
BRANCH  13  14
ATOM     14  S   UNL     1      35.127 -10.000 -24.928  0.00  0.00    -0.109 S 
ATOM     15  C   UNL     1      35.424 -10.771 -26.532  0.00  0.00    +0.072 C 
ENDBRANCH  13  14
BRANCH   9  16
ATOM     16  O   UNL     1      31.457 -13.841 -22.312  0.00  0.00    -0.379 OA
ATOM     17  H   UNL     1      31.763 -14.742 -22.123  0.00  0.00    +0.211 HD
ENDBRANCH   9  16
BRANCH  10  18
ATOM     18  O   UNL     1      31.821 -11.211 -21.160  0.00  0.00    -0.379 OA
ATOM     19  H   UNL     1      32.646 -11.088 -20.663  0.00  0.00    +0.211 HD
ENDBRANCH  10  18
BRANCH  12  20
ATOM     20  O   UNL     1      32.626  -9.299 -23.164  0.00  0.00    -0.379 OA
ATOM     21  H   UNL     1      31.950  -9.321 -23.858  0.00  0.00    +0.211 HD
ENDBRANCH  12  20
ENDBRANCH   2  11
BRANCH   5  22
ATOM     22  C   UNL     1      35.464 -17.121 -21.596  0.00  0.00    +0.053 C 
BRANCH  22  23
ATOM     23  C   UNL     1      34.818 -18.404 -21.120  0.00  0.00    -0.018 C 
ATOM     24  C   UNL     1      35.612 -19.487 -20.742  0.00  0.00    -0.001 C 
ATOM     25  C   UNL     1      33.428 -18.504 -21.059  0.00  0.00    -0.001 C 
ATOM     26  C   UNL     1      35.017 -20.670 -20.304  0.00  0.00    +0.037 C 
ATOM     27  C   UNL     1      32.832 -19.687 -20.621  0.00  0.00    +0.037 C 
ATOM     28  C   UNL     1      33.627 -20.770 -20.244  0.00  0.00    +0.139 C 
BRANCH  28  29
ATOM     29  O   UNL     1      33.045 -21.924 -19.816  0.00  0.00    -0.475 OA
BRANCH  29  30
ATOM     30  C   UNL     1      33.814 -22.757 -18.951  0.00  0.00    +0.206 C 
ATOM     31  C   UNL     1      33.080 -22.913 -17.635  0.00  0.00    +0.051 C 
ENDBRANCH  29  30
ENDBRANCH  28  29
ENDBRANCH  22  23
ENDBRANCH   5  22
TORSDOF 9
ENDMDL
MODEL 3
REMARK VINA RESULT:      -9.9      3.530      5.181
REMARK  Name = 24831714
REMARK  9 active torsions:
REMARK  status: ('A' for Active; 'I' for Inactive)
REMARK    1  A    between atoms: C_2  and  C_11
REMARK    2  A    between atoms: C_5  and  C_22
REMARK    3  A    between atoms: C_9  and  O_16
REMARK    4  A    between atoms: C_10  and  O_18
REMARK    5  A    between atoms: C_12  and  O_20
REMARK    6  A    between atoms: C_13  and  S_14
REMARK    7  A    between atoms: C_22  and  C_23
REMARK    8  A    between atoms: C_28  and  O_29
REMARK    9  A    between atoms: O_29  and  C_30
REMARK                            x       y       z     vdW  Elec       q    Type
REMARK                         _______ _______ _______ _____ _____    ______ ____
ROOT
ATOM      1 CL   UNL     1      30.580 -22.658 -17.515  0.00  0.00    -0.083 Cl
ATOM      2  C   UNL     1      34.107 -23.511 -14.828  0.00  0.00    +0.007 C 
ATOM      3  C   UNL     1      34.256 -23.615 -16.211  0.00  0.00    -0.005 C 
ATOM      4  C   UNL     1      32.876 -23.146 -14.285  0.00  0.00    -0.001 C 
ATOM      5  C   UNL     1      33.173 -23.354 -17.051  0.00  0.00    -0.007 C 
ATOM      6  C   UNL     1      31.793 -22.884 -15.124  0.00  0.00    +0.011 C 
ATOM      7  C   UNL     1      31.941 -22.989 -16.507  0.00  0.00    +0.054 C 
ENDROOT
BRANCH   2  11
ATOM      8  O   UNL     1      36.099 -24.783 -14.551  0.00  0.00    -0.338 OA
ATOM      9  C   UNL     1      34.832 -24.283 -12.532  0.00  0.00    +0.171 C 
ATOM     10  C   UNL     1      36.036 -24.698 -11.684  0.00  0.00    +0.170 C 
ATOM     11  C   UNL     1      35.283 -23.796 -13.916  0.00  0.00    +0.168 C 
ATOM     12  C   UNL     1      36.968 -25.639 -12.449  0.00  0.00    +0.177 C 
ATOM     13  C   UNL     1      37.297 -25.066 -13.832  0.00  0.00    +0.192 C 
BRANCH  13  14
ATOM     14  S   UNL     1      38.317 -26.255 -14.776  0.00  0.00    -0.109 S 
ATOM     15  C   UNL     1      39.864 -25.324 -14.760  0.00  0.00    +0.072 C 
ENDBRANCH  13  14
BRANCH   9  16
ATOM     16  O   UNL     1      34.145 -23.224 -11.866  0.00  0.00    -0.379 OA
ATOM     17  H   UNL     1      34.224 -23.340 -10.906  0.00  0.00    +0.211 HD
ENDBRANCH   9  16
BRANCH  10  18
ATOM     18  O   UNL     1      35.553 -25.362 -10.516  0.00  0.00    -0.379 OA
ATOM     19  H   UNL     1      36.071 -26.169 -10.365  0.00  0.00    +0.211 HD
ENDBRANCH  10  18
BRANCH  12  20
ATOM     20  O   UNL     1      38.159 -25.788 -11.676  0.00  0.00    -0.379 OA
ATOM     21  H   UNL     1      38.028 -26.482 -11.013  0.00  0.00    +0.211 HD
ENDBRANCH  12  20
ENDBRANCH   2  11
BRANCH   5  22
ATOM     22  C   UNL     1      33.373 -23.476 -18.527  0.00  0.00    +0.053 C 
BRANCH  22  23
ATOM     23  C   UNL     1      33.934 -22.226 -19.172  0.00  0.00    -0.018 C 
ATOM     24  C   UNL     1      35.313 -22.025 -19.224  0.00  0.00    -0.001 C 
ATOM     25  C   UNL     1      33.070 -21.276 -19.717  0.00  0.00    -0.001 C 
ATOM     26  C   UNL     1      35.829 -20.874 -19.818  0.00  0.00    +0.037 C 
ATOM     27  C   UNL     1      33.586 -20.124 -20.311  0.00  0.00    +0.037 C 
ATOM     28  C   UNL     1      34.965 -19.923 -20.362  0.00  0.00    +0.139 C 
BRANCH  28  29
ATOM     29  O   UNL     1      35.468 -18.800 -20.943  0.00  0.00    -0.475 OA
BRANCH  29  30
ATOM     30  C   UNL     1      34.722 -18.235 -22.019  0.00  0.00    +0.206 C 
ATOM     31  C   UNL     1      35.352 -18.653 -23.331  0.00  0.00    +0.051 C 
ENDBRANCH  29  30
ENDBRANCH  28  29
ENDBRANCH  22  23
ENDBRANCH   5  22
TORSDOF 9
ENDMDL
MODEL 4
REMARK VINA RESULT:      -9.4      5.004     11.523
REMARK  Name = 24831714
REMARK  9 active torsions:
REMARK  status: ('A' for Active; 'I' for Inactive)
REMARK    1  A    between atoms: C_2  and  C_11
REMARK    2  A    between atoms: C_5  and  C_22
REMARK    3  A    between atoms: C_9  and  O_16
REMARK    4  A    between atoms: C_10  and  O_18
REMARK    5  A    between atoms: C_12  and  O_20
REMARK    6  A    between atoms: C_13  and  S_14
REMARK    7  A    between atoms: C_22  and  C_23
REMARK    8  A    between atoms: C_28  and  O_29
REMARK    9  A    between atoms: O_29  and  C_30
REMARK                            x       y       z     vdW  Elec       q    Type
REMARK                         _______ _______ _______ _____ _____    ______ ____
ROOT
ATOM      1 CL   UNL     1      34.499 -18.173 -25.105  0.00  0.00    -0.083 Cl
ATOM      2  C   UNL     1      33.840 -13.999 -23.515  0.00  0.00    +0.007 C 
ATOM      3  C   UNL     1      34.651 -14.884 -22.805  0.00  0.00    -0.005 C 
ATOM      4  C   UNL     1      33.239 -14.406 -24.706  0.00  0.00    -0.001 C 
ATOM      5  C   UNL     1      34.862 -16.177 -23.286  0.00  0.00    -0.007 C 
ATOM      6  C   UNL     1      33.450 -15.697 -25.188  0.00  0.00    +0.011 C 
ATOM      7  C   UNL     1      34.261 -16.583 -24.478  0.00  0.00    +0.054 C 
ENDROOT
BRANCH   2  11
ATOM      8  O   UNL     1      32.384 -12.601 -22.254  0.00  0.00    -0.338 OA
ATOM      9  C   UNL     1      33.550 -11.561 -24.123  0.00  0.00    +0.171 C 
ATOM     10  C   UNL     1      33.176 -10.182 -23.578  0.00  0.00    +0.170 C 
ATOM     11  C   UNL     1      33.610 -12.596 -22.990  0.00  0.00    +0.168 C 
ATOM     12  C   UNL     1      31.945 -10.247 -22.673  0.00  0.00    +0.177 C 
ATOM     13  C   UNL     1      32.105 -11.352 -21.623  0.00  0.00    +0.192 C 
BRANCH  13  14
ATOM     14  S   UNL     1      30.581 -11.494 -20.623  0.00  0.00    -0.109 S 
ATOM     15  C   UNL     1      31.218 -10.777 -19.095  0.00  0.00    +0.072 C 
ENDBRANCH  13  14
BRANCH   9  16
ATOM     16  O   UNL     1      34.832 -11.478 -24.745  0.00  0.00    -0.379 OA
ATOM     17  H   UNL     1      34.720 -11.316 -25.695  0.00  0.00    +0.211 HD
ENDBRANCH   9  16
BRANCH  10  18
ATOM     18  O   UNL     1      32.899  -9.324 -24.687  0.00  0.00    -0.379 OA
ATOM     19  H   UNL     1      32.009  -8.949 -24.590  0.00  0.00    +0.211 HD
ENDBRANCH  10  18
BRANCH  12  20
ATOM     20  O   UNL     1      31.810  -8.975 -22.039  0.00  0.00    -0.379 OA
ATOM     21  H   UNL     1      32.317  -8.313 -22.533  0.00  0.00    +0.211 HD
ENDBRANCH  12  20
ENDBRANCH   2  11
BRANCH   5  22
ATOM     22  C   UNL     1      35.739 -17.095 -22.498  0.00  0.00    +0.053 C 
BRANCH  22  23
ATOM     23  C   UNL     1      34.982 -18.178 -21.759  0.00  0.00    -0.018 C 
ATOM     24  C   UNL     1      35.641 -19.339 -21.354  0.00  0.00    -0.001 C 
ATOM     25  C   UNL     1      33.625 -18.014 -21.481  0.00  0.00    -0.001 C 
ATOM     26  C   UNL     1      34.944 -20.336 -20.673  0.00  0.00    +0.037 C 
ATOM     27  C   UNL     1      32.927 -19.011 -20.800  0.00  0.00    +0.037 C 
ATOM     28  C   UNL     1      33.586 -20.173 -20.397  0.00  0.00    +0.139 C 
BRANCH  28  29
ATOM     29  O   UNL     1      32.905 -21.145 -19.732  0.00  0.00    -0.475 OA
BRANCH  29  30
ATOM     30  C   UNL     1      33.653 -22.278 -19.293  0.00  0.00    +0.206 C 
ATOM     31  C   UNL     1      33.126 -22.726 -17.946  0.00  0.00    +0.051 C 
ENDBRANCH  29  30
ENDBRANCH  28  29
ENDBRANCH  22  23
ENDBRANCH   5  22
TORSDOF 9
ENDMDL
MODEL 5
REMARK VINA RESULT:      -9.1      9.760     14.619
REMARK  Name = 24831714
REMARK  9 active torsions:
REMARK  status: ('A' for Active; 'I' for Inactive)
REMARK    1  A    between atoms: C_2  and  C_11
REMARK    2  A    between atoms: C_5  and  C_22
REMARK    3  A    between atoms: C_9  and  O_16
REMARK    4  A    between atoms: C_10  and  O_18
REMARK    5  A    between atoms: C_12  and  O_20
REMARK    6  A    between atoms: C_13  and  S_14
REMARK    7  A    between atoms: C_22  and  C_23
REMARK    8  A    between atoms: C_28  and  O_29
REMARK    9  A    between atoms: O_29  and  C_30
REMARK                            x       y       z     vdW  Elec       q    Type
REMARK                         _______ _______ _______ _____ _____    ______ ____
ROOT
ATOM      1 CL   UNL     1      34.960  -7.226 -23.539  0.00  0.00    -0.083 Cl
ATOM      2  C   UNL     1      33.699 -11.489 -24.328  0.00  0.00    +0.007 C 
ATOM      3  C   UNL     1      32.981 -10.718 -23.413  0.00  0.00    -0.005 C 
ATOM      4  C   UNL     1      34.796 -10.942 -24.991  0.00  0.00    -0.001 C 
ATOM      5  C   UNL     1      33.362  -9.400 -23.161  0.00  0.00    -0.007 C 
ATOM      6  C   UNL     1      35.177  -9.623 -24.740  0.00  0.00    +0.011 C 
ATOM      7  C   UNL     1      34.461  -8.852 -23.825  0.00  0.00    +0.054 C 
ENDROOT
BRANCH   2  11
ATOM      8  O   UNL     1      34.169 -13.777 -23.870  0.00  0.00    -0.338 OA
ATOM      9  C   UNL     1      33.329 -13.258 -26.097  0.00  0.00    +0.171 C 
ATOM     10  C   UNL     1      33.047 -14.743 -26.327  0.00  0.00    +0.170 C 
ATOM     11  C   UNL     1      33.286 -12.921 -24.600  0.00  0.00    +0.168 C 
ATOM     12  C   UNL     1      33.906 -15.628 -25.422  0.00  0.00    +0.177 C 
ATOM     13  C   UNL     1      33.820 -15.156 -23.967  0.00  0.00    +0.192 C 
BRANCH  13  14
ATOM     14  S   UNL     1      34.940 -16.150 -22.917  0.00  0.00    -0.109 S 
ATOM     15  C   UNL     1      34.548 -15.378 -21.334  0.00  0.00    +0.072 C 
ENDBRANCH  13  14
BRANCH   9  16
ATOM     16  O   UNL     1      32.336 -12.491 -26.776  0.00  0.00    -0.379 OA
ATOM     17  H   UNL     1      31.751 -13.085 -27.271  0.00  0.00    +0.211 HD
ENDBRANCH   9  16
BRANCH  10  18
ATOM     18  O   UNL     1      33.337 -15.047 -27.693  0.00  0.00    -0.379 OA
ATOM     19  H   UNL     1      34.149 -14.587 -27.961  0.00  0.00    +0.211 HD
ENDBRANCH  10  18
BRANCH  12  20
ATOM     20  O   UNL     1      33.419 -16.965 -25.540  0.00  0.00    -0.379 OA
ATOM     21  H   UNL     1      33.066 -17.102 -26.433  0.00  0.00    +0.211 HD
ENDBRANCH  12  20
ENDBRANCH   2  11
BRANCH   5  22
ATOM     22  C   UNL     1      32.567  -8.606 -22.174  0.00  0.00    +0.053 C 
BRANCH  22  23
ATOM     23  C   UNL     1      32.007  -7.318 -22.737  0.00  0.00    -0.018 C 
ATOM     24  C   UNL     1      32.076  -6.141 -21.990  0.00  0.00    -0.001 C 
ATOM     25  C   UNL     1      31.422  -7.306 -24.004  0.00  0.00    -0.001 C 
ATOM     26  C   UNL     1      31.561  -4.954 -22.509  0.00  0.00    +0.037 C 
ATOM     27  C   UNL     1      30.907  -6.118 -24.522  0.00  0.00    +0.037 C 
ATOM     28  C   UNL     1      30.975  -4.942 -23.775  0.00  0.00    +0.139 C 
BRANCH  28  29
ATOM     29  O   UNL     1      30.472  -3.783 -24.282  0.00  0.00    -0.475 OA
BRANCH  29  30
ATOM     30  C   UNL     1      31.392  -2.715 -24.496  0.00  0.00    +0.206 C 
ATOM     31  C   UNL     1      32.036  -2.882 -25.856  0.00  0.00    +0.051 C 
ENDBRANCH  29  30
ENDBRANCH  28  29
ENDBRANCH  22  23
ENDBRANCH   5  22
TORSDOF 9
ENDMDL
MODEL 6
REMARK VINA RESULT:      -9.0     10.224     15.600
REMARK  Name = 24831714
REMARK  9 active torsions:
REMARK  status: ('A' for Active; 'I' for Inactive)
REMARK    1  A    between atoms: C_2  and  C_11
REMARK    2  A    between atoms: C_5  and  C_22
REMARK    3  A    between atoms: C_9  and  O_16
REMARK    4  A    between atoms: C_10  and  O_18
REMARK    5  A    between atoms: C_12  and  O_20
REMARK    6  A    between atoms: C_13  and  S_14
REMARK    7  A    between atoms: C_22  and  C_23
REMARK    8  A    between atoms: C_28  and  O_29
REMARK    9  A    between atoms: O_29  and  C_30
REMARK                            x       y       z     vdW  Elec       q    Type
REMARK                         _______ _______ _______ _____ _____    ______ ____
ROOT
ATOM      1 CL   UNL     1      31.200 -11.099 -18.843  0.00  0.00    -0.083 Cl
ATOM      2  C   UNL     1      32.585  -7.949 -21.766  0.00  0.00    +0.007 C 
ATOM      3  C   UNL     1      32.069  -9.152 -22.246  0.00  0.00    -0.005 C 
ATOM      4  C   UNL     1      32.670  -7.726 -20.392  0.00  0.00    -0.001 C 
ATOM      5  C   UNL     1      31.639 -10.133 -21.352  0.00  0.00    -0.007 C 
ATOM      6  C   UNL     1      32.239  -8.706 -19.498  0.00  0.00    +0.011 C 
ATOM      7  C   UNL     1      31.723  -9.910 -19.978  0.00  0.00    +0.054 C 
ENDROOT
BRANCH   2  11
ATOM      8  O   UNL     1      31.896  -6.303 -23.341  0.00  0.00    -0.338 OA
ATOM      9  C   UNL     1      33.988  -7.459 -23.812  0.00  0.00    +0.171 C 
ATOM     10  C   UNL     1      34.330  -6.396 -24.858  0.00  0.00    +0.170 C 
ATOM     11  C   UNL     1      33.055  -6.885 -22.737  0.00  0.00    +0.168 C 
ATOM     12  C   UNL     1      33.076  -5.689 -25.375  0.00  0.00    +0.177 C 
ATOM     13  C   UNL     1      32.204  -5.214 -24.208  0.00  0.00    +0.192 C 
BRANCH  13  14
ATOM     14  S   UNL     1      30.656  -4.474 -24.842  0.00  0.00    -0.109 S 
ATOM     15  C   UNL     1      30.973  -2.768 -24.346  0.00  0.00    +0.072 C 
ENDBRANCH  13  14
BRANCH   9  16
ATOM     16  O   UNL     1      35.196  -7.900 -23.193  0.00  0.00    -0.379 OA
ATOM     17  H   UNL     1      35.827  -8.176 -23.876  0.00  0.00    +0.211 HD
ENDBRANCH   9  16
BRANCH  10  18
ATOM     18  O   UNL     1      34.991  -7.039 -25.949  0.00  0.00    -0.379 OA
ATOM     19  H   UNL     1      34.758  -6.590 -26.777  0.00  0.00    +0.211 HD
ENDBRANCH  10  18
BRANCH  12  20
ATOM     20  O   UNL     1      33.503  -4.577 -26.162  0.00  0.00    -0.379 OA
ATOM     21  H   UNL     1      34.471  -4.560 -26.197  0.00  0.00    +0.211 HD
ENDBRANCH  12  20
ENDBRANCH   2  11
BRANCH   5  22
ATOM     22  C   UNL     1      31.091 -11.409 -21.906  0.00  0.00    +0.053 C 
BRANCH  22  23
ATOM     23  C   UNL     1      32.150 -12.441 -22.226  0.00  0.00    -0.018 C 
ATOM     24  C   UNL     1      32.872 -12.355 -23.417  0.00  0.00    -0.001 C 
ATOM     25  C   UNL     1      32.406 -13.479 -21.329  0.00  0.00    -0.001 C 
ATOM     26  C   UNL     1      33.849 -13.307 -23.711  0.00  0.00    +0.037 C 
ATOM     27  C   UNL     1      33.382 -14.430 -21.623  0.00  0.00    +0.037 C 
ATOM     28  C   UNL     1      34.104 -14.345 -22.814  0.00  0.00    +0.139 C 
BRANCH  28  29
ATOM     29  O   UNL     1      35.057 -15.273 -23.101  0.00  0.00    -0.475 OA
BRANCH  29  30
ATOM     30  C   UNL     1      34.606 -16.570 -23.486  0.00  0.00    +0.206 C 
ATOM     31  C   UNL     1      34.657 -16.684 -24.995  0.00  0.00    +0.051 C 
ENDBRANCH  29  30
ENDBRANCH  28  29
ENDBRANCH  22  23
ENDBRANCH   5  22
TORSDOF 9
ENDMDL
MODEL 7
REMARK VINA RESULT:      -8.9      1.838      2.904
REMARK  Name = 24831714
REMARK  9 active torsions:
REMARK  status: ('A' for Active; 'I' for Inactive)
REMARK    1  A    between atoms: C_2  and  C_11
REMARK    2  A    between atoms: C_5  and  C_22
REMARK    3  A    between atoms: C_9  and  O_16
REMARK    4  A    between atoms: C_10  and  O_18
REMARK    5  A    between atoms: C_12  and  O_20
REMARK    6  A    between atoms: C_13  and  S_14
REMARK    7  A    between atoms: C_22  and  C_23
REMARK    8  A    between atoms: C_28  and  O_29
REMARK    9  A    between atoms: O_29  and  C_30
REMARK                            x       y       z     vdW  Elec       q    Type
REMARK                         _______ _______ _______ _____ _____    ______ ____
ROOT
ATOM      1 CL   UNL     1      36.522 -19.817 -21.006  0.00  0.00    -0.083 Cl
ATOM      2  C   UNL     1      34.550 -22.415 -17.883  0.00  0.00    +0.007 C 
ATOM      3  C   UNL     1      33.786 -21.901 -18.932  0.00  0.00    -0.005 C 
ATOM      4  C   UNL     1      35.911 -22.125 -17.806  0.00  0.00    -0.001 C 
ATOM      5  C   UNL     1      34.385 -21.097 -19.902  0.00  0.00    -0.007 C 
ATOM      6  C   UNL     1      36.511 -21.322 -18.776  0.00  0.00    +0.011 C 
ATOM      7  C   UNL     1      35.748 -20.807 -19.824  0.00  0.00    +0.054 C 
ENDROOT
BRANCH   2  11
ATOM      8  O   UNL     1      32.561 -22.818 -16.640  0.00  0.00    -0.338 OA
ATOM      9  C   UNL     1      34.670 -23.256 -15.502  0.00  0.00    +0.171 C 
ATOM     10  C   UNL     1      33.915 -24.028 -14.418  0.00  0.00    +0.170 C 
ATOM     11  C   UNL     1      33.899 -23.287 -16.829  0.00  0.00    +0.168 C 
ATOM     12  C   UNL     1      32.446 -23.606 -14.344  0.00  0.00    +0.177 C 
ATOM     13  C   UNL     1      31.808 -23.625 -15.736  0.00  0.00    +0.192 C 
BRANCH  13  14
ATOM     14  S   UNL     1      30.089 -23.009 -15.647  0.00  0.00    -0.109 S 
ATOM     15  C   UNL     1      29.246 -24.588 -15.877  0.00  0.00    +0.072 C 
ENDBRANCH  13  14
BRANCH   9  16
ATOM     16  O   UNL     1      35.948 -23.862 -15.692  0.00  0.00    -0.379 OA
ATOM     17  H   UNL     1      36.129 -23.943 -16.641  0.00  0.00    +0.211 HD
ENDBRANCH   9  16
BRANCH  10  18
ATOM     18  O   UNL     1      34.544 -23.765 -13.162  0.00  0.00    -0.379 OA
ATOM     19  H   UNL     1      35.353 -23.250 -13.308  0.00  0.00    +0.211 HD
ENDBRANCH  10  18
BRANCH  12  20
ATOM     20  O   UNL     1      31.779 -24.524 -13.478  0.00  0.00    -0.379 OA
ATOM     21  H   UNL     1      30.824 -24.485 -13.642  0.00  0.00    +0.211 HD
ENDBRANCH  12  20
ENDBRANCH   2  11
BRANCH   5  22
ATOM     22  C   UNL     1      33.533 -20.567 -21.010  0.00  0.00    +0.053 C 
BRANCH  22  23
ATOM     23  C   UNL     1      34.008 -19.242 -21.566  0.00  0.00    -0.018 C 
ATOM     24  C   UNL     1      34.545 -19.176 -22.852  0.00  0.00    -0.001 C 
ATOM     25  C   UNL     1      33.909 -18.085 -20.791  0.00  0.00    -0.001 C 
ATOM     26  C   UNL     1      34.983 -17.954 -23.364  0.00  0.00    +0.037 C 
ATOM     27  C   UNL     1      34.347 -16.864 -21.303  0.00  0.00    +0.037 C 
ATOM     28  C   UNL     1      34.884 -16.798 -22.589  0.00  0.00    +0.139 C 
BRANCH  28  29
ATOM     29  O   UNL     1      35.311 -15.606 -23.088  0.00  0.00    -0.475 OA
BRANCH  29  30
ATOM     30  C   UNL     1      34.382 -14.524 -23.069  0.00  0.00    +0.206 C 
ATOM     31  C   UNL     1      33.416 -14.681 -24.224  0.00  0.00    +0.051 C 
ENDBRANCH  29  30
ENDBRANCH  28  29
ENDBRANCH  22  23
ENDBRANCH   5  22
TORSDOF 9
ENDMDL
MODEL 8
REMARK VINA RESULT:      -8.8      1.390      2.238
REMARK  Name = 24831714
REMARK  9 active torsions:
REMARK  status: ('A' for Active; 'I' for Inactive)
REMARK    1  A    between atoms: C_2  and  C_11
REMARK    2  A    between atoms: C_5  and  C_22
REMARK    3  A    between atoms: C_9  and  O_16
REMARK    4  A    between atoms: C_10  and  O_18
REMARK    5  A    between atoms: C_12  and  O_20
REMARK    6  A    between atoms: C_13  and  S_14
REMARK    7  A    between atoms: C_22  and  C_23
REMARK    8  A    between atoms: C_28  and  O_29
REMARK    9  A    between atoms: O_29  and  C_30
REMARK                            x       y       z     vdW  Elec       q    Type
REMARK                         _______ _______ _______ _____ _____    ______ ____
ROOT
ATOM      1 CL   UNL     1      37.459 -20.430 -19.682  0.00  0.00    -0.083 Cl
ATOM      2  C   UNL     1      34.768 -22.896 -17.024  0.00  0.00    +0.007 C 
ATOM      3  C   UNL     1      34.382 -22.633 -18.338  0.00  0.00    -0.005 C 
ATOM      4  C   UNL     1      35.978 -22.399 -16.540  0.00  0.00    -0.001 C 
ATOM      5  C   UNL     1      35.205 -21.872 -19.169  0.00  0.00    -0.007 C 
ATOM      6  C   UNL     1      36.802 -21.638 -17.370  0.00  0.00    +0.011 C 
ATOM      7  C   UNL     1      36.415 -21.374 -18.684  0.00  0.00    +0.054 C 
ENDROOT
BRANCH   2  11
ATOM      8  O   UNL     1      32.633 -23.024 -15.981  0.00  0.00    -0.338 OA
ATOM      9  C   UNL     1      34.510 -23.965 -14.747  0.00  0.00    +0.171 C 
ATOM     10  C   UNL     1      33.529 -24.675 -13.813  0.00  0.00    +0.170 C 
ATOM     11  C   UNL     1      33.873 -23.721 -16.122  0.00  0.00    +0.168 C 
ATOM     12  C   UNL     1      32.163 -23.986 -13.800  0.00  0.00    +0.177 C 
ATOM     13  C   UNL     1      31.664 -23.751 -15.229  0.00  0.00    +0.192 C 
BRANCH  13  14
ATOM     14  S   UNL     1      30.086 -22.826 -15.199  0.00  0.00    -0.109 S 
ATOM     15  C   UNL     1      29.004 -24.160 -15.753  0.00  0.00    +0.072 C 
ENDBRANCH  13  14
BRANCH   9  16
ATOM     16  O   UNL     1      35.666 -24.785 -14.908  0.00  0.00    -0.379 OA
ATOM     17  H   UNL     1      35.522 -25.408 -15.637  0.00  0.00    +0.211 HD
ENDBRANCH   9  16
BRANCH  10  18
ATOM     18  O   UNL     1      34.076 -24.658 -12.493  0.00  0.00    -0.379 OA
ATOM     19  H   UNL     1      34.388 -25.547 -12.261  0.00  0.00    +0.211 HD
ENDBRANCH  10  18
BRANCH  12  20
ATOM     20  O   UNL     1      31.260 -24.835 -13.091  0.00  0.00    -0.379 OA
ATOM     21  H   UNL     1      31.640 -25.724 -13.021  0.00  0.00    +0.211 HD
ENDBRANCH  12  20
ENDBRANCH   2  11
BRANCH   5  22
ATOM     22  C   UNL     1      34.756 -21.613 -20.571  0.00  0.00    +0.053 C 
BRANCH  22  23
ATOM     23  C   UNL     1      34.442 -20.160 -20.853  0.00  0.00    -0.018 C 
ATOM     24  C   UNL     1      33.175 -19.651 -20.567  0.00  0.00    -0.001 C 
ATOM     25  C   UNL     1      35.420 -19.329 -21.400  0.00  0.00    -0.001 C 
ATOM     26  C   UNL     1      32.886 -18.311 -20.827  0.00  0.00    +0.037 C 
ATOM     27  C   UNL     1      35.131 -17.989 -21.661  0.00  0.00    +0.037 C 
ATOM     28  C   UNL     1      33.863 -17.480 -21.375  0.00  0.00    +0.139 C 
BRANCH  28  29
ATOM     29  O   UNL     1      33.582 -16.173 -21.628  0.00  0.00    -0.475 OA
BRANCH  29  30
ATOM     30  C   UNL     1      33.891 -15.231 -20.603  0.00  0.00    +0.206 C 
ATOM     31  C   UNL     1      32.834 -14.147 -20.593  0.00  0.00    +0.051 C 
ENDBRANCH  29  30
ENDBRANCH  28  29
ENDBRANCH  22  23
ENDBRANCH   5  22
TORSDOF 9
ENDMDL
MODEL 9
REMARK VINA RESULT:      -8.8      7.685     13.741
REMARK  Name = 24831714
REMARK  9 active torsions:
REMARK  status: ('A' for Active; 'I' for Inactive)
REMARK    1  A    between atoms: C_2  and  C_11
REMARK    2  A    between atoms: C_5  and  C_22
REMARK    3  A    between atoms: C_9  and  O_16
REMARK    4  A    between atoms: C_10  and  O_18
REMARK    5  A    between atoms: C_12  and  O_20
REMARK    6  A    between atoms: C_13  and  S_14
REMARK    7  A    between atoms: C_22  and  C_23
REMARK    8  A    between atoms: C_28  and  O_29
REMARK    9  A    between atoms: O_29  and  C_30
REMARK                            x       y       z     vdW  Elec       q    Type
REMARK                         _______ _______ _______ _____ _____    ______ ____
ROOT
ATOM      1 CL   UNL     1      34.336 -13.893 -24.771  0.00  0.00    -0.083 Cl
ATOM      2  C   UNL     1      32.483 -10.259 -22.834  0.00  0.00    +0.007 C 
ATOM      3  C   UNL     1      31.995 -11.528 -22.522  0.00  0.00    -0.005 C 
ATOM      4  C   UNL     1      33.535 -10.120 -23.738  0.00  0.00    -0.001 C 
ATOM      5  C   UNL     1      32.559 -12.658 -23.115  0.00  0.00    -0.007 C 
ATOM      6  C   UNL     1      34.101 -11.250 -24.331  0.00  0.00    +0.011 C 
ATOM      7  C   UNL     1      33.613 -12.519 -24.020  0.00  0.00    +0.054 C 
ENDROOT
BRANCH   2  11
ATOM      8  O   UNL     1      31.881  -7.980 -23.160  0.00  0.00    -0.338 OA
ATOM      9  C   UNL     1      32.625  -8.606 -20.927  0.00  0.00    +0.171 C 
ATOM     10  C   UNL     1      32.072  -7.288 -20.382  0.00  0.00    +0.170 C 
ATOM     11  C   UNL     1      31.868  -9.033 -22.192  0.00  0.00    +0.168 C 
ATOM     12  C   UNL     1      31.959  -6.227 -21.479  0.00  0.00    +0.177 C 
ATOM     13  C   UNL     1      31.235  -6.793 -22.704  0.00  0.00    +0.192 C 
BRANCH  13  14
ATOM     14  S   UNL     1      31.210  -5.551 -24.047  0.00  0.00    -0.109 S 
ATOM     15  C   UNL     1      32.816  -5.938 -24.774  0.00  0.00    +0.072 C 
ENDBRANCH  13  14
BRANCH   9  16
ATOM     16  O   UNL     1      32.472  -9.615 -19.930  0.00  0.00    -0.379 OA
ATOM     17  H   UNL     1      32.001 -10.375 -20.308  0.00  0.00    +0.211 HD
ENDBRANCH   9  16
BRANCH  10  18
ATOM     18  O   UNL     1      32.957  -6.819 -19.364  0.00  0.00    -0.379 OA
ATOM     19  H   UNL     1      32.677  -7.173 -18.504  0.00  0.00    +0.211 HD
ENDBRANCH  10  18
BRANCH  12  20
ATOM     20  O   UNL     1      31.232  -5.124 -20.937  0.00  0.00    -0.379 OA
ATOM     21  H   UNL     1      30.304  -5.184 -21.210  0.00  0.00    +0.211 HD
ENDBRANCH  12  20
ENDBRANCH   2  11
BRANCH   5  22
ATOM     22  C   UNL     1      32.010 -14.001 -22.753  0.00  0.00    +0.053 C 
BRANCH  22  23
ATOM     23  C   UNL     1      33.033 -14.937 -22.147  0.00  0.00    -0.018 C 
ATOM     24  C   UNL     1      33.516 -16.017 -22.886  0.00  0.00    -0.001 C 
ATOM     25  C   UNL     1      33.493 -14.718 -20.848  0.00  0.00    -0.001 C 
ATOM     26  C   UNL     1      34.459 -16.879 -22.326  0.00  0.00    +0.037 C 
ATOM     27  C   UNL     1      34.436 -15.581 -20.288  0.00  0.00    +0.037 C 
ATOM     28  C   UNL     1      34.918 -16.662 -21.027  0.00  0.00    +0.139 C 
BRANCH  28  29
ATOM     29  O   UNL     1      35.839 -17.502 -20.481  0.00  0.00    -0.475 OA
BRANCH  29  30
ATOM     30  C   UNL     1      36.209 -18.647 -21.247  0.00  0.00    +0.206 C 
ATOM     31  C   UNL     1      35.586 -19.879 -20.626  0.00  0.00    +0.051 C 
ENDBRANCH  29  30
ENDBRANCH  28  29
ENDBRANCH  22  23
ENDBRANCH   5  22
TORSDOF 9
ENDMDL
