MODEL 1
REMARK VINA RESULT:      -3.8      0.000      0.000
REMARK  Name = 11207
REMARK  0 active torsions:
REMARK  status: ('A' for Active; 'I' for Inactive)
REMARK                            x       y       z     vdW  Elec       q    Type
REMARK                         _______ _______ _______ _____ _____    ______ ____
ROOT
ATOM      1  S   UNL     1      28.265 -23.235 -16.685  0.00  0.00    +0.130 S 
ATOM      2  F   UNL     1      28.814 -24.170 -15.522  0.00  0.00    -0.060 F 
ATOM      3  O   UNL     1      27.644 -24.138 -17.638  0.00  0.00    -0.142 OA
ATOM      4  O   UNL     1      29.389 -22.396 -17.061  0.00  0.00    -0.142 OA
ATOM      5  C   UNL     1      27.020 -22.229 -15.955  0.00  0.00    +0.215 C 
ENDROOT
TORSDOF 0
ENDMDL
MODEL 2
REMARK VINA RESULT:      -3.8      1.720      2.343
REMARK  Name = 11207
REMARK  0 active torsions:
REMARK  status: ('A' for Active; 'I' for Inactive)
REMARK                            x       y       z     vdW  Elec       q    Type
REMARK                         _______ _______ _______ _____ _____    ______ ____
ROOT
ATOM      1  S   UNL     1      28.101 -23.130 -16.634  0.00  0.00    +0.130 S 
ATOM      2  F   UNL     1      26.871 -22.533 -15.823  0.00  0.00    -0.060 F 
ATOM      3  O   UNL     1      28.941 -21.988 -16.947  0.00  0.00    -0.142 OA
ATOM      4  O   UNL     1      27.507 -23.941 -17.684  0.00  0.00    -0.142 OA
ATOM      5  C   UNL     1      28.959 -24.183 -15.516  0.00  0.00    +0.215 C 
ENDROOT
TORSDOF 0
ENDMDL
MODEL 3
REMARK VINA RESULT:      -3.6      9.655      9.767
REMARK  Name = 11207
REMARK  0 active torsions:
REMARK  status: ('A' for Active; 'I' for Inactive)
REMARK                            x       y       z     vdW  Elec       q    Type
REMARK                         _______ _______ _______ _____ _____    ______ ____
ROOT
ATOM      1  S   UNL     1      36.115 -24.214 -11.232  0.00  0.00    +0.130 S 
ATOM      2  F   UNL     1      35.046 -23.419 -12.099  0.00  0.00    -0.060 F 
ATOM      3  O   UNL     1      35.335 -24.983 -10.278  0.00  0.00    -0.142 OA
ATOM      4  O   UNL     1      37.071 -23.212 -10.793  0.00  0.00    -0.142 OA
ATOM      5  C   UNL     1      36.916 -25.321 -12.340  0.00  0.00    +0.215 C 
ENDROOT
TORSDOF 0
ENDMDL
MODEL 4
REMARK VINA RESULT:      -3.5     14.915     15.362
REMARK  Name = 11207
REMARK  0 active torsions:
REMARK  status: ('A' for Active; 'I' for Inactive)
REMARK                            x       y       z     vdW  Elec       q    Type
REMARK                         _______ _______ _______ _____ _____    ______ ____
ROOT
ATOM      1  S   UNL     1      41.764 -16.251 -16.594  0.00  0.00    +0.130 S 
ATOM      2  F   UNL     1      41.571 -17.642 -17.341  0.00  0.00    -0.060 F 
ATOM      3  O   UNL     1      43.131 -16.270 -16.102  0.00  0.00    -0.142 OA
ATOM      4  O   UNL     1      40.635 -16.146 -15.687  0.00  0.00    -0.142 OA
ATOM      5  C   UNL     1      41.620 -15.009 -17.832  0.00  0.00    +0.215 C 
ENDROOT
TORSDOF 0
ENDMDL
MODEL 5
REMARK VINA RESULT:      -3.5      1.980      1.980
REMARK  Name = 11207
REMARK  0 active torsions:
REMARK  status: ('A' for Active; 'I' for Inactive)
REMARK                            x       y       z     vdW  Elec       q    Type
REMARK                         _______ _______ _______ _____ _____    ______ ____
ROOT
ATOM      1  S   UNL     1      28.321 -23.030 -16.439  0.00  0.00    +0.130 S 
ATOM      2  F   UNL     1      29.675 -22.362 -16.936  0.00  0.00    -0.060 F 
ATOM      3  O   UNL     1      27.700 -23.568 -17.636  0.00  0.00    -0.142 OA
ATOM      4  O   UNL     1      27.664 -22.010 -15.640  0.00  0.00    -0.142 OA
ATOM      5  C   UNL     1      28.791 -24.362 -15.391  0.00  0.00    +0.215 C 
ENDROOT
TORSDOF 0
ENDMDL
MODEL 6
REMARK VINA RESULT:      -3.5     10.322     10.538
REMARK  Name = 11207
REMARK  0 active torsions:
REMARK  status: ('A' for Active; 'I' for Inactive)
REMARK                            x       y       z     vdW  Elec       q    Type
REMARK                         _______ _______ _______ _____ _____    ______ ____
ROOT
ATOM      1  S   UNL     1      37.359 -23.705 -11.645  0.00  0.00    +0.130 S 
ATOM      2  F   UNL     1      38.108 -25.069 -11.973  0.00  0.00    -0.060 F 
ATOM      3  O   UNL     1      38.399 -22.692 -11.640  0.00  0.00    -0.142 OA
ATOM      4  O   UNL     1      36.568 -23.981 -10.458  0.00  0.00    -0.142 OA
ATOM      5  C   UNL     1      36.276 -23.407 -12.998  0.00  0.00    +0.215 C 
ENDROOT
TORSDOF 0
ENDMDL
MODEL 7
REMARK VINA RESULT:      -3.5     11.374     11.552
REMARK  Name = 11207
REMARK  0 active torsions:
REMARK  status: ('A' for Active; 'I' for Inactive)
REMARK                            x       y       z     vdW  Elec       q    Type
REMARK                         _______ _______ _______ _____ _____    ______ ____
ROOT
ATOM      1  S   UNL     1      39.344 -25.542 -14.179  0.00  0.00    +0.130 S 
ATOM      2  F   UNL     1      38.929 -25.754 -12.659  0.00  0.00    -0.060 F 
ATOM      3  O   UNL     1      39.184 -26.844 -14.802  0.00  0.00    -0.142 OA
ATOM      4  O   UNL     1      40.636 -24.880 -14.133  0.00  0.00    -0.142 OA
ATOM      5  C   UNL     1      38.159 -24.434 -14.858  0.00  0.00    +0.215 C 
ENDROOT
TORSDOF 0
ENDMDL
MODEL 8
REMARK VINA RESULT:      -3.4      9.770      9.938
REMARK  Name = 11207
REMARK  0 active torsions:
REMARK  status: ('A' for Active; 'I' for Inactive)
REMARK                            x       y       z     vdW  Elec       q    Type
REMARK                         _______ _______ _______ _____ _____    ______ ____
ROOT
ATOM      1  S   UNL     1      37.439 -26.483 -14.817  0.00  0.00    +0.130 S 
ATOM      2  F   UNL     1      36.922 -26.990 -13.402  0.00  0.00    -0.060 F 
ATOM      3  O   UNL     1      36.487 -27.007 -15.780  0.00  0.00    -0.142 OA
ATOM      4  O   UNL     1      38.843 -26.853 -14.864  0.00  0.00    -0.142 OA
ATOM      5  C   UNL     1      37.311 -24.729 -14.783  0.00  0.00    +0.215 C 
ENDROOT
TORSDOF 0
ENDMDL
MODEL 9
REMARK VINA RESULT:      -3.4     15.090     15.337
REMARK  Name = 11207
REMARK  0 active torsions:
REMARK  status: ('A' for Active; 'I' for Inactive)
REMARK                            x       y       z     vdW  Elec       q    Type
REMARK                         _______ _______ _______ _____ _____    ______ ____
ROOT
ATOM      1  S   UNL     1      41.889 -16.174 -16.726  0.00  0.00    +0.130 S 
ATOM      2  F   UNL     1      41.449 -17.673 -17.021  0.00  0.00    -0.060 F 
ATOM      3  O   UNL     1      41.421 -15.408 -17.868  0.00  0.00    -0.142 OA
ATOM      4  O   UNL     1      43.302 -16.250 -16.395  0.00  0.00    -0.142 OA
ATOM      5  C   UNL     1      40.994 -15.675 -15.296  0.00  0.00    +0.215 C 
ENDROOT
TORSDOF 0
ENDMDL
