MODEL 1
REMARK VINA RESULT:      -9.9      0.000      0.000
REMARK  Name = 5326637
REMARK  3 active torsions:
REMARK  status: ('A' for Active; 'I' for Inactive)
REMARK    1  A    between atoms: C_8  and  N_18
REMARK    2  A    between atoms: C_9  and  O_19
REMARK    3  A    between atoms: C_10  and  O_21
REMARK                            x       y       z     vdW  Elec       q    Type
REMARK                         _______ _______ _______ _____ _____    ______ ____
ROOT
ATOM      1  O   UNL     1      31.463 -22.809 -17.390  0.00  0.00    -0.451 OA
ATOM      2  O   UNL     1      34.436 -24.055 -14.870  0.00  0.00    -0.286 OA
ATOM      3  C   UNL     1      32.127 -23.903 -15.311  0.00  0.00    +0.109 A 
ATOM      4  C   UNL     1      31.166 -23.453 -16.215  0.00  0.00    +0.174 A 
ATOM      5  C   UNL     1      33.846 -22.989 -16.885  0.00  0.00    +0.107 A 
ATOM      6  C   UNL     1      32.784 -22.592 -17.697  0.00  0.00    +0.151 A 
ATOM      7  C   UNL     1      33.548 -23.682 -15.621  0.00  0.00    +0.207 A 
ATOM      8  C   UNL     1      29.811 -23.654 -15.939  0.00  0.00    +0.177 C 
ATOM      9  C   UNL     1      31.748 -24.552 -14.133  0.00  0.00    +0.140 C 
ATOM     10  C   UNL     1      35.165 -22.733 -17.266  0.00  0.00    +0.140 C 
ATOM     11  C   UNL     1      33.043 -21.935 -18.902  0.00  0.00    +0.038 C 
ATOM     12  C   UNL     1      29.427 -24.302 -14.765  0.00  0.00    +0.030 C 
ATOM     13  C   UNL     1      30.393 -24.750 -13.864  0.00  0.00    +0.039 C 
ATOM     14  C   UNL     1      35.419 -22.076 -18.470  0.00  0.00    +0.037 C 
ATOM     15  C   UNL     1      34.360 -21.676 -19.286  0.00  0.00    +0.006 C 
ENDROOT
BRANCH   8  18
ATOM     16  O   UNL     1      28.090 -24.059 -17.418  0.00  0.00    -0.126 OA
ATOM     17  O   UNL     1      28.656 -21.976 -17.019  0.00  0.00    -0.126 OA
ATOM     18  N   UNL     1      28.802 -23.208 -16.838  0.00  0.00    +0.061 N 
ENDBRANCH   8  18
BRANCH   9  19
ATOM     19  O   UNL     1      32.648 -25.008 -13.218  0.00  0.00    -0.505 OA
ATOM     20  H   UNL     1      33.010 -24.421 -12.584  0.00  0.00    +0.292 HD
ENDBRANCH   9  19
BRANCH  10  21
ATOM     21  O   UNL     1      36.237 -23.100 -16.509  0.00  0.00    -0.505 OA
ATOM     22  H   UNL     1      36.109 -23.395 -15.629  0.00  0.00    +0.292 HD
ENDBRANCH  10  21
TORSDOF 3
ENDMDL
MODEL 2
REMARK VINA RESULT:      -9.5      3.575      6.264
REMARK  Name = 5326637
REMARK  3 active torsions:
REMARK  status: ('A' for Active; 'I' for Inactive)
REMARK    1  A    between atoms: C_8  and  N_18
REMARK    2  A    between atoms: C_9  and  O_19
REMARK    3  A    between atoms: C_10  and  O_21
REMARK                            x       y       z     vdW  Elec       q    Type
REMARK                         _______ _______ _______ _____ _____    ______ ____
ROOT
ATOM      1  O   UNL     1      34.122 -23.921 -12.739  0.00  0.00    -0.451 OA
ATOM      2  O   UNL     1      35.294 -23.555 -16.642  0.00  0.00    -0.286 OA
ATOM      3  C   UNL     1      35.911 -23.932 -14.400  0.00  0.00    +0.109 A 
ATOM      4  C   UNL     1      35.442 -24.045 -13.092  0.00  0.00    +0.174 A 
ATOM      5  C   UNL     1      33.535 -23.532 -15.078  0.00  0.00    +0.107 A 
ATOM      6  C   UNL     1      33.205 -23.669 -13.729  0.00  0.00    +0.151 A 
ATOM      7  C   UNL     1      34.945 -23.663 -15.476  0.00  0.00    +0.207 A 
ATOM      8  C   UNL     1      36.343 -24.301 -12.055  0.00  0.00    +0.177 C 
ATOM      9  C   UNL     1      37.273 -24.071 -14.683  0.00  0.00    +0.140 C 
ATOM     10  C   UNL     1      32.544 -23.275 -16.029  0.00  0.00    +0.140 C 
ATOM     11  C   UNL     1      31.872 -23.550 -13.329  0.00  0.00    +0.038 C 
ATOM     12  C   UNL     1      37.704 -24.441 -12.332  0.00  0.00    +0.030 C 
ATOM     13  C   UNL     1      38.167 -24.327 -13.642  0.00  0.00    +0.039 C 
ATOM     14  C   UNL     1      31.215 -23.157 -15.623  0.00  0.00    +0.037 C 
ATOM     15  C   UNL     1      30.879 -23.293 -14.276  0.00  0.00    +0.006 C 
ENDROOT
BRANCH   8  18
ATOM     16  O   UNL     1      35.051 -25.298 -10.427  0.00  0.00    -0.126 OA
ATOM     17  O   UNL     1      36.379 -23.649  -9.844  0.00  0.00    -0.126 OA
ATOM     18  N   UNL     1      35.902 -24.422 -10.708  0.00  0.00    +0.061 N 
ENDBRANCH   8  18
BRANCH   9  19
ATOM     19  O   UNL     1      37.780 -23.967 -15.942  0.00  0.00    -0.505 OA
ATOM     20  H   UNL     1      38.690 -24.128 -16.095  0.00  0.00    +0.292 HD
ENDBRANCH   9  19
BRANCH  10  21
ATOM     21  O   UNL     1      32.814 -23.134 -17.357  0.00  0.00    -0.505 OA
ATOM     22  H   UNL     1      33.599 -23.497 -17.716  0.00  0.00    +0.292 HD
ENDBRANCH  10  21
TORSDOF 3
ENDMDL
MODEL 3
REMARK VINA RESULT:      -9.5      3.159      4.748
REMARK  Name = 5326637
REMARK  3 active torsions:
REMARK  status: ('A' for Active; 'I' for Inactive)
REMARK    1  A    between atoms: C_8  and  N_18
REMARK    2  A    between atoms: C_9  and  O_19
REMARK    3  A    between atoms: C_10  and  O_21
REMARK                            x       y       z     vdW  Elec       q    Type
REMARK                         _______ _______ _______ _____ _____    ______ ____
ROOT
ATOM      1  O   UNL     1      35.696 -24.039 -15.996  0.00  0.00    -0.451 OA
ATOM      2  O   UNL     1      34.115 -24.523 -12.252  0.00  0.00    -0.286 OA
ATOM      3  C   UNL     1      33.771 -23.906 -14.499  0.00  0.00    +0.109 A 
ATOM      4  C   UNL     1      34.374 -23.764 -15.748  0.00  0.00    +0.174 A 
ATOM      5  C   UNL     1      36.002 -24.665 -13.654  0.00  0.00    +0.107 A 
ATOM      6  C   UNL     1      36.475 -24.478 -14.953  0.00  0.00    +0.151 A 
ATOM      7  C   UNL     1      34.587 -24.376 -13.369  0.00  0.00    +0.207 A 
ATOM      8  C   UNL     1      33.616 -23.319 -16.834  0.00  0.00    +0.177 C 
ATOM      9  C   UNL     1      32.417 -23.607 -14.325  0.00  0.00    +0.140 C 
ATOM     10  C   UNL     1      36.856 -25.116 -12.645  0.00  0.00    +0.140 C 
ATOM     11  C   UNL     1      37.813 -24.747 -15.246  0.00  0.00    +0.038 C 
ATOM     12  C   UNL     1      32.264 -23.019 -16.665  0.00  0.00    +0.030 C 
ATOM     13  C   UNL     1      31.666 -23.163 -15.414  0.00  0.00    +0.039 C 
ATOM     14  C   UNL     1      38.192 -25.382 -12.943  0.00  0.00    +0.037 C 
ATOM     15  C   UNL     1      38.671 -25.197 -14.241  0.00  0.00    +0.006 C 
ENDROOT
BRANCH   8  18
ATOM     16  O   UNL     1      33.819 -23.910 -19.053  0.00  0.00    -0.126 OA
ATOM     17  O   UNL     1      35.069 -22.276 -18.289  0.00  0.00    -0.126 OA
ATOM     18  N   UNL     1      34.197 -23.161 -18.124  0.00  0.00    +0.061 N 
ENDBRANCH   8  18
BRANCH   9  19
ATOM     19  O   UNL     1      31.783 -23.727 -13.126  0.00  0.00    -0.505 OA
ATOM     20  H   UNL     1      30.863 -23.905 -13.098  0.00  0.00    +0.292 HD
ENDBRANCH   9  19
BRANCH  10  21
ATOM     21  O   UNL     1      36.444 -25.314 -11.362  0.00  0.00    -0.505 OA
ATOM     22  H   UNL     1      36.129 -26.155 -11.097  0.00  0.00    +0.292 HD
ENDBRANCH  10  21
TORSDOF 3
ENDMDL
MODEL 4
REMARK VINA RESULT:      -9.3      2.825      4.943
REMARK  Name = 5326637
REMARK  3 active torsions:
REMARK  status: ('A' for Active; 'I' for Inactive)
REMARK    1  A    between atoms: C_8  and  N_18
REMARK    2  A    between atoms: C_9  and  O_19
REMARK    3  A    between atoms: C_10  and  O_21
REMARK                            x       y       z     vdW  Elec       q    Type
REMARK                         _______ _______ _______ _____ _____    ______ ____
ROOT
ATOM      1  O   UNL     1      36.038 -22.648 -17.012  0.00  0.00    -0.451 OA
ATOM      2  O   UNL     1      32.068 -22.511 -17.995  0.00  0.00    -0.286 OA
ATOM      3  C   UNL     1      33.724 -23.209 -16.471  0.00  0.00    +0.109 A 
ATOM      4  C   UNL     1      35.091 -23.218 -16.198  0.00  0.00    +0.174 A 
ATOM      5  C   UNL     1      34.284 -21.950 -18.562  0.00  0.00    +0.107 A 
ATOM      6  C   UNL     1      35.619 -22.033 -18.166  0.00  0.00    +0.151 A 
ATOM      7  C   UNL     1      33.254 -22.554 -17.702  0.00  0.00    +0.207 A 
ATOM      8  C   UNL     1      35.559 -23.834 -15.035  0.00  0.00    +0.177 C 
ATOM      9  C   UNL     1      32.819 -23.810 -15.593  0.00  0.00    +0.140 C 
ATOM     10  C   UNL     1      33.934 -21.306 -19.751  0.00  0.00    +0.140 C 
ATOM     11  C   UNL     1      36.613 -21.466 -18.967  0.00  0.00    +0.038 C 
ATOM     12  C   UNL     1      34.659 -24.436 -14.154  0.00  0.00    +0.030 C 
ATOM     13  C   UNL     1      33.293 -24.423 -14.433  0.00  0.00    +0.039 C 
ATOM     14  C   UNL     1      34.931 -20.742 -20.547  0.00  0.00    +0.037 C 
ATOM     15  C   UNL     1      36.268 -20.822 -20.156  0.00  0.00    +0.006 C 
ENDROOT
BRANCH   8  18
ATOM     16  O   UNL     1      37.452 -22.892 -14.116  0.00  0.00    -0.126 OA
ATOM     17  O   UNL     1      37.622 -24.863 -15.066  0.00  0.00    -0.126 OA
ATOM     18  N   UNL     1      36.947 -23.864 -14.723  0.00  0.00    +0.061 N 
ENDBRANCH   8  18
BRANCH   9  19
ATOM     19  O   UNL     1      31.476 -23.829 -15.816  0.00  0.00    -0.505 OA
ATOM     20  H   UNL     1      30.963 -23.062 -15.654  0.00  0.00    +0.292 HD
ENDBRANCH   9  19
BRANCH  10  21
ATOM     21  O   UNL     1      32.646 -21.198 -20.182  0.00  0.00    -0.505 OA
ATOM     22  H   UNL     1      32.377 -20.444 -20.668  0.00  0.00    +0.292 HD
ENDBRANCH  10  21
TORSDOF 3
ENDMDL
MODEL 5
REMARK VINA RESULT:      -9.2      7.788     10.617
REMARK  Name = 5326637
REMARK  3 active torsions:
REMARK  status: ('A' for Active; 'I' for Inactive)
REMARK    1  A    between atoms: C_8  and  N_18
REMARK    2  A    between atoms: C_9  and  O_19
REMARK    3  A    between atoms: C_10  and  O_21
REMARK                            x       y       z     vdW  Elec       q    Type
REMARK                         _______ _______ _______ _____ _____    ______ ____
ROOT
ATOM      1  O   UNL     1      33.672 -16.750 -21.265  0.00  0.00    -0.451 OA
ATOM      2  O   UNL     1      33.740 -14.814 -24.869  0.00  0.00    -0.286 OA
ATOM      3  C   UNL     1      34.192 -16.778 -23.650  0.00  0.00    +0.109 A 
ATOM      4  C   UNL     1      34.140 -17.377 -22.392  0.00  0.00    +0.174 A 
ATOM      5  C   UNL     1      33.224 -14.737 -22.573  0.00  0.00    +0.107 A 
ATOM      6  C   UNL     1      33.229 -15.455 -21.377  0.00  0.00    +0.151 A 
ATOM      7  C   UNL     1      33.721 -15.392 -23.793  0.00  0.00    +0.207 A 
ATOM      8  C   UNL     1      34.582 -18.694 -22.236  0.00  0.00    +0.177 C 
ATOM      9  C   UNL     1      34.682 -17.482 -24.754  0.00  0.00    +0.140 C 
ATOM     10  C   UNL     1      32.757 -13.420 -22.608  0.00  0.00    +0.140 C 
ATOM     11  C   UNL     1      32.761 -14.853 -20.208  0.00  0.00    +0.038 C 
ATOM     12  C   UNL     1      35.072 -19.401 -23.334  0.00  0.00    +0.030 C 
ATOM     13  C   UNL     1      35.121 -18.796 -24.590  0.00  0.00    +0.039 C 
ATOM     14  C   UNL     1      32.291 -12.824 -21.437  0.00  0.00    +0.037 C 
ATOM     15  C   UNL     1      32.293 -13.538 -20.238  0.00  0.00    +0.006 C 
ENDROOT
BRANCH   8  18
ATOM     16  O   UNL     1      33.476 -19.870 -20.591  0.00  0.00    -0.126 OA
ATOM     17  O   UNL     1      35.584 -19.352 -20.266  0.00  0.00    -0.126 OA
ATOM     18  N   UNL     1      34.545 -19.337 -20.967  0.00  0.00    +0.061 N 
ENDBRANCH   8  18
BRANCH   9  19
ATOM     19  O   UNL     1      34.755 -16.941 -26.002  0.00  0.00    -0.505 OA
ATOM     20  H   UNL     1      34.064 -16.391 -26.315  0.00  0.00    +0.292 HD
ENDBRANCH   9  19
BRANCH  10  21
ATOM     21  O   UNL     1      32.731 -12.676 -23.749  0.00  0.00    -0.505 OA
ATOM     22  H   UNL     1      31.913 -12.383 -24.099  0.00  0.00    +0.292 HD
ENDBRANCH  10  21
TORSDOF 3
ENDMDL
MODEL 6
REMARK VINA RESULT:      -9.1      2.112      4.990
REMARK  Name = 5326637
REMARK  3 active torsions:
REMARK  status: ('A' for Active; 'I' for Inactive)
REMARK    1  A    between atoms: C_8  and  N_18
REMARK    2  A    between atoms: C_9  and  O_19
REMARK    3  A    between atoms: C_10  and  O_21
REMARK                            x       y       z     vdW  Elec       q    Type
REMARK                         _______ _______ _______ _____ _____    ______ ____
ROOT
ATOM      1  O   UNL     1      31.990 -23.441 -16.978  0.00  0.00    -0.451 OA
ATOM      2  O   UNL     1      33.019 -23.977 -13.054  0.00  0.00    -0.286 OA
ATOM      3  C   UNL     1      33.692 -23.371 -15.228  0.00  0.00    +0.109 A 
ATOM      4  C   UNL     1      33.272 -23.209 -16.548  0.00  0.00    +0.174 A 
ATOM      5  C   UNL     1      31.343 -24.063 -14.706  0.00  0.00    +0.107 A 
ATOM      6  C   UNL     1      31.061 -23.860 -16.057  0.00  0.00    +0.151 A 
ATOM      7  C   UNL     1      32.712 -23.819 -14.226  0.00  0.00    +0.207 A 
ATOM      8  C   UNL     1      34.186 -22.784 -17.515  0.00  0.00    +0.177 C 
ATOM      9  C   UNL     1      35.017 -23.114 -14.866  0.00  0.00    +0.140 C 
ATOM     10  C   UNL     1      30.344 -24.492 -13.828  0.00  0.00    +0.140 C 
ATOM     11  C   UNL     1      29.768 -24.086 -16.533  0.00  0.00    +0.038 C 
ATOM     12  C   UNL     1      35.510 -22.525 -17.159  0.00  0.00    +0.030 C 
ATOM     13  C   UNL     1      35.924 -22.689 -15.837  0.00  0.00    +0.039 C 
ATOM     14  C   UNL     1      29.055 -24.715 -14.310  0.00  0.00    +0.037 C 
ATOM     15  C   UNL     1      28.767 -24.514 -15.660  0.00  0.00    +0.006 C 
ENDROOT
BRANCH   8  18
ATOM     16  O   UNL     1      33.224 -21.543 -19.203  0.00  0.00    -0.126 OA
ATOM     17  O   UNL     1      34.035 -23.523 -19.694  0.00  0.00    -0.126 OA
ATOM     18  N   UNL     1      33.795 -22.608 -18.872  0.00  0.00    +0.061 N 
ENDBRANCH   8  18
BRANCH   9  19
ATOM     19  O   UNL     1      35.475 -23.259 -13.592  0.00  0.00    -0.505 OA
ATOM     20  H   UNL     1      35.516 -24.110 -13.203  0.00  0.00    +0.292 HD
ENDBRANCH   9  19
BRANCH  10  21
ATOM     21  O   UNL     1      30.568 -24.704 -12.501  0.00  0.00    -0.505 OA
ATOM     22  H   UNL     1      31.446 -24.760 -12.178  0.00  0.00    +0.292 HD
ENDBRANCH  10  21
TORSDOF 3
ENDMDL
MODEL 7
REMARK VINA RESULT:      -9.0      2.857      4.744
REMARK  Name = 5326637
REMARK  3 active torsions:
REMARK  status: ('A' for Active; 'I' for Inactive)
REMARK    1  A    between atoms: C_8  and  N_18
REMARK    2  A    between atoms: C_9  and  O_19
REMARK    3  A    between atoms: C_10  and  O_21
REMARK                            x       y       z     vdW  Elec       q    Type
REMARK                         _______ _______ _______ _____ _____    ______ ____
ROOT
ATOM      1  O   UNL     1      33.906 -24.233 -13.445  0.00  0.00    -0.451 OA
ATOM      2  O   UNL     1      36.547 -23.231 -16.406  0.00  0.00    -0.286 OA
ATOM      3  C   UNL     1      34.304 -23.499 -15.740  0.00  0.00    +0.109 A 
ATOM      4  C   UNL     1      33.461 -23.852 -14.687  0.00  0.00    +0.174 A 
ATOM      5  C   UNL     1      36.215 -23.943 -14.186  0.00  0.00    +0.107 A 
ATOM      6  C   UNL     1      35.261 -24.271 -13.223  0.00  0.00    +0.151 A 
ATOM      7  C   UNL     1      35.759 -23.532 -15.523  0.00  0.00    +0.207 A 
ATOM      8  C   UNL     1      32.077 -23.827 -14.872  0.00  0.00    +0.177 C 
ATOM      9  C   UNL     1      33.776 -23.121 -16.977  0.00  0.00    +0.140 C 
ATOM     10  C   UNL     1      37.578 -24.006 -13.885  0.00  0.00    +0.140 C 
ATOM     11  C   UNL     1      35.672 -24.663 -11.948  0.00  0.00    +0.038 C 
ATOM     12  C   UNL     1      31.545 -23.450 -16.106  0.00  0.00    +0.030 C 
ATOM     13  C   UNL     1      32.392 -23.097 -17.155  0.00  0.00    +0.039 C 
ATOM     14  C   UNL     1      37.984 -24.398 -12.609  0.00  0.00    +0.037 C 
ATOM     15  C   UNL     1      37.033 -24.727 -11.642  0.00  0.00    +0.006 C 
ENDROOT
BRANCH   8  18
ATOM     16  O   UNL     1      31.014 -23.377 -12.877  0.00  0.00    -0.126 OA
ATOM     17  O   UNL     1      30.600 -25.289 -13.873  0.00  0.00    -0.126 OA
ATOM     18  N   UNL     1      31.185 -24.182 -13.821  0.00  0.00    +0.061 N 
ENDBRANCH   8  18
BRANCH   9  19
ATOM     19  O   UNL     1      34.556 -22.769 -18.037  0.00  0.00    -0.505 OA
ATOM     20  H   UNL     1      34.426 -23.175 -18.870  0.00  0.00    +0.292 HD
ENDBRANCH   9  19
BRANCH  10  21
ATOM     21  O   UNL     1      38.550 -23.697 -14.789  0.00  0.00    -0.505 OA
ATOM     22  H   UNL     1      39.192 -24.337 -15.023  0.00  0.00    +0.292 HD
ENDBRANCH  10  21
TORSDOF 3
ENDMDL
MODEL 8
REMARK VINA RESULT:      -8.9      3.322      5.380
REMARK  Name = 5326637
REMARK  3 active torsions:
REMARK  status: ('A' for Active; 'I' for Inactive)
REMARK    1  A    between atoms: C_8  and  N_18
REMARK    2  A    between atoms: C_9  and  O_19
REMARK    3  A    between atoms: C_10  and  O_21
REMARK                            x       y       z     vdW  Elec       q    Type
REMARK                         _______ _______ _______ _____ _____    ______ ____
ROOT
ATOM      1  O   UNL     1      36.610 -22.795 -15.251  0.00  0.00    -0.451 OA
ATOM      2  O   UNL     1      32.675 -23.633 -15.997  0.00  0.00    -0.286 OA
ATOM      3  C   UNL     1      34.468 -23.669 -14.470  0.00  0.00    +0.109 A 
ATOM      4  C   UNL     1      35.815 -23.358 -14.285  0.00  0.00    +0.174 A 
ATOM      5  C   UNL     1      34.720 -22.783 -16.798  0.00  0.00    +0.107 A 
ATOM      6  C   UNL     1      36.052 -22.523 -16.476  0.00  0.00    +0.151 A 
ATOM      7  C   UNL     1      33.850 -23.384 -15.774  0.00  0.00    +0.207 A 
ATOM      8  C   UNL     1      36.421 -23.619 -13.053  0.00  0.00    +0.177 C 
ATOM      9  C   UNL     1      33.721 -24.240 -13.436  0.00  0.00    +0.140 C 
ATOM     10  C   UNL     1      34.223 -22.478 -18.067  0.00  0.00    +0.140 C 
ATOM     11  C   UNL     1      36.894 -21.952 -17.432  0.00  0.00    +0.038 C 
ATOM     12  C   UNL     1      35.679 -24.189 -12.018  0.00  0.00    +0.030 C 
ATOM     13  C   UNL     1      34.333 -24.498 -12.209  0.00  0.00    +0.039 C 
ATOM     14  C   UNL     1      35.069 -21.907 -19.018  0.00  0.00    +0.037 C 
ATOM     15  C   UNL     1      36.403 -21.645 -18.702  0.00  0.00    +0.006 C 
ENDROOT
BRANCH   8  18
ATOM     16  O   UNL     1      38.667 -24.051 -13.341  0.00  0.00    -0.126 OA
ATOM     17  O   UNL     1      38.084 -22.321 -12.122  0.00  0.00    -0.126 OA
ATOM     18  N   UNL     1      37.793 -23.316 -12.827  0.00  0.00    +0.061 N 
ENDBRANCH   8  18
BRANCH   9  19
ATOM     19  O   UNL     1      32.405 -24.564 -13.568  0.00  0.00    -0.505 OA
ATOM     20  H   UNL     1      32.014 -25.183 -12.984  0.00  0.00    +0.292 HD
ENDBRANCH   9  19
BRANCH  10  21
ATOM     21  O   UNL     1      32.931 -22.711 -18.431  0.00  0.00    -0.505 OA
ATOM     22  H   UNL     1      32.231 -22.447 -17.867  0.00  0.00    +0.292 HD
ENDBRANCH  10  21
TORSDOF 3
ENDMDL
MODEL 9
REMARK VINA RESULT:      -8.9      3.696      6.045
REMARK  Name = 5326637
REMARK  3 active torsions:
REMARK  status: ('A' for Active; 'I' for Inactive)
REMARK    1  A    between atoms: C_8  and  N_18
REMARK    2  A    between atoms: C_9  and  O_19
REMARK    3  A    between atoms: C_10  and  O_21
REMARK                            x       y       z     vdW  Elec       q    Type
REMARK                         _______ _______ _______ _____ _____    ______ ____
ROOT
ATOM      1  O   UNL     1      36.094 -23.960 -15.695  0.00  0.00    -0.451 OA
ATOM      2  O   UNL     1      33.169 -24.151 -12.839  0.00  0.00    -0.286 OA
ATOM      3  C   UNL     1      35.445 -24.418 -13.385  0.00  0.00    +0.109 A 
ATOM      4  C   UNL     1      36.390 -24.332 -14.407  0.00  0.00    +0.174 A 
ATOM      5  C   UNL     1      33.745 -23.701 -15.078  0.00  0.00    +0.107 A 
ATOM      6  C   UNL     1      34.790 -23.657 -16.000  0.00  0.00    +0.151 A 
ATOM      7  C   UNL     1      34.042 -24.096 -13.692  0.00  0.00    +0.207 A 
ATOM      8  C   UNL     1      37.727 -24.632 -14.137  0.00  0.00    +0.177 C 
ATOM      9  C   UNL     1      35.823 -24.803 -12.097  0.00  0.00    +0.140 C 
ATOM     10  C   UNL     1      32.441 -23.378 -15.464  0.00  0.00    +0.140 C 
ATOM     11  C   UNL     1      34.530 -23.284 -17.321  0.00  0.00    +0.038 C 
ATOM     12  C   UNL     1      38.110 -25.017 -12.852  0.00  0.00    +0.030 C 
ATOM     13  C   UNL     1      37.160 -25.102 -11.834  0.00  0.00    +0.039 C 
ATOM     14  C   UNL     1      32.188 -23.006 -16.784  0.00  0.00    +0.037 C 
ATOM     15  C   UNL     1      33.230 -22.960 -17.711  0.00  0.00    +0.006 C 
ENDROOT
BRANCH   8  18
ATOM     16  O   UNL     1      39.354 -25.593 -15.458  0.00  0.00    -0.126 OA
ATOM     17  O   UNL     1      38.927 -23.455 -15.715  0.00  0.00    -0.126 OA
ATOM     18  N   UNL     1      38.720 -24.556 -15.154  0.00  0.00    +0.061 N 
ENDBRANCH   8  18
BRANCH   9  19
ATOM     19  O   UNL     1      34.938 -24.904 -11.067  0.00  0.00    -0.505 OA
ATOM     20  H   UNL     1      34.623 -25.746 -10.801  0.00  0.00    +0.292 HD
ENDBRANCH   9  19
BRANCH  10  21
ATOM     21  O   UNL     1      31.387 -23.406 -14.602  0.00  0.00    -0.505 OA
ATOM     22  H   UNL     1      31.207 -22.664 -14.059  0.00  0.00    +0.292 HD
ENDBRANCH  10  21
TORSDOF 3
ENDMDL
