MODEL 1
REMARK VINA RESULT:      -6.9      0.000      0.000
REMARK  Name = 17507
REMARK  3 active torsions:
REMARK  status: ('A' for Active; 'I' for Inactive)
REMARK    1  A    between atoms: C_1  and  S_7
REMARK    2  A    between atoms: C_2  and  O_11
REMARK    3  A    between atoms: C_4  and  O_13
REMARK                            x       y       z     vdW  Elec       q    Type
REMARK                         _______ _______ _______ _____ _____    ______ ____
ROOT
ATOM      1  C   UNL     1      38.893 -25.118 -14.159  0.00  0.00    +0.149 C 
ATOM      2  C   UNL     1      38.175 -24.181 -14.902  0.00  0.00    +0.151 C 
ATOM      3  C   UNL     1      38.306 -25.723 -13.048  0.00  0.00    +0.059 C 
ATOM      4  C   UNL     1      37.001 -25.393 -12.681  0.00  0.00    +0.135 C 
ATOM      5  C   UNL     1      36.870 -23.850 -14.536  0.00  0.00    +0.041 C 
ATOM      6  C   UNL     1      36.284 -24.456 -13.425  0.00  0.00    +0.040 C 
ENDROOT
BRANCH   1   7
ATOM      7  S   UNL     1      40.530 -25.549 -14.598  0.00  0.00    +0.045 S 
ATOM      8  O   UNL     1      40.435 -26.065 -16.144  0.00  0.00    -0.065 OA
ATOM      9  O   UNL     1      41.326 -24.331 -14.603  0.00  0.00    -0.065 OA
ATOM     10  O   UNL     1      40.906 -26.679 -13.764  0.00  0.00    -0.065 OA
ENDBRANCH   1   7
BRANCH   2  11
ATOM     11  O   UNL     1      38.729 -23.576 -15.991  0.00  0.00    -0.504 OA
ATOM     12  H   UNL     1      38.969 -24.087 -16.739  0.00  0.00    +0.292 HD
ENDBRANCH   2  11
BRANCH   4  13
ATOM     13  O   UNL     1      36.428 -25.985 -11.597  0.00  0.00    -0.505 OA
ATOM     14  H   UNL     1      36.449 -25.557 -10.764  0.00  0.00    +0.292 HD
ENDBRANCH   4  13
TORSDOF 3
ENDMDL
MODEL 2
REMARK VINA RESULT:      -6.6      8.047      9.840
REMARK  Name = 17507
REMARK  3 active torsions:
REMARK  status: ('A' for Active; 'I' for Inactive)
REMARK    1  A    between atoms: C_1  and  S_7
REMARK    2  A    between atoms: C_2  and  O_11
REMARK    3  A    between atoms: C_4  and  O_13
REMARK                            x       y       z     vdW  Elec       q    Type
REMARK                         _______ _______ _______ _____ _____    ______ ____
ROOT
ATOM      1  C   UNL     1      29.772 -23.794 -15.626  0.00  0.00    +0.149 C 
ATOM      2  C   UNL     1      29.672 -24.798 -14.664  0.00  0.00    +0.151 C 
ATOM      3  C   UNL     1      31.006 -23.197 -15.885  0.00  0.00    +0.059 C 
ATOM      4  C   UNL     1      32.140 -23.606 -15.183  0.00  0.00    +0.135 C 
ATOM      5  C   UNL     1      30.806 -25.207 -13.961  0.00  0.00    +0.041 C 
ATOM      6  C   UNL     1      32.040 -24.611 -14.221  0.00  0.00    +0.040 C 
ENDROOT
BRANCH   1   7
ATOM      7  S   UNL     1      28.365 -23.263 -16.520  0.00  0.00    +0.045 S 
ATOM      8  O   UNL     1      27.245 -22.915 -15.383  0.00  0.00    -0.065 OA
ATOM      9  O   UNL     1      28.703 -22.013 -17.183  0.00  0.00    -0.065 OA
ATOM     10  O   UNL     1      27.896 -24.408 -17.283  0.00  0.00    -0.065 OA
ENDBRANCH   1   7
BRANCH   2  11
ATOM     11  O   UNL     1      28.477 -25.395 -14.393  0.00  0.00    -0.504 OA
ATOM     12  H   UNL     1      27.964 -25.106 -13.664  0.00  0.00    +0.292 HD
ENDBRANCH   2  11
BRANCH   4  13
ATOM     13  O   UNL     1      33.345 -23.024 -15.437  0.00  0.00    -0.505 OA
ATOM     14  H   UNL     1      33.691 -23.025 -16.307  0.00  0.00    +0.292 HD
ENDBRANCH   4  13
TORSDOF 3
ENDMDL
MODEL 3
REMARK VINA RESULT:      -6.6      8.191      9.723
REMARK  Name = 17507
REMARK  3 active torsions:
REMARK  status: ('A' for Active; 'I' for Inactive)
REMARK    1  A    between atoms: C_1  and  S_7
REMARK    2  A    between atoms: C_2  and  O_11
REMARK    3  A    between atoms: C_4  and  O_13
REMARK                            x       y       z     vdW  Elec       q    Type
REMARK                         _______ _______ _______ _____ _____    ______ ____
ROOT
ATOM      1  C   UNL     1      29.639 -23.468 -15.693  0.00  0.00    +0.149 C 
ATOM      2  C   UNL     1      30.890 -23.058 -16.152  0.00  0.00    +0.151 C 
ATOM      3  C   UNL     1      29.530 -24.148 -14.481  0.00  0.00    +0.059 C 
ATOM      4  C   UNL     1      30.673 -24.417 -13.726  0.00  0.00    +0.135 C 
ATOM      5  C   UNL     1      32.034 -23.328 -15.399  0.00  0.00    +0.041 C 
ATOM      6  C   UNL     1      31.924 -24.007 -14.186  0.00  0.00    +0.040 C 
ENDROOT
BRANCH   1   7
ATOM      7  S   UNL     1      28.192 -23.143 -16.620  0.00  0.00    +0.045 S 
ATOM      8  O   UNL     1      27.005 -22.970 -15.512  0.00  0.00    -0.065 OA
ATOM      9  O   UNL     1      28.359 -21.853 -17.271  0.00  0.00    -0.065 OA
ATOM     10  O   UNL     1      27.914 -24.339 -17.399  0.00  0.00    -0.065 OA
ENDBRANCH   1   7
BRANCH   2  11
ATOM     11  O   UNL     1      31.021 -22.393 -17.335  0.00  0.00    -0.504 OA
ATOM     12  H   UNL     1      31.383 -22.830 -18.080  0.00  0.00    +0.292 HD
ENDBRANCH   2  11
BRANCH   4  13
ATOM     13  O   UNL     1      30.566 -25.081 -12.542  0.00  0.00    -0.505 OA
ATOM     14  H   UNL     1      31.142 -25.795 -12.352  0.00  0.00    +0.292 HD
ENDBRANCH   4  13
TORSDOF 3
ENDMDL
MODEL 4
REMARK VINA RESULT:      -6.5      2.752      3.597
REMARK  Name = 17507
REMARK  3 active torsions:
REMARK  status: ('A' for Active; 'I' for Inactive)
REMARK    1  A    between atoms: C_1  and  S_7
REMARK    2  A    between atoms: C_2  and  O_11
REMARK    3  A    between atoms: C_4  and  O_13
REMARK                            x       y       z     vdW  Elec       q    Type
REMARK                         _______ _______ _______ _____ _____    ______ ____
ROOT
ATOM      1  C   UNL     1      36.265 -23.674 -13.150  0.00  0.00    +0.149 C 
ATOM      2  C   UNL     1      36.380 -23.201 -14.457  0.00  0.00    +0.151 C 
ATOM      3  C   UNL     1      35.064 -24.232 -12.715  0.00  0.00    +0.059 C 
ATOM      4  C   UNL     1      33.978 -24.319 -13.586  0.00  0.00    +0.135 C 
ATOM      5  C   UNL     1      35.294 -23.286 -15.329  0.00  0.00    +0.041 C 
ATOM      6  C   UNL     1      34.093 -23.846 -14.893  0.00  0.00    +0.040 C 
ENDROOT
BRANCH   1   7
ATOM      7  S   UNL     1      37.612 -23.577 -12.039  0.00  0.00    +0.045 S 
ATOM      8  O   UNL     1      38.849 -24.321 -12.801  0.00  0.00    -0.065 OA
ATOM      9  O   UNL     1      37.976 -22.175 -11.901  0.00  0.00    -0.065 OA
ATOM     10  O   UNL     1      37.254 -24.370 -10.874  0.00  0.00    -0.065 OA
ENDBRANCH   1   7
BRANCH   2  11
ATOM     11  O   UNL     1      37.544 -22.650 -14.905  0.00  0.00    -0.504 OA
ATOM     12  H   UNL     1      38.190 -23.191 -15.315  0.00  0.00    +0.292 HD
ENDBRANCH   2  11
BRANCH   4  13
ATOM     13  O   UNL     1      32.805 -24.865 -13.161  0.00  0.00    -0.505 OA
ATOM     14  H   UNL     1      32.694 -25.093 -12.259  0.00  0.00    +0.292 HD
ENDBRANCH   4  13
TORSDOF 3
ENDMDL
MODEL 5
REMARK VINA RESULT:      -6.5      7.325      8.977
REMARK  Name = 17507
REMARK  3 active torsions:
REMARK  status: ('A' for Active; 'I' for Inactive)
REMARK    1  A    between atoms: C_1  and  S_7
REMARK    2  A    between atoms: C_2  and  O_11
REMARK    3  A    between atoms: C_4  and  O_13
REMARK                            x       y       z     vdW  Elec       q    Type
REMARK                         _______ _______ _______ _____ _____    ______ ____
ROOT
ATOM      1  C   UNL     1      34.520 -21.160 -19.847  0.00  0.00    +0.149 C 
ATOM      2  C   UNL     1      33.618 -20.343 -20.528  0.00  0.00    +0.151 C 
ATOM      3  C   UNL     1      35.882 -20.868 -19.875  0.00  0.00    +0.059 C 
ATOM      4  C   UNL     1      36.344 -19.757 -20.581  0.00  0.00    +0.135 C 
ATOM      5  C   UNL     1      34.078 -19.232 -21.236  0.00  0.00    +0.041 C 
ATOM      6  C   UNL     1      35.442 -18.939 -21.262  0.00  0.00    +0.040 C 
ENDROOT
BRANCH   1   7
ATOM      7  S   UNL     1      33.966 -22.559 -18.954  0.00  0.00    +0.045 S 
ATOM      8  O   UNL     1      34.994 -22.694 -17.692  0.00  0.00    -0.065 OA
ATOM      9  O   UNL     1      32.655 -22.248 -18.406  0.00  0.00    -0.065 OA
ATOM     10  O   UNL     1      34.157 -23.712 -19.819  0.00  0.00    -0.065 OA
ENDBRANCH   1   7
BRANCH   2  11
ATOM     11  O   UNL     1      32.281 -20.610 -20.516  0.00  0.00    -0.504 OA
ATOM     12  H   UNL     1      31.939 -21.311 -21.035  0.00  0.00    +0.292 HD
ENDBRANCH   2  11
BRANCH   4  13
ATOM     13  O   UNL     1      37.675 -19.470 -20.607  0.00  0.00    -0.505 OA
ATOM     14  H   UNL     1      37.977 -18.683 -21.015  0.00  0.00    +0.292 HD
ENDBRANCH   4  13
TORSDOF 3
ENDMDL
MODEL 6
REMARK VINA RESULT:      -6.4      2.528      4.351
REMARK  Name = 17507
REMARK  3 active torsions:
REMARK  status: ('A' for Active; 'I' for Inactive)
REMARK    1  A    between atoms: C_1  and  S_7
REMARK    2  A    between atoms: C_2  and  O_11
REMARK    3  A    between atoms: C_4  and  O_13
REMARK                            x       y       z     vdW  Elec       q    Type
REMARK                         _______ _______ _______ _____ _____    ______ ____
ROOT
ATOM      1  C   UNL     1      36.341 -24.289 -13.431  0.00  0.00    +0.149 C 
ATOM      2  C   UNL     1      34.974 -24.373 -13.168  0.00  0.00    +0.151 C 
ATOM      3  C   UNL     1      36.786 -23.748 -14.636  0.00  0.00    +0.059 C 
ATOM      4  C   UNL     1      35.864 -23.289 -15.578  0.00  0.00    +0.135 C 
ATOM      5  C   UNL     1      34.051 -23.915 -14.110  0.00  0.00    +0.041 C 
ATOM      6  C   UNL     1      34.497 -23.373 -15.314  0.00  0.00    +0.040 C 
ENDROOT
BRANCH   1   7
ATOM      7  S   UNL     1      37.516 -24.858 -12.267  0.00  0.00    +0.045 S 
ATOM      8  O   UNL     1      37.206 -24.016 -10.902  0.00  0.00    -0.065 OA
ATOM      9  O   UNL     1      37.222 -26.254 -11.983  0.00  0.00    -0.065 OA
ATOM     10  O   UNL     1      38.824 -24.458 -12.760  0.00  0.00    -0.065 OA
ENDBRANCH   1   7
BRANCH   2  11
ATOM     11  O   UNL     1      34.515 -24.900 -11.997  0.00  0.00    -0.504 OA
ATOM     12  H   UNL     1      35.121 -25.236 -11.366  0.00  0.00    +0.292 HD
ENDBRANCH   2  11
BRANCH   4  13
ATOM     13  O   UNL     1      36.300 -22.759 -16.755  0.00  0.00    -0.505 OA
ATOM     14  H   UNL     1      36.805 -23.282 -17.346  0.00  0.00    +0.292 HD
ENDBRANCH   4  13
TORSDOF 3
ENDMDL
MODEL 7
REMARK VINA RESULT:      -6.4      1.685      2.174
REMARK  Name = 17507
REMARK  3 active torsions:
REMARK  status: ('A' for Active; 'I' for Inactive)
REMARK    1  A    between atoms: C_1  and  S_7
REMARK    2  A    between atoms: C_2  and  O_11
REMARK    3  A    between atoms: C_4  and  O_13
REMARK                            x       y       z     vdW  Elec       q    Type
REMARK                         _______ _______ _______ _____ _____    ______ ____
ROOT
ATOM      1  C   UNL     1      37.096 -25.067 -13.683  0.00  0.00    +0.149 C 
ATOM      2  C   UNL     1      36.206 -24.367 -14.499  0.00  0.00    +0.151 C 
ATOM      3  C   UNL     1      36.799 -25.261 -12.335  0.00  0.00    +0.059 C 
ATOM      4  C   UNL     1      35.611 -24.759 -11.802  0.00  0.00    +0.135 C 
ATOM      5  C   UNL     1      35.018 -23.864 -13.966  0.00  0.00    +0.041 C 
ATOM      6  C   UNL     1      34.722 -24.060 -12.618  0.00  0.00    +0.040 C 
ENDROOT
BRANCH   1   7
ATOM      7  S   UNL     1      38.591 -25.706 -14.328  0.00  0.00    +0.045 S 
ATOM      8  O   UNL     1      39.308 -24.443 -15.074  0.00  0.00    -0.065 OA
ATOM      9  O   UNL     1      39.439 -26.076 -13.205  0.00  0.00    -0.065 OA
ATOM     10  O   UNL     1      38.228 -26.685 -15.340  0.00  0.00    -0.065 OA
ENDBRANCH   1   7
BRANCH   2  11
ATOM     11  O   UNL     1      36.476 -24.164 -15.820  0.00  0.00    -0.504 OA
ATOM     12  H   UNL     1      36.304 -23.329 -16.209  0.00  0.00    +0.292 HD
ENDBRANCH   2  11
BRANCH   4  13
ATOM     13  O   UNL     1      35.321 -24.950 -10.485  0.00  0.00    -0.505 OA
ATOM     14  H   UNL     1      34.547 -25.416 -10.239  0.00  0.00    +0.292 HD
ENDBRANCH   4  13
TORSDOF 3
ENDMDL
MODEL 8
REMARK VINA RESULT:      -6.3     11.199     13.087
REMARK  Name = 17507
REMARK  3 active torsions:
REMARK  status: ('A' for Active; 'I' for Inactive)
REMARK    1  A    between atoms: C_1  and  S_7
REMARK    2  A    between atoms: C_2  and  O_11
REMARK    3  A    between atoms: C_4  and  O_13
REMARK                            x       y       z     vdW  Elec       q    Type
REMARK                         _______ _______ _______ _____ _____    ______ ____
ROOT
ATOM      1  C   UNL     1      34.486 -16.819 -22.354  0.00  0.00    +0.149 C 
ATOM      2  C   UNL     1      34.600 -18.169 -22.023  0.00  0.00    +0.151 C 
ATOM      3  C   UNL     1      34.558 -16.420 -23.687  0.00  0.00    +0.059 C 
ATOM      4  C   UNL     1      34.742 -17.371 -24.692  0.00  0.00    +0.135 C 
ATOM      5  C   UNL     1      34.785 -19.121 -23.026  0.00  0.00    +0.041 C 
ATOM      6  C   UNL     1      34.856 -18.721 -24.361  0.00  0.00    +0.040 C 
ENDROOT
BRANCH   1   7
ATOM      7  S   UNL     1      34.256 -15.607 -21.113  0.00  0.00    +0.045 S 
ATOM      8  O   UNL     1      32.704 -15.779 -20.633  0.00  0.00    -0.065 OA
ATOM      9  O   UNL     1      35.095 -15.964 -19.980  0.00  0.00    -0.065 OA
ATOM     10  O   UNL     1      34.389 -14.312 -21.760  0.00  0.00    -0.065 OA
ENDBRANCH   1   7
BRANCH   2  11
ATOM     11  O   UNL     1      34.535 -18.582 -20.725  0.00  0.00    -0.504 OA
ATOM     12  H   UNL     1      35.320 -18.796 -20.262  0.00  0.00    +0.292 HD
ENDBRANCH   2  11
BRANCH   4  13
ATOM     13  O   UNL     1      34.811 -16.981 -25.995  0.00  0.00    -0.505 OA
ATOM     14  H   UNL     1      34.716 -17.614 -26.679  0.00  0.00    +0.292 HD
ENDBRANCH   4  13
TORSDOF 3
ENDMDL
MODEL 9
REMARK VINA RESULT:      -6.3      6.759      8.639
REMARK  Name = 17507
REMARK  3 active torsions:
REMARK  status: ('A' for Active; 'I' for Inactive)
REMARK    1  A    between atoms: C_1  and  S_7
REMARK    2  A    between atoms: C_2  and  O_11
REMARK    3  A    between atoms: C_4  and  O_13
REMARK                            x       y       z     vdW  Elec       q    Type
REMARK                         _______ _______ _______ _____ _____    ______ ____
ROOT
ATOM      1  C   UNL     1      34.787 -21.445 -19.492  0.00  0.00    +0.149 C 
ATOM      2  C   UNL     1      36.157 -21.249 -19.314  0.00  0.00    +0.151 C 
ATOM      3  C   UNL     1      34.067 -20.603 -20.338  0.00  0.00    +0.059 C 
ATOM      4  C   UNL     1      34.717 -19.566 -21.009  0.00  0.00    +0.135 C 
ATOM      5  C   UNL     1      36.807 -20.212 -19.984  0.00  0.00    +0.041 C 
ATOM      6  C   UNL     1      36.086 -19.371 -20.831  0.00  0.00    +0.040 C 
ENDROOT
BRANCH   1   7
ATOM      7  S   UNL     1      33.950 -22.737 -18.662  0.00  0.00    +0.045 S 
ATOM      8  O   UNL     1      32.416 -22.206 -18.482  0.00  0.00    -0.065 OA
ATOM      9  O   UNL     1      33.903 -23.884 -19.556  0.00  0.00    -0.065 OA
ATOM     10  O   UNL     1      34.550 -22.847 -17.342  0.00  0.00    -0.065 OA
ENDBRANCH   1   7
BRANCH   2  11
ATOM     11  O   UNL     1      36.881 -22.059 -18.491  0.00  0.00    -0.504 OA
ATOM     12  H   UNL     1      36.543 -22.897 -18.243  0.00  0.00    +0.292 HD
ENDBRANCH   2  11
BRANCH   4  13
ATOM     13  O   UNL     1      34.013 -18.744 -21.836  0.00  0.00    -0.505 OA
ATOM     14  H   UNL     1      33.357 -19.100 -22.402  0.00  0.00    +0.292 HD
ENDBRANCH   4  13
TORSDOF 3
ENDMDL
