MODEL 1
REMARK VINA RESULT:      -9.9      0.000      0.000
REMARK  Name = 11524127
REMARK  2 active torsions:
REMARK  status: ('A' for Active; 'I' for Inactive)
REMARK    1  A    between atoms: C_11  and  C_22
REMARK    2  A    between atoms: C_23  and  O_28
REMARK                            x       y       z     vdW  Elec       q    Type
REMARK                         _______ _______ _______ _____ _____    ______ ____
ROOT
ATOM      1  F   UNL     1      33.087  -8.372 -22.045  0.00  0.00    -0.204 F 
ATOM      2  O   UNL     1      31.973 -14.647 -26.393  0.00  0.00    -0.275 OA
ATOM      3  N   UNL     1      33.263 -13.236 -25.063  0.00  0.00    -0.272 N 
ATOM      4  N   UNL     1      31.695 -12.797 -21.706  0.00  0.00    -0.355 N 
ATOM      5  C   UNL     1      33.778 -10.992 -24.132  0.00  0.00    +0.038 C 
ATOM      6  C   UNL     1      34.694  -9.795 -24.050  0.00  0.00    +0.006 C 
ATOM      7  C   UNL     1      33.437  -9.715 -24.866  0.00  0.00    +0.006 C 
ATOM      8  C   UNL     1      34.293 -12.176 -24.938  0.00  0.00    +0.098 C 
ATOM      9  C   UNL     1      32.893 -11.390 -22.918  0.00  0.00    -0.004 A 
ATOM     10  C   UNL     1      32.451 -12.689 -22.840  0.00  0.00    +0.052 A 
ATOM     11  C   UNL     1      32.702 -13.806 -23.803  0.00  0.00    +0.138 C 
ATOM     12  C   UNL     1      32.381 -10.660 -21.816  0.00  0.00    +0.040 A 
ATOM     13  C   UNL     1      31.636 -11.579 -21.062  0.00  0.00    +0.058 A 
ATOM     14  C   UNL     1      32.830 -13.766 -26.286  0.00  0.00    +0.227 C 
ATOM     15  C   UNL     1      32.445  -9.327 -21.362  0.00  0.00    +0.141 C 
ATOM     16  C   UNL     1      30.974 -11.229 -19.878  0.00  0.00    +0.017 C 
ATOM     17  C   UNL     1      33.462 -13.204 -27.535  0.00  0.00    +0.095 C 
ATOM     18  C   UNL     1      31.788  -8.965 -20.179  0.00  0.00    +0.030 C 
ATOM     19  C   UNL     1      31.065  -9.904 -19.449  0.00  0.00    +0.004 C 
ATOM     20  H   UNL     1      31.256 -13.622 -21.396  0.00  0.00    +0.166 HD
ENDROOT
BRANCH  11  22
ATOM     21 CL   UNL     1      36.172 -18.254 -21.678  0.00  0.00    -0.082 Cl
ATOM     22  C   UNL     1      33.569 -14.930 -23.255  0.00  0.00    +0.035 C 
ATOM     23  C   UNL     1      33.233 -15.568 -22.063  0.00  0.00    +0.137 C 
ATOM     24  C   UNL     1      34.705 -15.315 -23.962  0.00  0.00    +0.002 C 
ATOM     25  C   UNL     1      34.039 -16.596 -21.575  0.00  0.00    +0.048 C 
ATOM     26  C   UNL     1      35.511 -16.344 -23.473  0.00  0.00    +0.011 C 
ATOM     27  C   UNL     1      35.178 -16.985 -22.280  0.00  0.00    +0.061 C 
BRANCH  23  28
ATOM     28  O   UNL     1      32.124 -15.200 -21.362  0.00  0.00    -0.472 OA
ATOM     29  C   UNL     1      32.172 -15.357 -19.945  0.00  0.00    +0.252 C 
ENDBRANCH  23  28
ENDBRANCH  11  22
TORSDOF 2
ENDMDL
MODEL 2
REMARK VINA RESULT:      -9.0     11.372     14.884
REMARK  Name = 11524127
REMARK  2 active torsions:
REMARK  status: ('A' for Active; 'I' for Inactive)
REMARK    1  A    between atoms: C_11  and  C_22
REMARK    2  A    between atoms: C_23  and  O_28
REMARK                            x       y       z     vdW  Elec       q    Type
REMARK                         _______ _______ _______ _____ _____    ______ ____
ROOT
ATOM      1  F   UNL     1      32.264 -23.415 -16.932  0.00  0.00    -0.204 F 
ATOM      2  O   UNL     1      37.280 -22.465 -11.148  0.00  0.00    -0.275 OA
ATOM      3  N   UNL     1      36.111 -23.747 -12.702  0.00  0.00    -0.272 N 
ATOM      4  N   UNL     1      36.765 -22.529 -16.168  0.00  0.00    -0.355 N 
ATOM      5  C   UNL     1      34.139 -24.132 -14.163  0.00  0.00    +0.038 C 
ATOM      6  C   UNL     1      32.898 -24.924 -14.493  0.00  0.00    +0.006 C 
ATOM      7  C   UNL     1      32.770 -23.582 -13.833  0.00  0.00    +0.006 C 
ATOM      8  C   UNL     1      34.997 -24.671 -13.027  0.00  0.00    +0.098 C 
ATOM      9  C   UNL     1      34.949 -23.434 -15.291  0.00  0.00    -0.004 A 
ATOM     10  C   UNL     1      36.270 -23.138 -15.048  0.00  0.00    +0.052 A 
ATOM     11  C   UNL     1      37.056 -23.391 -13.801  0.00  0.00    +0.138 C 
ATOM     12  C   UNL     1      34.604 -22.977 -16.587  0.00  0.00    +0.040 A 
ATOM     13  C   UNL     1      35.775 -22.419 -17.120  0.00  0.00    +0.058 A 
ATOM     14  C   UNL     1      36.355 -23.235 -11.420  0.00  0.00    +0.227 C 
ATOM     15  C   UNL     1      33.438 -22.956 -17.380  0.00  0.00    +0.141 C 
ATOM     16  C   UNL     1      35.833 -21.862 -18.405  0.00  0.00    +0.017 C 
ATOM     17  C   UNL     1      35.411 -23.662 -10.324  0.00  0.00    +0.095 C 
ATOM     18  C   UNL     1      33.484 -22.401 -18.666  0.00  0.00    +0.030 C 
ATOM     19  C   UNL     1      34.665 -21.865 -19.169  0.00  0.00    +0.004 C 
ATOM     20  H   UNL     1      37.692 -22.215 -16.276  0.00  0.00    +0.166 HD
ENDROOT
BRANCH  11  22
ATOM     21 CL   UNL     1      41.475 -27.454 -14.358  0.00  0.00    -0.082 Cl
ATOM     22  C   UNL     1      38.163 -24.424 -13.951  0.00  0.00    +0.035 C 
ATOM     23  C   UNL     1      37.986 -25.540 -14.766  0.00  0.00    +0.137 C 
ATOM     24  C   UNL     1      39.359 -24.242 -13.262  0.00  0.00    +0.002 C 
ATOM     25  C   UNL     1      39.010 -26.478 -14.892  0.00  0.00    +0.048 C 
ATOM     26  C   UNL     1      40.384 -25.180 -13.388  0.00  0.00    +0.011 C 
ATOM     27  C   UNL     1      40.210 -26.298 -14.203  0.00  0.00    +0.061 C 
BRANCH  23  28
ATOM     28  O   UNL     1      36.820 -25.731 -15.445  0.00  0.00    -0.472 OA
ATOM     29  C   UNL     1      36.429 -27.081 -15.693  0.00  0.00    +0.252 C 
ENDBRANCH  23  28
ENDBRANCH  11  22
TORSDOF 2
ENDMDL
MODEL 3
REMARK VINA RESULT:      -8.9      1.027      1.671
REMARK  Name = 11524127
REMARK  2 active torsions:
REMARK  status: ('A' for Active; 'I' for Inactive)
REMARK    1  A    between atoms: C_11  and  C_22
REMARK    2  A    between atoms: C_23  and  O_28
REMARK                            x       y       z     vdW  Elec       q    Type
REMARK                         _______ _______ _______ _____ _____    ______ ____
ROOT
ATOM      1  F   UNL     1      33.056  -8.281 -22.009  0.00  0.00    -0.204 F 
ATOM      2  O   UNL     1      32.098 -14.655 -26.250  0.00  0.00    -0.275 OA
ATOM      3  N   UNL     1      33.341 -13.211 -24.910  0.00  0.00    -0.272 N 
ATOM      4  N   UNL     1      31.665 -12.702 -21.616  0.00  0.00    -0.355 N 
ATOM      5  C   UNL     1      33.821 -10.944 -24.013  0.00  0.00    +0.038 C 
ATOM      6  C   UNL     1      34.730  -9.743 -23.929  0.00  0.00    +0.006 C 
ATOM      7  C   UNL     1      33.500  -9.685 -24.787  0.00  0.00    +0.006 C 
ATOM      8  C   UNL     1      34.365 -12.145 -24.776  0.00  0.00    +0.098 C 
ATOM      9  C   UNL     1      32.898 -11.318 -22.820  0.00  0.00    -0.004 A 
ATOM     10  C   UNL     1      32.457 -12.617 -22.727  0.00  0.00    +0.052 A 
ATOM     11  C   UNL     1      32.741 -13.754 -23.657  0.00  0.00    +0.138 C 
ATOM     12  C   UNL     1      32.349 -10.567 -21.752  0.00  0.00    +0.040 A 
ATOM     13  C   UNL     1      31.584 -11.471 -21.002  0.00  0.00    +0.058 A 
ATOM     14  C   UNL     1      32.949 -13.769 -26.135  0.00  0.00    +0.227 C 
ATOM     15  C   UNL     1      32.396  -9.223 -21.326  0.00  0.00    +0.141 C 
ATOM     16  C   UNL     1      30.883 -11.096 -19.848  0.00  0.00    +0.017 C 
ATOM     17  C   UNL     1      33.619 -13.233 -27.375  0.00  0.00    +0.095 C 
ATOM     18  C   UNL     1      31.700  -8.837 -20.173  0.00  0.00    +0.030 C 
ATOM     19  C   UNL     1      30.957  -9.762 -19.445  0.00  0.00    +0.004 C 
ATOM     20  H   UNL     1      31.220 -13.522 -21.302  0.00  0.00    +0.166 HD
ENDROOT
BRANCH  11  22
ATOM     21 CL   UNL     1      36.119 -18.119 -21.230  0.00  0.00    -0.082 Cl
ATOM     22  C   UNL     1      33.593 -14.863 -23.057  0.00  0.00    +0.035 C 
ATOM     23  C   UNL     1      33.959 -15.969 -23.822  0.00  0.00    +0.137 C 
ATOM     24  C   UNL     1      34.006 -14.760 -21.731  0.00  0.00    +0.002 C 
ATOM     25  C   UNL     1      34.740 -16.977 -23.256  0.00  0.00    +0.048 C 
ATOM     26  C   UNL     1      34.787 -15.768 -21.165  0.00  0.00    +0.011 C 
ATOM     27  C   UNL     1      35.154 -16.876 -21.928  0.00  0.00    +0.061 C 
BRANCH  23  28
ATOM     28  O   UNL     1      33.562 -16.082 -25.120  0.00  0.00    -0.472 OA
ATOM     29  C   UNL     1      33.937 -17.273 -25.810  0.00  0.00    +0.252 C 
ENDBRANCH  23  28
ENDBRANCH  11  22
TORSDOF 2
ENDMDL
MODEL 4
REMARK VINA RESULT:      -8.4      3.173      6.758
REMARK  Name = 11524127
REMARK  2 active torsions:
REMARK  status: ('A' for Active; 'I' for Inactive)
REMARK    1  A    between atoms: C_11  and  C_22
REMARK    2  A    between atoms: C_23  and  O_28
REMARK                            x       y       z     vdW  Elec       q    Type
REMARK                         _______ _______ _______ _____ _____    ______ ____
ROOT
ATOM      1  F   UNL     1      35.035 -17.983 -21.296  0.00  0.00    -0.204 F 
ATOM      2  O   UNL     1      30.614 -11.843 -22.808  0.00  0.00    -0.275 OA
ATOM      3  N   UNL     1      32.639 -12.880 -22.310  0.00  0.00    -0.272 N 
ATOM      4  N   UNL     1      33.458 -15.464 -24.874  0.00  0.00    -0.355 N 
ATOM      5  C   UNL     1      33.943 -14.742 -21.307  0.00  0.00    +0.038 C 
ATOM      6  C   UNL     1      34.898 -15.241 -20.251  0.00  0.00    +0.006 C 
ATOM      7  C   UNL     1      33.433 -15.542 -20.129  0.00  0.00    +0.006 C 
ATOM      8  C   UNL     1      33.690 -13.240 -21.326  0.00  0.00    +0.098 C 
ATOM      9  C   UNL     1      33.902 -15.409 -22.710  0.00  0.00    -0.004 A 
ATOM     10  C   UNL     1      33.400 -14.676 -23.759  0.00  0.00    +0.052 A 
ATOM     11  C   UNL     1      32.856 -13.283 -23.731  0.00  0.00    +0.138 C 
ATOM     12  C   UNL     1      34.263 -16.697 -23.177  0.00  0.00    +0.040 A 
ATOM     13  C   UNL     1      33.981 -16.698 -24.551  0.00  0.00    +0.058 A 
ATOM     14  C   UNL     1      31.490 -12.143 -21.992  0.00  0.00    +0.227 C 
ATOM     15  C   UNL     1      34.787 -17.875 -22.607  0.00  0.00    +0.141 C 
ATOM     16  C   UNL     1      34.213 -17.809 -25.372  0.00  0.00    +0.017 C 
ATOM     17  C   UNL     1      31.335 -11.706 -20.557  0.00  0.00    +0.095 C 
ATOM     18  C   UNL     1      35.025 -18.992 -23.418  0.00  0.00    +0.030 C 
ATOM     19  C   UNL     1      34.743 -18.957 -24.780  0.00  0.00    +0.004 C 
ATOM     20  H   UNL     1      33.169 -15.190 -25.775  0.00  0.00    +0.166 HD
ENDROOT
BRANCH  11  22
ATOM     21 CL   UNL     1      36.183  -9.207 -26.674  0.00  0.00    -0.082 Cl
ATOM     22  C   UNL     1      33.693 -12.262 -24.485  0.00  0.00    +0.035 C 
ATOM     23  C   UNL     1      33.906 -12.393 -25.857  0.00  0.00    +0.137 C 
ATOM     24  C   UNL     1      34.247 -11.190 -23.789  0.00  0.00    +0.002 C 
ATOM     25  C   UNL     1      34.677 -11.448 -26.533  0.00  0.00    +0.048 C 
ATOM     26  C   UNL     1      35.018 -10.245 -24.467  0.00  0.00    +0.011 C 
ATOM     27  C   UNL     1      35.233 -10.374 -25.839  0.00  0.00    +0.061 C 
BRANCH  23  28
ATOM     28  O   UNL     1      33.371 -13.437 -26.549  0.00  0.00    -0.472 OA
ATOM     29  C   UNL     1      32.335 -13.132 -27.482  0.00  0.00    +0.252 C 
ENDBRANCH  23  28
ENDBRANCH  11  22
TORSDOF 2
ENDMDL
MODEL 5
REMARK VINA RESULT:      -8.3      3.456      6.815
REMARK  Name = 11524127
REMARK  2 active torsions:
REMARK  status: ('A' for Active; 'I' for Inactive)
REMARK    1  A    between atoms: C_11  and  C_22
REMARK    2  A    between atoms: C_23  and  O_28
REMARK                            x       y       z     vdW  Elec       q    Type
REMARK                         _______ _______ _______ _____ _____    ______ ____
ROOT
ATOM      1  F   UNL     1      34.706 -16.991 -22.390  0.00  0.00    -0.204 F 
ATOM      2  O   UNL     1      30.121 -10.890 -21.254  0.00  0.00    -0.275 OA
ATOM      3  N   UNL     1      32.195 -11.943 -21.380  0.00  0.00    -0.272 N 
ATOM      4  N   UNL     1      32.665 -13.526 -24.726  0.00  0.00    -0.355 N 
ATOM      5  C   UNL     1      33.621 -13.970 -21.209  0.00  0.00    +0.038 C 
ATOM      6  C   UNL     1      34.709 -14.740 -20.502  0.00  0.00    +0.006 C 
ATOM      7  C   UNL     1      33.273 -15.128 -20.301  0.00  0.00    +0.006 C 
ATOM      8  C   UNL     1      33.368 -12.554 -20.708  0.00  0.00    +0.098 C 
ATOM      9  C   UNL     1      33.394 -14.151 -22.735  0.00  0.00    -0.004 A 
ATOM     10  C   UNL     1      32.755 -13.142 -23.417  0.00  0.00    +0.052 A 
ATOM     11  C   UNL     1      32.220 -11.857 -22.870  0.00  0.00    +0.138 C 
ATOM     12  C   UNL     1      33.689 -15.203 -23.637  0.00  0.00    +0.040 A 
ATOM     13  C   UNL     1      33.226 -14.774 -24.890  0.00  0.00    +0.058 A 
ATOM     14  C   UNL     1      31.098 -11.398 -20.698  0.00  0.00    +0.227 C 
ATOM     15  C   UNL     1      34.285 -16.478 -23.551  0.00  0.00    +0.141 C 
ATOM     16  C   UNL     1      33.347 -15.551 -26.050  0.00  0.00    +0.017 C 
ATOM     17  C   UNL     1      31.136 -11.453 -19.191  0.00  0.00    +0.095 C 
ATOM     18  C   UNL     1      34.412 -17.263 -24.705  0.00  0.00    +0.030 C 
ATOM     19  C   UNL     1      33.951 -16.804 -25.934  0.00  0.00    +0.004 C 
ATOM     20  H   UNL     1      32.258 -12.990 -25.445  0.00  0.00    +0.166 HD
ENDROOT
BRANCH  11  22
ATOM     21 CL   UNL     1      35.156  -6.954 -24.788  0.00  0.00    -0.082 Cl
ATOM     22  C   UNL     1      32.949 -10.612 -23.352  0.00  0.00    +0.035 C 
ATOM     23  C   UNL     1      32.300  -9.379 -23.386  0.00  0.00    +0.137 C 
ATOM     24  C   UNL     1      34.276 -10.718 -23.758  0.00  0.00    +0.002 C 
ATOM     25  C   UNL     1      32.983  -8.247 -23.832  0.00  0.00    +0.048 C 
ATOM     26  C   UNL     1      34.960  -9.585 -24.203  0.00  0.00    +0.011 C 
ATOM     27  C   UNL     1      34.313  -8.350 -24.240  0.00  0.00    +0.061 C 
BRANCH  23  28
ATOM     28  O   UNL     1      31.001  -9.262 -22.992  0.00  0.00    -0.472 OA
ATOM     29  C   UNL     1      30.334  -8.042 -23.313  0.00  0.00    +0.252 C 
ENDBRANCH  23  28
ENDBRANCH  11  22
TORSDOF 2
ENDMDL
MODEL 6
REMARK VINA RESULT:      -7.6      4.569      7.430
REMARK  Name = 11524127
REMARK  2 active torsions:
REMARK  status: ('A' for Active; 'I' for Inactive)
REMARK    1  A    between atoms: C_11  and  C_22
REMARK    2  A    between atoms: C_23  and  O_28
REMARK                            x       y       z     vdW  Elec       q    Type
REMARK                         _______ _______ _______ _____ _____    ______ ____
ROOT
ATOM      1  F   UNL     1      32.066  -3.558 -26.482  0.00  0.00    -0.204 F 
ATOM      2  O   UNL     1      33.503  -7.397 -19.945  0.00  0.00    -0.275 OA
ATOM      3  N   UNL     1      32.371  -7.048 -21.951  0.00  0.00    -0.272 N 
ATOM      4  N   UNL     1      34.764  -6.960 -24.813  0.00  0.00    -0.355 N 
ATOM      5  C   UNL     1      31.543  -5.550 -23.751  0.00  0.00    +0.038 C 
ATOM      6  C   UNL     1      30.391  -4.894 -24.472  0.00  0.00    +0.006 C 
ATOM      7  C   UNL     1      31.213  -4.095 -23.503  0.00  0.00    +0.006 C 
ATOM      8  C   UNL     1      31.172  -6.569 -22.683  0.00  0.00    +0.098 C 
ATOM      9  C   UNL     1      32.861  -5.877 -24.508  0.00  0.00    -0.004 A 
ATOM     10  C   UNL     1      33.676  -6.856 -23.991  0.00  0.00    +0.052 A 
ATOM     11  C   UNL     1      33.468  -7.667 -22.752  0.00  0.00    +0.138 C 
ATOM     12  C   UNL     1      33.466  -5.338 -25.669  0.00  0.00    +0.040 A 
ATOM     13  C   UNL     1      34.662  -6.049 -25.843  0.00  0.00    +0.058 A 
ATOM     14  C   UNL     1      32.508  -7.000 -20.557  0.00  0.00    +0.227 C 
ATOM     15  C   UNL     1      33.157  -4.323 -26.599  0.00  0.00    +0.141 C 
ATOM     16  C   UNL     1      35.544  -5.804 -26.904  0.00  0.00    +0.017 C 
ATOM     17  C   UNL     1      31.354  -6.419 -19.778  0.00  0.00    +0.095 C 
ATOM     18  C   UNL     1      34.031  -4.069 -27.664  0.00  0.00    +0.030 C 
ATOM     19  C   UNL     1      35.205  -4.801 -27.813  0.00  0.00    +0.004 C 
ATOM     20  H   UNL     1      35.509  -7.590 -24.686  0.00  0.00    +0.166 HD
ENDROOT
BRANCH  11  22
ATOM     21 CL   UNL     1      32.436 -13.531 -23.702  0.00  0.00    -0.082 Cl
ATOM     22  C   UNL     1      33.219  -9.148 -23.000  0.00  0.00    +0.035 C 
ATOM     23  C   UNL     1      34.108  -9.897 -23.768  0.00  0.00    +0.137 C 
ATOM     24  C   UNL     1      32.090  -9.748 -22.447  0.00  0.00    +0.002 C 
ATOM     25  C   UNL     1      33.865 -11.253 -23.986  0.00  0.00    +0.048 C 
ATOM     26  C   UNL     1      31.848 -11.105 -22.665  0.00  0.00    +0.011 C 
ATOM     27  C   UNL     1      32.735 -11.857 -23.435  0.00  0.00    +0.061 C 
BRANCH  23  28
ATOM     28  O   UNL     1      35.215  -9.322 -24.315  0.00  0.00    -0.472 OA
ATOM     29  C   UNL     1      35.754  -9.936 -25.484  0.00  0.00    +0.252 C 
ENDBRANCH  23  28
ENDBRANCH  11  22
TORSDOF 2
ENDMDL
MODEL 7
REMARK VINA RESULT:      -7.6     11.421     15.130
REMARK  Name = 11524127
REMARK  2 active torsions:
REMARK  status: ('A' for Active; 'I' for Inactive)
REMARK    1  A    between atoms: C_11  and  C_22
REMARK    2  A    between atoms: C_23  and  O_28
REMARK                            x       y       z     vdW  Elec       q    Type
REMARK                         _______ _______ _______ _____ _____    ______ ____
ROOT
ATOM      1  F   UNL     1      38.810 -24.511 -11.590  0.00  0.00    -0.204 F 
ATOM      2  O   UNL     1      31.887 -25.493 -14.851  0.00  0.00    -0.275 OA
ATOM      3  N   UNL     1      33.722 -24.213 -14.202  0.00  0.00    -0.272 N 
ATOM      4  N   UNL     1      36.865 -25.578 -15.678  0.00  0.00    -0.355 N 
ATOM      5  C   UNL     1      35.660 -23.788 -12.707  0.00  0.00    +0.038 C 
ATOM      6  C   UNL     1      36.322 -22.951 -11.641  0.00  0.00    +0.006 C 
ATOM      7  C   UNL     1      35.692 -24.262 -11.272  0.00  0.00    +0.006 C 
ATOM      8  C   UNL     1      34.348 -23.250 -13.264  0.00  0.00    +0.098 C 
ATOM      9  C   UNL     1      36.518 -24.561 -13.747  0.00  0.00    -0.004 A 
ATOM     10  C   UNL     1      35.929 -24.909 -14.939  0.00  0.00    +0.052 A 
ATOM     11  C   UNL     1      34.524 -24.649 -15.382  0.00  0.00    +0.138 C 
ATOM     12  C   UNL     1      37.849 -25.045 -13.730  0.00  0.00    +0.040 A 
ATOM     13  C   UNL     1      38.043 -25.674 -14.968  0.00  0.00    +0.058 A 
ATOM     14  C   UNL     1      32.410 -24.692 -14.073  0.00  0.00    +0.227 C 
ATOM     15  C   UNL     1      38.921 -25.040 -12.814  0.00  0.00    +0.141 C 
ATOM     16  C   UNL     1      39.254 -26.277 -15.332  0.00  0.00    +0.017 C 
ATOM     17  C   UNL     1      31.612 -24.184 -12.899  0.00  0.00    +0.095 C 
ATOM     18  C   UNL     1      40.138 -25.639 -13.166  0.00  0.00    +0.030 C 
ATOM     19  C   UNL     1      40.300 -26.246 -14.408  0.00  0.00    +0.004 C 
ATOM     20  H   UNL     1      36.718 -25.938 -16.583  0.00  0.00    +0.166 HD
ENDROOT
BRANCH  11  22
ATOM     21 CL   UNL     1      33.969 -20.806 -19.994  0.00  0.00    -0.082 Cl
ATOM     22  C   UNL     1      34.397 -23.674 -16.543  0.00  0.00    +0.035 C 
ATOM     23  C   UNL     1      35.438 -22.800 -16.853  0.00  0.00    +0.137 C 
ATOM     24  C   UNL     1      33.226 -23.665 -17.297  0.00  0.00    +0.002 C 
ATOM     25  C   UNL     1      35.305 -21.912 -17.920  0.00  0.00    +0.048 C 
ATOM     26  C   UNL     1      33.094 -22.777 -18.364  0.00  0.00    +0.011 C 
ATOM     27  C   UNL     1      34.133 -21.901 -18.676  0.00  0.00    +0.061 C 
BRANCH  23  28
ATOM     28  O   UNL     1      36.589 -22.799 -16.123  0.00  0.00    -0.472 OA
ATOM     29  C   UNL     1      37.515 -21.744 -16.377  0.00  0.00    +0.252 C 
ENDBRANCH  23  28
ENDBRANCH  11  22
TORSDOF 2
ENDMDL
MODEL 8
REMARK VINA RESULT:      -7.1      2.163      4.401
REMARK  Name = 11524127
REMARK  2 active torsions:
REMARK  status: ('A' for Active; 'I' for Inactive)
REMARK    1  A    between atoms: C_11  and  C_22
REMARK    2  A    between atoms: C_23  and  O_28
REMARK                            x       y       z     vdW  Elec       q    Type
REMARK                         _______ _______ _______ _____ _____    ______ ____
ROOT
ATOM      1  F   UNL     1      31.675  -8.033 -22.012  0.00  0.00    -0.204 F 
ATOM      2  O   UNL     1      34.631 -15.072 -20.898  0.00  0.00    -0.275 OA
ATOM      3  N   UNL     1      33.028 -13.590 -21.710  0.00  0.00    -0.272 N 
ATOM      4  N   UNL     1      34.591 -11.075 -23.980  0.00  0.00    -0.355 N 
ATOM      5  C   UNL     1      31.813 -11.426 -21.605  0.00  0.00    +0.038 C 
ATOM      6  C   UNL     1      30.537 -10.660 -21.356  0.00  0.00    +0.006 C 
ATOM      7  C   UNL     1      31.611 -10.675 -20.308  0.00  0.00    +0.006 C 
ATOM      8  C   UNL     1      31.698 -12.944 -21.588  0.00  0.00    +0.098 C 
ATOM      9  C   UNL     1      32.875 -10.882 -22.601  0.00  0.00    -0.004 A 
ATOM     10  C   UNL     1      33.761 -11.778 -23.152  0.00  0.00    +0.052 A 
ATOM     11  C   UNL     1      33.854 -13.250 -22.905  0.00  0.00    +0.138 C 
ATOM     12  C   UNL     1      33.174  -9.583 -23.079  0.00  0.00    +0.040 A 
ATOM     13  C   UNL     1      34.257  -9.738 -23.956  0.00  0.00    +0.058 A 
ATOM     14  C   UNL     1      33.525 -14.534 -20.800  0.00  0.00    +0.227 C 
ATOM     15  C   UNL     1      32.669  -8.282 -22.872  0.00  0.00    +0.141 C 
ATOM     16  C   UNL     1      34.839  -8.663 -24.640  0.00  0.00    +0.017 C 
ATOM     17  C   UNL     1      32.637 -14.893 -19.636  0.00  0.00    +0.095 C 
ATOM     18  C   UNL     1      33.243  -7.199 -23.551  0.00  0.00    +0.030 C 
ATOM     19  C   UNL     1      34.311  -7.390 -24.423  0.00  0.00    +0.004 C 
ATOM     20  H   UNL     1      35.321 -11.467 -24.513  0.00  0.00    +0.166 HD
ENDROOT
BRANCH  11  22
ATOM     21 CL   UNL     1      32.402 -16.642 -27.673  0.00  0.00    -0.082 Cl
ATOM     22  C   UNL     1      33.497 -14.116 -24.104  0.00  0.00    +0.035 C 
ATOM     23  C   UNL     1      34.074 -15.374 -24.267  0.00  0.00    +0.137 C 
ATOM     24  C   UNL     1      32.583 -13.637 -25.039  0.00  0.00    +0.002 C 
ATOM     25  C   UNL     1      33.736 -16.155 -25.372  0.00  0.00    +0.048 C 
ATOM     26  C   UNL     1      32.244 -14.419 -26.144  0.00  0.00    +0.011 C 
ATOM     27  C   UNL     1      32.821 -15.678 -26.310  0.00  0.00    +0.061 C 
BRANCH  23  28
ATOM     28  O   UNL     1      34.970 -15.854 -23.360  0.00  0.00    -0.472 OA
ATOM     29  C   UNL     1      35.213 -17.260 -23.372  0.00  0.00    +0.252 C 
ENDBRANCH  23  28
ENDBRANCH  11  22
TORSDOF 2
ENDMDL
MODEL 9
REMARK VINA RESULT:      -6.9      5.321      8.208
REMARK  Name = 11524127
REMARK  2 active torsions:
REMARK  status: ('A' for Active; 'I' for Inactive)
REMARK    1  A    between atoms: C_11  and  C_22
REMARK    2  A    between atoms: C_23  and  O_28
REMARK                            x       y       z     vdW  Elec       q    Type
REMARK                         _______ _______ _______ _____ _____    ______ ____
ROOT
ATOM      1  F   UNL     1      31.890  -9.075 -19.417  0.00  0.00    -0.204 F 
ATOM      2  O   UNL     1      30.073  -3.769 -24.715  0.00  0.00    -0.275 OA
ATOM      3  N   UNL     1      31.552  -4.877 -23.299  0.00  0.00    -0.272 N 
ATOM      4  N   UNL     1      31.579  -8.536 -24.026  0.00  0.00    -0.355 N 
ATOM      5  C   UNL     1      32.029  -6.185 -21.241  0.00  0.00    +0.038 C 
ATOM      6  C   UNL     1      32.665  -6.279 -19.876  0.00  0.00    +0.006 C 
ATOM      7  C   UNL     1      31.184  -6.065 -19.993  0.00  0.00    +0.006 C 
ATOM      8  C   UNL     1      32.331  -4.922 -22.036  0.00  0.00    +0.098 C 
ATOM      9  C   UNL     1      31.855  -7.457 -22.117  0.00  0.00    -0.004 A 
ATOM     10  C   UNL     1      31.725  -7.293 -23.476  0.00  0.00    +0.052 A 
ATOM     11  C   UNL     1      31.713  -6.014 -24.251  0.00  0.00    +0.138 C 
ATOM     12  C   UNL     1      31.765  -8.837 -21.807  0.00  0.00    +0.040 A 
ATOM     13  C   UNL     1      31.602  -9.494 -23.035  0.00  0.00    +0.058 A 
ATOM     14  C   UNL     1      30.722  -3.809 -23.667  0.00  0.00    +0.227 C 
ATOM     15  C   UNL     1      31.792  -9.620 -20.634  0.00  0.00    +0.141 C 
ATOM     16  C   UNL     1      31.481 -10.886 -23.140  0.00  0.00    +0.017 C 
ATOM     17  C   UNL     1      30.630  -2.653 -22.704  0.00  0.00    +0.095 C 
ATOM     18  C   UNL     1      31.673 -11.012 -20.727  0.00  0.00    +0.030 C 
ATOM     19  C   UNL     1      31.522 -11.634 -21.963  0.00  0.00    +0.004 C 
ATOM     20  H   UNL     1      31.473  -8.719 -24.988  0.00  0.00    +0.166 HD
ENDROOT
BRANCH  11  22
ATOM     21 CL   UNL     1      36.435  -5.207 -27.912  0.00  0.00    -0.082 Cl
ATOM     22  C   UNL     1      32.913  -5.819 -25.166  0.00  0.00    +0.035 C 
ATOM     23  C   UNL     1      34.127  -6.445 -24.888  0.00  0.00    +0.137 C 
ATOM     24  C   UNL     1      32.784  -5.006 -26.289  0.00  0.00    +0.002 C 
ATOM     25  C   UNL     1      35.217  -6.255 -25.737  0.00  0.00    +0.048 C 
ATOM     26  C   UNL     1      33.874  -4.816 -27.139  0.00  0.00    +0.011 C 
ATOM     27  C   UNL     1      35.091  -5.441 -26.863  0.00  0.00    +0.061 C 
BRANCH  23  28
ATOM     28  O   UNL     1      34.266  -7.243 -23.792  0.00  0.00    -0.472 OA
ATOM     29  C   UNL     1      34.966  -8.473 -23.972  0.00  0.00    +0.252 C 
ENDBRANCH  23  28
ENDBRANCH  11  22
TORSDOF 2
ENDMDL
