MODEL 1
REMARK VINA RESULT:     -10.9      0.000      0.000
REMARK  Name = 5533
REMARK  5 active torsions:
REMARK  status: ('A' for Active; 'I' for Inactive)
REMARK    1  A    between atoms: N_1  and  C_15
REMARK    2  A    between atoms: N_2  and  C_9
REMARK    3  A    between atoms: C_15  and  C_16
REMARK    4  A    between atoms: C_16  and  C_17
REMARK    5  A    between atoms: C_17  and  N_19
REMARK                            x       y       z     vdW  Elec       q    Type
REMARK                         _______ _______ _______ _____ _____    ______ ____
ROOT
ATOM      1  N   UNL     1      34.636 -16.224 -23.525  0.00  0.00    +0.389 N 
ATOM      2  N   UNL     1      34.960 -18.477 -21.799  0.00  0.00    -0.312 N 
ATOM      3  C   UNL     1      34.184 -16.161 -22.130  0.00  0.00    -0.055 C 
ATOM      4  C   UNL     1      34.468 -17.587 -24.043  0.00  0.00    -0.055 C 
ATOM      5  C   UNL     1      34.991 -17.117 -21.248  0.00  0.00    +0.068 C 
ATOM      6  C   UNL     1      35.283 -18.591 -23.225  0.00  0.00    +0.068 C 
ATOM      7  H   UNL     1      35.624 -15.977 -23.562  0.00  0.00    -0.080 HD
ENDROOT
BRANCH   2   9
ATOM      8 CL   UNL     1      33.190 -22.267 -18.802  0.00  0.00    -0.082 Cl
ATOM      9  C   UNL     1      35.238 -19.544 -20.937  0.00  0.00    +0.049 C 
ATOM     10  C   UNL     1      34.200 -20.299 -20.357  0.00  0.00    +0.026 C 
ATOM     11  C   UNL     1      36.567 -19.894 -20.624  0.00  0.00    +0.015 C 
ATOM     12  C   UNL     1      34.478 -21.363 -19.498  0.00  0.00    +0.059 C 
ATOM     13  C   UNL     1      36.846 -20.958 -19.765  0.00  0.00    +0.002 C 
ATOM     14  C   UNL     1      35.801 -21.691 -19.202  0.00  0.00    +0.011 C 
ENDBRANCH   2   9
BRANCH   1  15
ATOM     15  C   UNL     1      33.895 -15.268 -24.347  0.00  0.00    -0.075 C 
BRANCH  15  16
ATOM     16  C   UNL     1      34.100 -13.827 -23.873  0.00  0.00    +0.004 C 
BRANCH  16  17
ATOM     17  C   UNL     1      32.807 -13.055 -23.618  0.00  0.00    +0.130 C 
BRANCH  17  19
ATOM     18  O   UNL     1      31.287 -10.954 -22.034  0.00  0.00    -0.244 OA
ATOM     19  N   UNL     1      33.028 -11.642 -23.473  0.00  0.00    -0.201 N 
ATOM     20  N   UNL     1      32.910  -9.514 -22.920  0.00  0.00    -0.241 N 
ATOM     21  N   UNL     1      34.074 -11.009 -24.108  0.00  0.00    -0.147 NA
ATOM     22  C   UNL     1      32.276 -10.722 -22.714  0.00  0.00    +0.352 A 
ATOM     23  C   UNL     1      33.958  -9.768 -23.750  0.00  0.00    +0.171 A 
ATOM     24  C   UNL     1      32.600  -8.280 -22.420  0.00  0.00    +0.086 C 
ATOM     25  C   UNL     1      34.817  -8.627 -24.137  0.00  0.00    +0.039 C 
ATOM     26  C   UNL     1      33.365  -7.231 -22.756  0.00  0.00    +0.019 C 
ATOM     27  C   UNL     1      34.501  -7.420 -23.638  0.00  0.00    +0.005 C 
ENDBRANCH  17  19
ENDBRANCH  16  17
ENDBRANCH  15  16
ENDBRANCH   1  15
TORSDOF 5
ENDMDL
MODEL 2
REMARK VINA RESULT:     -10.8      3.933     10.365
REMARK  Name = 5533
REMARK  5 active torsions:
REMARK  status: ('A' for Active; 'I' for Inactive)
REMARK    1  A    between atoms: N_1  and  C_15
REMARK    2  A    between atoms: N_2  and  C_9
REMARK    3  A    between atoms: C_15  and  C_16
REMARK    4  A    between atoms: C_16  and  C_17
REMARK    5  A    between atoms: C_17  and  N_19
REMARK                            x       y       z     vdW  Elec       q    Type
REMARK                         _______ _______ _______ _____ _____    ______ ____
ROOT
ATOM      1  N   UNL     1      32.714 -13.985 -22.775  0.00  0.00    +0.389 N 
ATOM      2  N   UNL     1      33.142 -11.189 -23.169  0.00  0.00    -0.312 N 
ATOM      3  C   UNL     1      32.284 -13.018 -21.758  0.00  0.00    -0.055 C 
ATOM      4  C   UNL     1      33.934 -13.506 -23.435  0.00  0.00    -0.055 C 
ATOM      5  C   UNL     1      31.990 -11.654 -22.387  0.00  0.00    +0.068 C 
ATOM      6  C   UNL     1      33.696 -12.158 -24.119  0.00  0.00    +0.068 C 
ATOM      7  H   UNL     1      31.976 -14.078 -23.473  0.00  0.00    -0.080 HD
ENDROOT
BRANCH   2   9
ATOM      8 CL   UNL     1      30.901  -6.557 -23.263  0.00  0.00    -0.082 Cl
ATOM      9  C   UNL     1      33.247  -9.818 -23.434  0.00  0.00    +0.049 C 
ATOM     10  C   UNL     1      32.150  -8.955 -23.241  0.00  0.00    +0.026 C 
ATOM     11  C   UNL     1      34.455  -9.262 -23.902  0.00  0.00    +0.015 C 
ATOM     12  C   UNL     1      32.257  -7.589 -23.504  0.00  0.00    +0.059 C 
ATOM     13  C   UNL     1      34.561  -7.896 -24.165  0.00  0.00    +0.002 C 
ATOM     14  C   UNL     1      33.462  -7.060 -23.968  0.00  0.00    +0.011 C 
ENDBRANCH   2   9
BRANCH   1  15
ATOM     15  C   UNL     1      32.939 -15.298 -22.171  0.00  0.00    -0.075 C 
BRANCH  15  16
ATOM     16  C   UNL     1      34.429 -15.585 -21.965  0.00  0.00    +0.004 C 
BRANCH  16  17
ATOM     17  C   UNL     1      34.943 -16.817 -22.707  0.00  0.00    +0.130 C 
BRANCH  17  19
ATOM     18  O   UNL     1      37.137 -18.629 -21.643  0.00  0.00    -0.244 OA
ATOM     19  N   UNL     1      34.875 -18.010 -21.908  0.00  0.00    -0.201 N 
ATOM     20  N   UNL     1      35.333 -19.816 -20.733  0.00  0.00    -0.241 N 
ATOM     21  N   UNL     1      33.668 -18.524 -21.486  0.00  0.00    -0.147 NA
ATOM     22  C   UNL     1      35.944 -18.805 -21.447  0.00  0.00    +0.352 A 
ATOM     23  C   UNL     1      33.994 -19.578 -20.804  0.00  0.00    +0.171 A 
ATOM     24  C   UNL     1      35.898 -20.868 -20.069  0.00  0.00    +0.086 C 
ATOM     25  C   UNL     1      33.094 -20.527 -20.112  0.00  0.00    +0.039 C 
ATOM     26  C   UNL     1      35.102 -21.740 -19.434  0.00  0.00    +0.019 C 
ATOM     27  C   UNL     1      33.663 -21.556 -19.462  0.00  0.00    +0.005 C 
ENDBRANCH  17  19
ENDBRANCH  16  17
ENDBRANCH  15  16
ENDBRANCH   1  15
TORSDOF 5
ENDMDL
MODEL 3
REMARK VINA RESULT:     -10.6      6.353     12.594
REMARK  Name = 5533
REMARK  5 active torsions:
REMARK  status: ('A' for Active; 'I' for Inactive)
REMARK    1  A    between atoms: N_1  and  C_15
REMARK    2  A    between atoms: N_2  and  C_9
REMARK    3  A    between atoms: C_15  and  C_16
REMARK    4  A    between atoms: C_16  and  C_17
REMARK    5  A    between atoms: C_17  and  N_19
REMARK                            x       y       z     vdW  Elec       q    Type
REMARK                         _______ _______ _______ _____ _____    ______ ____
ROOT
ATOM      1  N   UNL     1      33.704 -22.212 -19.410  0.00  0.00    +0.389 N 
ATOM      2  N   UNL     1      34.316 -19.774 -20.766  0.00  0.00    -0.312 N 
ATOM      3  C   UNL     1      32.720 -21.124 -19.461  0.00  0.00    -0.055 C 
ATOM      4  C   UNL     1      35.061 -21.657 -19.363  0.00  0.00    -0.055 C 
ATOM      5  C   UNL     1      32.929 -20.251 -20.700  0.00  0.00    +0.068 C 
ATOM      6  C   UNL     1      35.349 -20.801 -20.598  0.00  0.00    +0.068 C 
ATOM      7  H   UNL     1      33.609 -22.780 -20.252  0.00  0.00    -0.080 HD
ENDROOT
BRANCH   2   9
ATOM      8 CL   UNL     1      34.593 -14.644 -21.067  0.00  0.00    -0.082 Cl
ATOM      9  C   UNL     1      34.585 -18.638 -21.538  0.00  0.00    +0.049 C 
ATOM     10  C   UNL     1      34.472 -17.344 -20.990  0.00  0.00    +0.026 C 
ATOM     11  C   UNL     1      34.978 -18.755 -22.886  0.00  0.00    +0.015 C 
ATOM     12  C   UNL     1      34.742 -16.213 -21.760  0.00  0.00    +0.059 C 
ATOM     13  C   UNL     1      35.248 -17.623 -23.656  0.00  0.00    +0.002 C 
ATOM     14  C   UNL     1      35.129 -16.352 -23.093  0.00  0.00    +0.011 C 
ENDBRANCH   2   9
BRANCH   1  15
ATOM     15  C   UNL     1      33.459 -23.071 -18.251  0.00  0.00    -0.075 C 
BRANCH  15  16
ATOM     16  C   UNL     1      34.479 -22.829 -17.136  0.00  0.00    +0.004 C 
BRANCH  16  17
ATOM     17  C   UNL     1      34.037 -23.319 -15.758  0.00  0.00    +0.130 C 
BRANCH  17  19
ATOM     18  O   UNL     1      34.164 -24.305 -12.887  0.00  0.00    -0.244 OA
ATOM     19  N   UNL     1      35.116 -23.905 -15.010  0.00  0.00    -0.201 N 
ATOM     20  N   UNL     1      36.380 -24.817 -13.453  0.00  0.00    -0.241 N 
ATOM     21  N   UNL     1      36.356 -24.109 -15.575  0.00  0.00    -0.147 NA
ATOM     22  C   UNL     1      35.102 -24.343 -13.670  0.00  0.00    +0.352 A 
ATOM     23  C   UNL     1      37.055 -24.644 -14.623  0.00  0.00    +0.171 A 
ATOM     24  C   UNL     1      36.919 -25.360 -12.321  0.00  0.00    +0.086 C 
ATOM     25  C   UNL     1      38.470 -25.075 -14.666  0.00  0.00    +0.039 C 
ATOM     26  C   UNL     1      38.199 -25.758 -12.337  0.00  0.00    +0.019 C 
ATOM     27  C   UNL     1      38.987 -25.608 -13.546  0.00  0.00    +0.005 C 
ENDBRANCH  17  19
ENDBRANCH  16  17
ENDBRANCH  15  16
ENDBRANCH   1  15
TORSDOF 5
ENDMDL
MODEL 4
REMARK VINA RESULT:     -10.5      4.314      7.336
REMARK  Name = 5533
REMARK  5 active torsions:
REMARK  status: ('A' for Active; 'I' for Inactive)
REMARK    1  A    between atoms: N_1  and  C_15
REMARK    2  A    between atoms: N_2  and  C_9
REMARK    3  A    between atoms: C_15  and  C_16
REMARK    4  A    between atoms: C_16  and  C_17
REMARK    5  A    between atoms: C_17  and  N_19
REMARK                            x       y       z     vdW  Elec       q    Type
REMARK                         _______ _______ _______ _____ _____    ______ ____
ROOT
ATOM      1  N   UNL     1      35.565 -22.189 -18.985  0.00  0.00    +0.389 N 
ATOM      2  N   UNL     1      33.619 -22.805 -16.987  0.00  0.00    -0.312 N 
ATOM      3  C   UNL     1      35.917 -22.124 -17.562  0.00  0.00    -0.055 C 
ATOM      4  C   UNL     1      34.162 -21.802 -19.171  0.00  0.00    -0.055 C 
ATOM      5  C   UNL     1      35.041 -23.069 -16.736  0.00  0.00    +0.068 C 
ATOM      6  C   UNL     1      33.227 -22.735 -18.398  0.00  0.00    +0.068 C 
ATOM      7  H   UNL     1      35.689 -23.147 -19.311  0.00  0.00    -0.080 HD
ENDROOT
BRANCH   2   9
ATOM      8 CL   UNL     1      28.697 -23.291 -15.567  0.00  0.00    -0.082 Cl
ATOM      9  C   UNL     1      32.691 -23.229 -16.029  0.00  0.00    +0.049 C 
ATOM     10  C   UNL     1      31.307 -23.072 -16.240  0.00  0.00    +0.026 C 
ATOM     11  C   UNL     1      33.115 -23.827 -14.825  0.00  0.00    +0.015 C 
ATOM     12  C   UNL     1      30.383 -23.497 -15.285  0.00  0.00    +0.059 C 
ATOM     13  C   UNL     1      32.190 -24.251 -13.870  0.00  0.00    +0.002 C 
ATOM     14  C   UNL     1      30.824 -24.085 -14.100  0.00  0.00    +0.011 C 
ENDBRANCH   2   9
BRANCH   1  15
ATOM     15  C   UNL     1      36.445 -21.323 -19.770  0.00  0.00    -0.075 C 
BRANCH  15  16
ATOM     16  C   UNL     1      35.663 -20.237 -20.514  0.00  0.00    +0.004 C 
BRANCH  16  17
ATOM     17  C   UNL     1      36.487 -19.005 -20.882  0.00  0.00    +0.130 C 
BRANCH  17  19
ATOM     18  O   UNL     1      35.021 -16.385 -20.418  0.00  0.00    -0.244 OA
ATOM     19  N   UNL     1      35.799 -18.136 -21.797  0.00  0.00    -0.201 N 
ATOM     20  N   UNL     1      34.655 -16.501 -22.730  0.00  0.00    -0.241 N 
ATOM     21  N   UNL     1      35.717 -18.426 -23.142  0.00  0.00    -0.147 NA
ATOM     22  C   UNL     1      35.136 -16.925 -21.508  0.00  0.00    +0.352 A 
ATOM     23  C   UNL     1      35.040 -17.439 -23.639  0.00  0.00    +0.171 A 
ATOM     24  C   UNL     1      33.934 -15.380 -23.032  0.00  0.00    +0.086 C 
ATOM     25  C   UNL     1      34.647 -17.225 -25.050  0.00  0.00    +0.039 C 
ATOM     26  C   UNL     1      33.567 -15.165 -24.304  0.00  0.00    +0.019 C 
ATOM     27  C   UNL     1      33.939 -16.119 -25.333  0.00  0.00    +0.005 C 
ENDBRANCH  17  19
ENDBRANCH  16  17
ENDBRANCH  15  16
ENDBRANCH   1  15
TORSDOF 5
ENDMDL
MODEL 5
REMARK VINA RESULT:     -10.5      1.622      1.958
REMARK  Name = 5533
REMARK  5 active torsions:
REMARK  status: ('A' for Active; 'I' for Inactive)
REMARK    1  A    between atoms: N_1  and  C_15
REMARK    2  A    between atoms: N_2  and  C_9
REMARK    3  A    between atoms: C_15  and  C_16
REMARK    4  A    between atoms: C_16  and  C_17
REMARK    5  A    between atoms: C_17  and  N_19
REMARK                            x       y       z     vdW  Elec       q    Type
REMARK                         _______ _______ _______ _____ _____    ______ ____
ROOT
ATOM      1  N   UNL     1      33.703 -14.693 -23.021  0.00  0.00    +0.389 N 
ATOM      2  N   UNL     1      34.444 -17.219 -21.914  0.00  0.00    -0.312 N 
ATOM      3  C   UNL     1      33.000 -15.223 -21.846  0.00  0.00    -0.055 C 
ATOM      4  C   UNL     1      34.114 -15.796 -23.897  0.00  0.00    -0.055 C 
ATOM      5  C   UNL     1      33.902 -16.166 -21.046  0.00  0.00    +0.068 C 
ATOM      6  C   UNL     1      35.052 -16.759 -23.166  0.00  0.00    +0.068 C 
ATOM      7  H   UNL     1      34.535 -14.192 -22.708  0.00  0.00    -0.080 HD
ENDROOT
BRANCH   2   9
ATOM      8 CL   UNL     1      33.329 -21.700 -19.642  0.00  0.00    -0.082 Cl
ATOM      9  C   UNL     1      34.902 -18.397 -21.312  0.00  0.00    +0.049 C 
ATOM     10  C   UNL     1      33.998 -19.363 -20.826  0.00  0.00    +0.026 C 
ATOM     11  C   UNL     1      36.281 -18.651 -21.173  0.00  0.00    +0.015 C 
ATOM     12  C   UNL     1      34.455 -20.538 -20.228  0.00  0.00    +0.059 C 
ATOM     13  C   UNL     1      36.738 -19.826 -20.574  0.00  0.00    +0.002 C 
ATOM     14  C   UNL     1      35.825 -20.768 -20.101  0.00  0.00    +0.011 C 
ENDBRANCH   2   9
BRANCH   1  15
ATOM     15  C   UNL     1      32.850 -13.751 -23.746  0.00  0.00    -0.075 C 
BRANCH  15  16
ATOM     16  C   UNL     1      33.058 -12.310 -23.274  0.00  0.00    +0.004 C 
BRANCH  16  17
ATOM     17  C   UNL     1      31.958 -11.781 -22.356  0.00  0.00    +0.130 C 
BRANCH  17  19
ATOM     18  O   UNL     1      31.933  -9.951 -19.931  0.00  0.00    -0.244 OA
ATOM     19  N   UNL     1      31.965 -10.347 -22.258  0.00  0.00    -0.201 N 
ATOM     20  N   UNL     1      31.967  -8.260 -21.554  0.00  0.00    -0.241 N 
ATOM     21  N   UNL     1      31.986  -9.550 -23.381  0.00  0.00    -0.147 NA
ATOM     22  C   UNL     1      31.952  -9.560 -21.088  0.00  0.00    +0.352 A 
ATOM     23  C   UNL     1      31.987  -8.341 -22.913  0.00  0.00    +0.171 A 
ATOM     24  C   UNL     1      31.963  -7.090 -20.847  0.00  0.00    +0.086 C 
ATOM     25  C   UNL     1      32.005  -7.071 -23.672  0.00  0.00    +0.039 C 
ATOM     26  C   UNL     1      31.980  -5.927 -21.515  0.00  0.00    +0.019 C 
ATOM     27  C   UNL     1      32.002  -5.929 -22.966  0.00  0.00    +0.005 C 
ENDBRANCH  17  19
ENDBRANCH  16  17
ENDBRANCH  15  16
ENDBRANCH   1  15
TORSDOF 5
ENDMDL
MODEL 6
REMARK VINA RESULT:     -10.4      6.031     11.465
REMARK  Name = 5533
REMARK  5 active torsions:
REMARK  status: ('A' for Active; 'I' for Inactive)
REMARK    1  A    between atoms: N_1  and  C_15
REMARK    2  A    between atoms: N_2  and  C_9
REMARK    3  A    between atoms: C_15  and  C_16
REMARK    4  A    between atoms: C_16  and  C_17
REMARK    5  A    between atoms: C_17  and  N_19
REMARK                            x       y       z     vdW  Elec       q    Type
REMARK                         _______ _______ _______ _____ _____    ______ ____
ROOT
ATOM      1  N   UNL     1      35.408 -20.654 -19.402  0.00  0.00    +0.389 N 
ATOM      2  N   UNL     1      34.977 -19.104 -21.762  0.00  0.00    -0.312 N 
ATOM      3  C   UNL     1      36.518 -20.381 -20.323  0.00  0.00    -0.055 C 
ATOM      4  C   UNL     1      34.154 -20.778 -20.153  0.00  0.00    -0.055 C 
ATOM      5  C   UNL     1      36.284 -19.079 -21.093  0.00  0.00    +0.068 C 
ATOM      6  C   UNL     1      33.841 -19.491 -20.919  0.00  0.00    +0.068 C 
ATOM      7  H   UNL     1      35.324 -19.876 -18.747  0.00  0.00    -0.080 HD
ENDROOT
BRANCH   2   9
ATOM      8 CL   UNL     1      34.220 -14.306 -23.462  0.00  0.00    -0.082 Cl
ATOM      9  C   UNL     1      34.776 -18.241 -22.845  0.00  0.00    +0.049 C 
ATOM     10  C   UNL     1      34.615 -16.855 -22.649  0.00  0.00    +0.026 C 
ATOM     11  C   UNL     1      34.728 -18.734 -24.165  0.00  0.00    +0.015 C 
ATOM     12  C   UNL     1      34.416 -15.995 -23.730  0.00  0.00    +0.059 C 
ATOM     13  C   UNL     1      34.528 -17.874 -25.245  0.00  0.00    +0.002 C 
ATOM     14  C   UNL     1      34.371 -16.505 -25.027  0.00  0.00    +0.011 C 
ENDBRANCH   2   9
BRANCH   1  15
ATOM     15  C   UNL     1      35.668 -21.871 -18.632  0.00  0.00    -0.075 C 
BRANCH  15  16
ATOM     16  C   UNL     1      34.375 -22.610 -18.277  0.00  0.00    +0.004 C 
BRANCH  16  17
ATOM     17  C   UNL     1      34.274 -23.038 -16.814  0.00  0.00    +0.130 C 
BRANCH  17  19
ATOM     18  O   UNL     1      33.139 -24.522 -14.418  0.00  0.00    -0.244 OA
ATOM     19  N   UNL     1      32.916 -23.253 -16.397  0.00  0.00    -0.201 N 
ATOM     20  N   UNL     1      31.085 -23.860 -15.333  0.00  0.00    -0.241 N 
ATOM     21  N   UNL     1      31.854 -22.753 -17.118  0.00  0.00    -0.147 NA
ATOM     22  C   UNL     1      32.460 -23.957 -15.263  0.00  0.00    +0.352 A 
ATOM     23  C   UNL     1      30.809 -23.136 -16.452  0.00  0.00    +0.171 A 
ATOM     24  C   UNL     1      30.140 -24.365 -14.484  0.00  0.00    +0.086 C 
ATOM     25  C   UNL     1      29.386 -22.881 -16.767  0.00  0.00    +0.039 C 
ATOM     26  C   UNL     1      28.844 -24.145 -14.750  0.00  0.00    +0.019 C 
ATOM     27  C   UNL     1      28.467 -23.382 -15.924  0.00  0.00    +0.005 C 
ENDBRANCH  17  19
ENDBRANCH  16  17
ENDBRANCH  15  16
ENDBRANCH   1  15
TORSDOF 5
ENDMDL
MODEL 7
REMARK VINA RESULT:     -10.4      2.115      3.037
REMARK  Name = 5533
REMARK  5 active torsions:
REMARK  status: ('A' for Active; 'I' for Inactive)
REMARK    1  A    between atoms: N_1  and  C_15
REMARK    2  A    between atoms: N_2  and  C_9
REMARK    3  A    between atoms: C_15  and  C_16
REMARK    4  A    between atoms: C_16  and  C_17
REMARK    5  A    between atoms: C_17  and  N_19
REMARK                            x       y       z     vdW  Elec       q    Type
REMARK                         _______ _______ _______ _____ _____    ______ ____
ROOT
ATOM      1  N   UNL     1      32.764 -13.910 -22.671  0.00  0.00    +0.389 N 
ATOM      2  N   UNL     1      33.955 -16.346 -21.773  0.00  0.00    -0.312 N 
ATOM      3  C   UNL     1      34.048 -14.357 -23.225  0.00  0.00    -0.055 C 
ATOM      4  C   UNL     1      32.660 -14.313 -21.264  0.00  0.00    -0.055 C 
ATOM      5  C   UNL     1      34.180 -15.879 -23.146  0.00  0.00    +0.068 C 
ATOM      6  C   UNL     1      32.747 -15.834 -21.119  0.00  0.00    +0.068 C 
ATOM      7  H   UNL     1      32.008 -14.350 -23.197  0.00  0.00    -0.080 HD
ENDROOT
BRANCH   2   9
ATOM      8 CL   UNL     1      33.040 -21.127 -20.106  0.00  0.00    -0.082 Cl
ATOM      9  C   UNL     1      34.462 -17.600 -21.412  0.00  0.00    +0.049 C 
ATOM     10  C   UNL     1      33.604 -18.633 -20.985  0.00  0.00    +0.026 C 
ATOM     11  C   UNL     1      35.845 -17.866 -21.467  0.00  0.00    +0.015 C 
ATOM     12  C   UNL     1      34.109 -19.883 -20.627  0.00  0.00    +0.059 C 
ATOM     13  C   UNL     1      36.350 -19.116 -21.108  0.00  0.00    +0.002 C 
ATOM     14  C   UNL     1      35.482 -20.124 -20.688  0.00  0.00    +0.011 C 
ENDBRANCH   2   9
BRANCH   1  15
ATOM     15  C   UNL     1      32.626 -12.460 -22.802  0.00  0.00    -0.075 C 
BRANCH  15  16
ATOM     16  C   UNL     1      31.445 -11.923 -21.989  0.00  0.00    +0.004 C 
BRANCH  16  17
ATOM     17  C   UNL     1      31.812 -10.827 -20.989  0.00  0.00    +0.130 C 
BRANCH  17  19
ATOM     18  O   UNL     1      32.558  -8.114 -19.844  0.00  0.00    -0.244 OA
ATOM     19  N   UNL     1      31.747  -9.512 -21.565  0.00  0.00    -0.201 N 
ATOM     20  N   UNL     1      31.856  -7.345 -21.944  0.00  0.00    -0.241 N 
ATOM     21  N   UNL     1      31.287  -9.310 -22.848  0.00  0.00    -0.147 NA
ATOM     22  C   UNL     1      32.114  -8.288 -20.970  0.00  0.00    +0.352 A 
ATOM     23  C   UNL     1      31.373  -8.028 -23.018  0.00  0.00    +0.171 A 
ATOM     24  C   UNL     1      32.029  -5.990 -21.902  0.00  0.00    +0.086 C 
ATOM     25  C   UNL     1      31.010  -7.244 -24.220  0.00  0.00    +0.039 C 
ATOM     26  C   UNL     1      31.708  -5.259 -22.980  0.00  0.00    +0.019 C 
ATOM     27  C   UNL     1      31.186  -5.913 -24.165  0.00  0.00    +0.005 C 
ENDBRANCH  17  19
ENDBRANCH  16  17
ENDBRANCH  15  16
ENDBRANCH   1  15
TORSDOF 5
ENDMDL
MODEL 8
REMARK VINA RESULT:     -10.3      3.756      5.901
REMARK  Name = 5533
REMARK  5 active torsions:
REMARK  status: ('A' for Active; 'I' for Inactive)
REMARK    1  A    between atoms: N_1  and  C_15
REMARK    2  A    between atoms: N_2  and  C_9
REMARK    3  A    between atoms: C_15  and  C_16
REMARK    4  A    between atoms: C_16  and  C_17
REMARK    5  A    between atoms: C_17  and  N_19
REMARK                            x       y       z     vdW  Elec       q    Type
REMARK                         _______ _______ _______ _____ _____    ______ ____
ROOT
ATOM      1  N   UNL     1      34.731 -20.866 -20.635  0.00  0.00    +0.389 N 
ATOM      2  N   UNL     1      35.236 -21.965 -18.047  0.00  0.00    -0.312 N 
ATOM      3  C   UNL     1      35.948 -20.502 -19.898  0.00  0.00    -0.055 C 
ATOM      4  C   UNL     1      33.627 -21.090 -19.695  0.00  0.00    -0.055 C 
ATOM      5  C   UNL     1      36.356 -21.614 -18.928  0.00  0.00    +0.068 C 
ATOM      6  C   UNL     1      33.957 -22.221 -18.717  0.00  0.00    +0.068 C 
ATOM      7  H   UNL     1      34.905 -21.728 -21.151  0.00  0.00    -0.080 HD
ENDROOT
BRANCH   2   9
ATOM      8 CL   UNL     1      33.532 -24.569 -13.949  0.00  0.00    -0.082 Cl
ATOM      9  C   UNL     1      35.526 -22.607 -16.838  0.00  0.00    +0.049 C 
ATOM     10  C   UNL     1      34.506 -23.206 -16.071  0.00  0.00    +0.026 C 
ATOM     11  C   UNL     1      36.847 -22.674 -16.352  0.00  0.00    +0.015 C 
ATOM     12  C   UNL     1      34.797 -23.848 -14.867  0.00  0.00    +0.059 C 
ATOM     13  C   UNL     1      37.137 -23.315 -15.146  0.00  0.00    +0.002 C 
ATOM     14  C   UNL     1      36.112 -23.901 -14.404  0.00  0.00    +0.011 C 
ENDBRANCH   2   9
BRANCH   1  15
ATOM     15  C   UNL     1      34.383 -19.820 -21.597  0.00  0.00    -0.075 C 
BRANCH  15  16
ATOM     16  C   UNL     1      35.334 -18.624 -21.509  0.00  0.00    +0.004 C 
BRANCH  16  17
ATOM     17  C   UNL     1      35.950 -18.209 -22.844  0.00  0.00    +0.130 C 
BRANCH  17  19
ATOM     18  O   UNL     1      34.518 -18.049 -25.519  0.00  0.00    -0.244 OA
ATOM     19  N   UNL     1      35.236 -17.128 -23.467  0.00  0.00    -0.201 N 
ATOM     20  N   UNL     1      34.070 -15.853 -24.833  0.00  0.00    -0.241 N 
ATOM     21  N   UNL     1      35.107 -15.902 -22.852  0.00  0.00    -0.147 NA
ATOM     22  C   UNL     1      34.591 -17.126 -24.721  0.00  0.00    +0.352 A 
ATOM     23  C   UNL     1      34.417 -15.196 -23.692  0.00  0.00    +0.171 A 
ATOM     24  C   UNL     1      33.346 -15.303 -25.853  0.00  0.00    +0.086 C 
ATOM     25  C   UNL     1      33.977 -13.790 -23.552  0.00  0.00    +0.039 C 
ATOM     26  C   UNL     1      32.936 -14.030 -25.748  0.00  0.00    +0.019 C 
ATOM     27  C   UNL     1      33.265 -13.262 -24.562  0.00  0.00    +0.005 C 
ENDBRANCH  17  19
ENDBRANCH  16  17
ENDBRANCH  15  16
ENDBRANCH   1  15
TORSDOF 5
ENDMDL
MODEL 9
REMARK VINA RESULT:     -10.2      5.530     11.612
REMARK  Name = 5533
REMARK  5 active torsions:
REMARK  status: ('A' for Active; 'I' for Inactive)
REMARK    1  A    between atoms: N_1  and  C_15
REMARK    2  A    between atoms: N_2  and  C_9
REMARK    3  A    between atoms: C_15  and  C_16
REMARK    4  A    between atoms: C_16  and  C_17
REMARK    5  A    between atoms: C_17  and  N_19
REMARK                            x       y       z     vdW  Elec       q    Type
REMARK                         _______ _______ _______ _____ _____    ______ ____
ROOT
ATOM      1  N   UNL     1      35.459 -20.933 -20.421  0.00  0.00    +0.389 N 
ATOM      2  N   UNL     1      34.908 -18.229 -21.157  0.00  0.00    -0.312 N 
ATOM      3  C   UNL     1      34.125 -20.361 -20.200  0.00  0.00    -0.055 C 
ATOM      4  C   UNL     1      36.482 -19.894 -20.253  0.00  0.00    -0.055 C 
ATOM      5  C   UNL     1      33.839 -19.234 -21.195  0.00  0.00    +0.068 C 
ATOM      6  C   UNL     1      36.274 -18.751 -21.250  0.00  0.00    +0.068 C 
ATOM      7  H   UNL     1      35.508 -21.294 -21.373  0.00  0.00    -0.080 HD
ENDROOT
BRANCH   2   9
ATOM      8 CL   UNL     1      33.632 -15.217 -25.130  0.00  0.00    -0.082 Cl
ATOM      9  C   UNL     1      34.622 -16.945 -21.636  0.00  0.00    +0.049 C 
ATOM     10  C   UNL     1      34.303 -16.731 -22.992  0.00  0.00    +0.026 C 
ATOM     11  C   UNL     1      34.644 -15.829 -20.776  0.00  0.00    +0.015 C 
ATOM     12  C   UNL     1      34.016 -15.451 -23.469  0.00  0.00    +0.059 C 
ATOM     13  C   UNL     1      34.358 -14.549 -21.253  0.00  0.00    +0.002 C 
ATOM     14  C   UNL     1      34.045 -14.360 -22.599  0.00  0.00    +0.011 C 
ENDBRANCH   2   9
BRANCH   1  15
ATOM     15  C   UNL     1      35.699 -22.044 -19.499  0.00  0.00    -0.075 C 
BRANCH  15  16
ATOM     16  C   UNL     1      34.460 -22.368 -18.661  0.00  0.00    +0.004 C 
BRANCH  16  17
ATOM     17  C   UNL     1      34.755 -22.691 -17.197  0.00  0.00    +0.130 C 
BRANCH  17  19
ATOM     18  O   UNL     1      34.488 -24.165 -14.554  0.00  0.00    -0.244 OA
ATOM     19  N   UNL     1      33.592 -23.155 -16.491  0.00  0.00    -0.201 N 
ATOM     20  N   UNL     1      32.198 -24.044 -15.036  0.00  0.00    -0.241 N 
ATOM     21  N   UNL     1      32.323 -22.961 -16.989  0.00  0.00    -0.147 NA
ATOM     22  C   UNL     1      33.544 -23.837 -15.257  0.00  0.00    +0.352 A 
ATOM     23  C   UNL     1      31.547 -23.499 -16.100  0.00  0.00    +0.171 A 
ATOM     24  C   UNL     1      31.581 -24.663 -13.985  0.00  0.00    +0.086 C 
ATOM     25  C   UNL     1      30.070 -23.585 -16.116  0.00  0.00    +0.039 C 
ATOM     26  C   UNL     1      30.243 -24.752 -13.977  0.00  0.00    +0.019 C 
ATOM     27  C   UNL     1      29.476 -24.194 -15.076  0.00  0.00    +0.005 C 
ENDBRANCH  17  19
ENDBRANCH  16  17
ENDBRANCH  15  16
ENDBRANCH   1  15
TORSDOF 5
ENDMDL
