MODEL 1
REMARK VINA RESULT:      -7.8      0.000      0.000
REMARK  Name = 65944
REMARK  3 active torsions:
REMARK  status: ('A' for Active; 'I' for Inactive)
REMARK    1  A    between atoms: C_4  and  C_16
REMARK    2  A    between atoms: C_5  and  C_10
REMARK    3  A    between atoms: C_16  and  O_17
REMARK                            x       y       z     vdW  Elec       q    Type
REMARK                         _______ _______ _______ _____ _____    ______ ____
ROOT
ATOM      1  S   UNK     1      33.677 -14.873 -24.795  0.00  0.00    -0.116 S 
ATOM      2  O   UNK     1      35.271 -16.678 -20.479  0.00  0.00    -0.273 OA
ATOM      3  N   UNK     1      34.492 -16.073 -22.578  0.00  0.00    -0.259 N 
ATOM      4  C   UNK     1      34.030 -14.750 -22.169  0.00  0.00    +0.186 C 
ATOM      5  C   UNK     1      35.076 -16.946 -21.665  0.00  0.00    +0.245 C 
ATOM      6  C   UNK     1      34.047 -13.819 -23.370  0.00  0.00    +0.090 C 
ATOM      7  C   UNK     1      34.257 -16.381 -23.985  0.00  0.00    +0.153 C 
ENDROOT
BRANCH   5  10
ATOM      8  O   UNK     1      36.556 -20.367 -19.560  0.00  0.00    -0.275 OA
ATOM      9  N   UNK     1      36.470 -18.823 -21.317  0.00  0.00    -0.298 N 
ATOM     10  C   UNK     1      35.480 -18.293 -22.213  0.00  0.00    +0.149 C 
ATOM     11  C   UNK     1      34.358 -19.312 -22.154  0.00  0.00    +0.039 C 
ATOM     12  C   UNK     1      34.492 -19.943 -20.768  0.00  0.00    +0.087 C 
ATOM     13  C   UNK     1      35.958 -19.782 -20.449  0.00  0.00    +0.223 C 
ATOM     14  H   UNK     1      37.411 -18.537 -21.319  0.00  0.00    +0.150 HD
ENDBRANCH   5  10
BRANCH   4  16
ATOM     15  O   UNK     1      32.298 -15.854 -20.888  0.00  0.00    -0.248 OA
ATOM     16  C   UNK     1      32.646 -14.933 -21.611  0.00  0.00    +0.333 C 
BRANCH  16  17
ATOM     17  O   UNK     1      31.829 -13.933 -22.022  0.00  0.00    -0.479 OA
ATOM     18  H   UNK     1      31.728 -13.756 -22.937  0.00  0.00    +0.295 HD
ENDBRANCH  16  17
ENDBRANCH   4  16
TORSDOF 3
ENDMDL
MODEL 2
REMARK VINA RESULT:      -7.6     10.672     12.196
REMARK  Name = 65944
REMARK  3 active torsions:
REMARK  status: ('A' for Active; 'I' for Inactive)
REMARK    1  A    between atoms: C_4  and  C_16
REMARK    2  A    between atoms: C_5  and  C_10
REMARK    3  A    between atoms: C_16  and  O_17
REMARK                            x       y       z     vdW  Elec       q    Type
REMARK                         _______ _______ _______ _____ _____    ______ ____
ROOT
ATOM      1  S   UNK     1      38.025 -26.207 -14.476  0.00  0.00    -0.116 S 
ATOM      2  O   UNK     1      34.364 -23.791 -12.200  0.00  0.00    -0.273 OA
ATOM      3  N   UNK     1      35.960 -24.875 -13.487  0.00  0.00    -0.259 N 
ATOM      4  C   UNK     1      37.037 -24.725 -12.512  0.00  0.00    +0.186 C 
ATOM      5  C   UNK     1      34.689 -24.368 -13.239  0.00  0.00    +0.245 C 
ATOM      6  C   UNK     1      38.046 -25.844 -12.703  0.00  0.00    +0.090 C 
ATOM      7  C   UNK     1      36.354 -25.559 -14.714  0.00  0.00    +0.153 C 
ENDROOT
BRANCH   5  10
ATOM      8  O   UNK     1      30.419 -24.539 -12.973  0.00  0.00    -0.275 OA
ATOM      9  N   UNK     1      32.531 -25.189 -13.747  0.00  0.00    -0.298 N 
ATOM     10  C   UNK     1      33.678 -24.563 -14.342  0.00  0.00    +0.149 C 
ATOM     11  C   UNK     1      33.136 -23.253 -14.881  0.00  0.00    +0.039 C 
ATOM     12  C   UNK     1      31.944 -22.938 -13.978  0.00  0.00    +0.087 C 
ATOM     13  C   UNK     1      31.491 -24.297 -13.505  0.00  0.00    +0.223 C 
ATOM     14  H   UNK     1      32.486 -26.148 -13.532  0.00  0.00    +0.150 HD
ENDBRANCH   5  10
BRANCH   4  16
ATOM     15  O   UNK     1      37.610 -22.760 -13.804  0.00  0.00    -0.248 OA
ATOM     16  C   UNK     1      37.641 -23.368 -12.745  0.00  0.00    +0.333 C 
BRANCH  16  17
ATOM     17  O   UNK     1      38.230 -22.906 -11.616  0.00  0.00    -0.479 OA
ATOM     18  H   UNK     1      39.033 -23.287 -11.317  0.00  0.00    +0.295 HD
ENDBRANCH  16  17
ENDBRANCH   4  16
TORSDOF 3
ENDMDL
MODEL 3
REMARK VINA RESULT:      -7.2     10.088     11.919
REMARK  Name = 65944
REMARK  3 active torsions:
REMARK  status: ('A' for Active; 'I' for Inactive)
REMARK    1  A    between atoms: C_4  and  C_16
REMARK    2  A    between atoms: C_5  and  C_10
REMARK    3  A    between atoms: C_16  and  O_17
REMARK                            x       y       z     vdW  Elec       q    Type
REMARK                         _______ _______ _______ _____ _____    ______ ____
ROOT
ATOM      1  S   UNK     1      38.032 -24.666 -12.394  0.00  0.00    -0.116 S 
ATOM      2  O   UNK     1      34.666 -24.504 -16.009  0.00  0.00    -0.273 OA
ATOM      3  N   UNK     1      36.050 -24.594 -14.150  0.00  0.00    -0.259 N 
ATOM      4  C   UNK     1      37.205 -25.119 -14.872  0.00  0.00    +0.186 C 
ATOM      5  C   UNK     1      34.848 -24.339 -14.802  0.00  0.00    +0.245 C 
ATOM      6  C   UNK     1      38.477 -24.713 -14.148  0.00  0.00    +0.090 C 
ATOM      7  C   UNK     1      36.274 -24.402 -12.721  0.00  0.00    +0.153 C 
ENDROOT
BRANCH   5  10
ATOM      8  O   UNK     1      31.058 -22.729 -15.974  0.00  0.00    -0.275 OA
ATOM      9  N   UNK     1      33.020 -22.843 -14.702  0.00  0.00    -0.298 N 
ATOM     10  C   UNK     1      33.725 -23.828 -13.931  0.00  0.00    +0.149 C 
ATOM     11  C   UNK     1      32.674 -24.884 -13.647  0.00  0.00    +0.039 C 
ATOM     12  C   UNK     1      31.694 -24.765 -14.813  0.00  0.00    +0.087 C 
ATOM     13  C   UNK     1      31.834 -23.327 -15.246  0.00  0.00    +0.223 C 
ATOM     14  H   UNK     1      33.342 -21.922 -14.831  0.00  0.00    +0.150 HD
ENDBRANCH   5  10
BRANCH   4  16
ATOM     15  O   UNK     1      37.207 -27.373 -13.987  0.00  0.00    -0.248 OA
ATOM     16  C   UNK     1      37.033 -26.612 -14.927  0.00  0.00    +0.333 C 
BRANCH  16  17
ATOM     17  O   UNK     1      36.658 -27.005 -16.168  0.00  0.00    -0.479 OA
ATOM     18  H   UNK     1      35.814 -27.390 -16.303  0.00  0.00    +0.295 HD
ENDBRANCH  16  17
ENDBRANCH   4  16
TORSDOF 3
ENDMDL
MODEL 4
REMARK VINA RESULT:      -7.1     10.122     11.164
REMARK  Name = 65944
REMARK  3 active torsions:
REMARK  status: ('A' for Active; 'I' for Inactive)
REMARK    1  A    between atoms: C_4  and  C_16
REMARK    2  A    between atoms: C_5  and  C_10
REMARK    3  A    between atoms: C_16  and  O_17
REMARK                            x       y       z     vdW  Elec       q    Type
REMARK                         _______ _______ _______ _____ _____    ______ ____
ROOT
ATOM      1  S   UNK     1      32.238 -23.128 -16.646  0.00  0.00    -0.116 S 
ATOM      2  O   UNK     1      34.368 -24.006 -12.273  0.00  0.00    -0.273 OA
ATOM      3  N   UNK     1      33.566 -23.715 -14.431  0.00  0.00    -0.259 N 
ATOM      4  C   UNK     1      32.169 -23.570 -14.032  0.00  0.00    +0.186 C 
ATOM      5  C   UNK     1      34.565 -23.939 -13.488  0.00  0.00    +0.245 C 
ATOM      6  C   UNK     1      31.435 -22.740 -15.071  0.00  0.00    +0.090 C 
ATOM      7  C   UNK     1      33.790 -23.634 -15.870  0.00  0.00    +0.153 C 
ENDROOT
BRANCH   5  10
ATOM      8  O   UNK     1      38.307 -22.994 -11.636  0.00  0.00    -0.275 OA
ATOM      9  N   UNK     1      36.774 -23.102 -13.402  0.00  0.00    -0.298 N 
ATOM     10  C   UNK     1      35.961 -24.101 -14.037  0.00  0.00    +0.149 C 
ATOM     11  C   UNK     1      36.607 -25.409 -13.623  0.00  0.00    +0.039 C 
ATOM     12  C   UNK     1      37.275 -25.094 -12.285  0.00  0.00    +0.087 C 
ATOM     13  C   UNK     1      37.556 -23.614 -12.372  0.00  0.00    +0.223 C 
ATOM     14  H   UNK     1      36.777 -22.155 -13.668  0.00  0.00    +0.150 HD
ENDBRANCH   5  10
BRANCH   4  16
ATOM     15  O   UNK     1      30.876 -25.492 -14.736  0.00  0.00    -0.248 OA
ATOM     16  C   UNK     1      31.610 -24.961 -13.917  0.00  0.00    +0.333 C 
BRANCH  16  17
ATOM     17  O   UNK     1      32.031 -25.552 -12.773  0.00  0.00    -0.479 OA
ATOM     18  H   UNK     1      32.881 -25.947 -12.734  0.00  0.00    +0.295 HD
ENDBRANCH  16  17
ENDBRANCH   4  16
TORSDOF 3
ENDMDL
MODEL 5
REMARK VINA RESULT:      -7.0      5.023      7.976
REMARK  Name = 65944
REMARK  3 active torsions:
REMARK  status: ('A' for Active; 'I' for Inactive)
REMARK    1  A    between atoms: C_4  and  C_16
REMARK    2  A    between atoms: C_5  and  C_10
REMARK    3  A    between atoms: C_16  and  O_17
REMARK                            x       y       z     vdW  Elec       q    Type
REMARK                         _______ _______ _______ _____ _____    ______ ____
ROOT
ATOM      1  S   UNK     1      32.606 -14.413 -22.035  0.00  0.00    -0.116 S 
ATOM      2  O   UNK     1      33.510  -9.953 -23.964  0.00  0.00    -0.273 OA
ATOM      3  N   UNK     1      32.846 -11.967 -23.022  0.00  0.00    -0.259 N 
ATOM      4  C   UNK     1      33.890 -12.761 -23.664  0.00  0.00    +0.186 C 
ATOM      5  C   UNK     1      32.742 -10.598 -23.248  0.00  0.00    +0.245 C 
ATOM      6  C   UNK     1      34.183 -13.985 -22.814  0.00  0.00    +0.090 C 
ATOM      7  C   UNK     1      31.941 -12.738 -22.177  0.00  0.00    +0.153 C 
ENDROOT
BRANCH   5  10
ATOM      8  O   UNK     1      32.877  -7.811 -20.001  0.00  0.00    -0.275 OA
ATOM      9  N   UNK     1      32.039  -9.634 -21.208  0.00  0.00    -0.298 N 
ATOM     10  C   UNK     1      31.599  -9.904 -22.548  0.00  0.00    +0.149 C 
ATOM     11  C   UNK     1      31.310  -8.527 -23.117  0.00  0.00    +0.039 C 
ATOM     12  C   UNK     1      32.231  -7.593 -22.333  0.00  0.00    +0.087 C 
ATOM     13  C   UNK     1      32.425  -8.310 -21.019  0.00  0.00    +0.223 C 
ATOM     14  H   UNK     1      32.063 -10.314 -20.497  0.00  0.00    +0.150 HD
ENDBRANCH   5  10
BRANCH   4  16
ATOM     15  O   UNK     1      32.744 -14.140 -25.291  0.00  0.00    -0.248 OA
ATOM     16  C   UNK     1      33.373 -13.126 -25.028  0.00  0.00    +0.333 C 
BRANCH  16  17
ATOM     17  O   UNK     1      33.700 -12.174 -25.934  0.00  0.00    -0.479 OA
ATOM     18  H   UNK     1      34.077 -12.420 -26.757  0.00  0.00    +0.295 HD
ENDBRANCH  16  17
ENDBRANCH   4  16
TORSDOF 3
ENDMDL
MODEL 6
REMARK VINA RESULT:      -6.9      9.862     11.297
REMARK  Name = 65944
REMARK  3 active torsions:
REMARK  status: ('A' for Active; 'I' for Inactive)
REMARK    1  A    between atoms: C_4  and  C_16
REMARK    2  A    between atoms: C_5  and  C_10
REMARK    3  A    between atoms: C_16  and  O_17
REMARK                            x       y       z     vdW  Elec       q    Type
REMARK                         _______ _______ _______ _____ _____    ______ ____
ROOT
ATOM      1  S   UNK     1      37.026 -23.144 -15.382  0.00  0.00    -0.116 S 
ATOM      2  O   UNK     1      32.723 -25.056 -13.883  0.00  0.00    -0.273 OA
ATOM      3  N   UNK     1      34.616 -23.941 -14.628  0.00  0.00    -0.259 N 
ATOM      4  C   UNK     1      35.560 -24.805 -13.925  0.00  0.00    +0.186 C 
ATOM      5  C   UNK     1      33.243 -24.145 -14.529  0.00  0.00    +0.245 C 
ATOM      6  C   UNK     1      36.889 -24.798 -14.661  0.00  0.00    +0.090 C 
ATOM      7  C   UNK     1      35.240 -22.865 -15.390  0.00  0.00    +0.153 C 
ENDROOT
BRANCH   5  10
ATOM      8  O   UNK     1      29.347 -24.727 -16.207  0.00  0.00    -0.275 OA
ATOM      9  N   UNK     1      31.549 -23.932 -16.164  0.00  0.00    -0.298 N 
ATOM     10  C   UNK     1      32.379 -23.162 -15.279  0.00  0.00    +0.149 C 
ATOM     11  C   UNK     1      31.385 -22.448 -14.383  0.00  0.00    +0.039 C 
ATOM     12  C   UNK     1      30.162 -23.364 -14.369  0.00  0.00    +0.087 C 
ATOM     13  C   UNK     1      30.251 -24.090 -15.689  0.00  0.00    +0.223 C 
ATOM     14  H   UNK     1      31.866 -24.307 -17.016  0.00  0.00    +0.150 HD
ENDBRANCH   5  10
BRANCH   4  16
ATOM     15  O   UNK     1      36.372 -23.307 -12.205  0.00  0.00    -0.248 OA
ATOM     16  C   UNK     1      35.681 -24.261 -12.529  0.00  0.00    +0.333 C 
BRANCH  16  17
ATOM     17  O   UNK     1      34.916 -24.976 -11.670  0.00  0.00    -0.479 OA
ATOM     18  H   UNK     1      35.069 -24.919 -10.746  0.00  0.00    +0.295 HD
ENDBRANCH  16  17
ENDBRANCH   4  16
TORSDOF 3
ENDMDL
MODEL 7
REMARK VINA RESULT:      -6.7      7.788     11.174
REMARK  Name = 65944
REMARK  3 active torsions:
REMARK  status: ('A' for Active; 'I' for Inactive)
REMARK    1  A    between atoms: C_4  and  C_16
REMARK    2  A    between atoms: C_5  and  C_10
REMARK    3  A    between atoms: C_16  and  O_17
REMARK                            x       y       z     vdW  Elec       q    Type
REMARK                         _______ _______ _______ _____ _____    ______ ____
ROOT
ATOM      1  S   UNK     1      36.249 -24.902 -11.984  0.00  0.00    -0.116 S 
ATOM      2  O   UNK     1      38.556 -23.337 -16.065  0.00  0.00    -0.273 OA
ATOM      3  N   UNK     1      37.265 -23.957 -14.241  0.00  0.00    -0.259 N 
ATOM      4  C   UNK     1      38.089 -25.108 -13.883  0.00  0.00    +0.186 C 
ATOM      5  C   UNK     1      37.576 -23.162 -15.339  0.00  0.00    +0.245 C 
ATOM      6  C   UNK     1      37.944 -25.386 -12.397  0.00  0.00    +0.090 C 
ATOM      7  C   UNK     1      36.107 -23.757 -13.375  0.00  0.00    +0.153 C 
ENDROOT
BRANCH   5  10
ATOM      8  O   UNK     1      36.837 -21.112 -19.024  0.00  0.00    -0.275 OA
ATOM      9  N   UNK     1      37.176 -21.281 -16.713  0.00  0.00    -0.298 N 
ATOM     10  C   UNK     1      36.625 -22.023 -15.615  0.00  0.00    +0.149 C 
ATOM     11  C   UNK     1      35.280 -22.494 -16.136  0.00  0.00    +0.039 C 
ATOM     12  C   UNK     1      35.470 -22.575 -17.651  0.00  0.00    +0.087 C 
ATOM     13  C   UNK     1      36.552 -21.561 -17.925  0.00  0.00    +0.223 C 
ATOM     14  H   UNK     1      37.917 -20.641 -16.618  0.00  0.00    +0.150 HD
ENDBRANCH   5  10
BRANCH   4  16
ATOM     15  O   UNK     1      36.529 -26.305 -15.297  0.00  0.00    -0.248 OA
ATOM     16  C   UNK     1      37.609 -26.257 -14.726  0.00  0.00    +0.333 C 
BRANCH  16  17
ATOM     17  O   UNK     1      38.539 -27.241 -14.768  0.00  0.00    -0.479 OA
ATOM     18  H   UNK     1      39.349 -27.140 -14.306  0.00  0.00    +0.295 HD
ENDBRANCH  16  17
ENDBRANCH   4  16
TORSDOF 3
ENDMDL
MODEL 8
REMARK VINA RESULT:      -6.6      9.771     11.102
REMARK  Name = 65944
REMARK  3 active torsions:
REMARK  status: ('A' for Active; 'I' for Inactive)
REMARK    1  A    between atoms: C_4  and  C_16
REMARK    2  A    between atoms: C_5  and  C_10
REMARK    3  A    between atoms: C_16  and  O_17
REMARK                            x       y       z     vdW  Elec       q    Type
REMARK                         _______ _______ _______ _____ _____    ______ ____
ROOT
ATOM      1  S   UNK     1      37.586 -26.436 -14.611  0.00  0.00    -0.116 S 
ATOM      2  O   UNK     1      34.709 -22.417 -14.646  0.00  0.00    -0.273 OA
ATOM      3  N   UNK     1      35.891 -24.408 -14.790  0.00  0.00    -0.259 N 
ATOM      4  C   UNK     1      37.177 -23.822 -14.425  0.00  0.00    +0.186 C 
ATOM      5  C   UNK     1      34.744 -23.626 -14.882  0.00  0.00    +0.245 C 
ATOM      6  C   UNK     1      38.054 -24.890 -13.793  0.00  0.00    +0.090 C 
ATOM      7  C   UNK     1      35.942 -25.839 -15.068  0.00  0.00    +0.153 C 
ENDROOT
BRANCH   5  10
ATOM      8  O   UNK     1      31.050 -24.043 -12.759  0.00  0.00    -0.275 OA
ATOM      9  N   UNK     1      32.832 -24.769 -14.093  0.00  0.00    -0.298 N 
ATOM     10  C   UNK     1      33.488 -24.351 -15.300  0.00  0.00    +0.149 C 
ATOM     11  C   UNK     1      32.475 -23.437 -15.964  0.00  0.00    +0.039 C 
ATOM     12  C   UNK     1      31.652 -22.880 -14.804  0.00  0.00    +0.087 C 
ATOM     13  C   UNK     1      31.760 -23.952 -13.748  0.00  0.00    +0.223 C 
ATOM     14  H   UNK     1      33.111 -25.552 -13.567  0.00  0.00    +0.150 HD
ENDBRANCH   5  10
BRANCH   4  16
ATOM     15  O   UNK     1      37.184 -22.568 -16.496  0.00  0.00    -0.248 OA
ATOM     16  C   UNK     1      37.774 -23.274 -15.691  0.00  0.00    +0.333 C 
BRANCH  16  17
ATOM     17  O   UNK     1      39.063 -23.670 -15.824  0.00  0.00    -0.479 OA
ATOM     18  H   UNK     1      39.334 -24.132 -16.593  0.00  0.00    +0.295 HD
ENDBRANCH  16  17
ENDBRANCH   4  16
TORSDOF 3
ENDMDL
MODEL 9
REMARK VINA RESULT:      -6.6      8.941     11.753
REMARK  Name = 65944
REMARK  3 active torsions:
REMARK  status: ('A' for Active; 'I' for Inactive)
REMARK    1  A    between atoms: C_4  and  C_16
REMARK    2  A    between atoms: C_5  and  C_10
REMARK    3  A    between atoms: C_16  and  O_17
REMARK                            x       y       z     vdW  Elec       q    Type
REMARK                         _______ _______ _______ _____ _____    ______ ____
ROOT
ATOM      1  S   UNK     1      37.973 -23.378 -11.649  0.00  0.00    -0.116 S 
ATOM      2  O   UNK     1      35.981 -24.993 -15.874  0.00  0.00    -0.273 OA
ATOM      3  N   UNK     1      36.695 -24.116 -13.848  0.00  0.00    -0.259 N 
ATOM      4  C   UNK     1      37.709 -25.139 -13.614  0.00  0.00    +0.186 C 
ATOM      5  C   UNK     1      35.892 -24.145 -14.984  0.00  0.00    +0.245 C 
ATOM      6  C   UNK     1      38.805 -24.566 -12.732  0.00  0.00    +0.090 C 
ATOM      7  C   UNK     1      36.596 -23.117 -12.790  0.00  0.00    +0.153 C 
ENDROOT
BRANCH   5  10
ATOM      8  O   UNK     1      33.146 -23.328 -18.165  0.00  0.00    -0.275 OA
ATOM      9  N   UNK     1      34.684 -22.779 -16.487  0.00  0.00    -0.298 N 
ATOM     10  C   UNK     1      34.863 -23.046 -15.088  0.00  0.00    +0.149 C 
ATOM     11  C   UNK     1      33.486 -23.484 -14.625  0.00  0.00    +0.039 C 
ATOM     12  C   UNK     1      32.838 -24.077 -15.876  0.00  0.00    +0.087 C 
ATOM     13  C   UNK     1      33.528 -23.355 -17.006  0.00  0.00    +0.223 C 
ATOM     14  H   UNK     1      35.312 -22.244 -17.023  0.00  0.00    +0.150 HD
ENDBRANCH   5  10
BRANCH   4  16
ATOM     15  O   UNK     1      36.792 -26.409 -11.767  0.00  0.00    -0.248 OA
ATOM     16  C   UNK     1      37.006 -26.299 -12.965  0.00  0.00    +0.333 C 
BRANCH  16  17
ATOM     17  O   UNK     1      36.639 -27.215 -13.893  0.00  0.00    -0.479 OA
ATOM     18  H   UNK     1      36.103 -27.944 -13.646  0.00  0.00    +0.295 HD
ENDBRANCH  16  17
ENDBRANCH   4  16
TORSDOF 3
ENDMDL
