MODEL 1
REMARK VINA RESULT:     -10.5      0.000      0.000
REMARK  Name = 35775
REMARK  1 active torsions:
REMARK  status: ('A' for Active; 'I' for Inactive)
REMARK    1  A    between atoms: C_8  and  C_16
REMARK                            x       y       z     vdW  Elec       q    Type
REMARK                         _______ _______ _______ _____ _____    ______ ____
ROOT
ATOM      1  O   UNL     1      33.001 -13.486 -20.946  0.00  0.00    -0.272 OA
ATOM      2  N   UNL     1      33.301 -14.616 -22.959  0.00  0.00    -0.241 N 
ATOM      3  N   UNL     1      33.789 -16.020 -24.872  0.00  0.00    -0.236 N 
ATOM      4  N   UNL     1      34.366 -17.174 -25.238  0.00  0.00    -0.172 NA
ATOM      5  N   UNL     1      34.747 -16.220 -20.673  0.00  0.00    -0.260 NA
ATOM      6  C   UNL     1      33.835 -15.772 -23.526  0.00  0.00    +0.137 A 
ATOM      7  C   UNL     1      34.418 -16.893 -22.961  0.00  0.00    +0.064 A 
ATOM      8  C   UNL     1      34.570 -17.157 -21.541  0.00  0.00    +0.083 C 
ATOM      9  C   UNL     1      34.738 -17.709 -24.074  0.00  0.00    +0.083 A 
ATOM     10  C   UNL     1      33.639 -14.278 -21.643  0.00  0.00    +0.255 C 
ATOM     11  C   UNL     1      34.940 -14.851 -21.119  0.00  0.00    +0.210 C 
ATOM     12  C   UNL     1      32.353 -13.780 -23.691  0.00  0.00    +0.122 C 
ATOM     13  C   UNL     1      33.335 -15.170 -25.950  0.00  0.00    +0.155 C 
ATOM     14  C   UNL     1      35.399 -19.026 -24.082  0.00  0.00    +0.054 C 
ENDROOT
BRANCH   8  16
ATOM     15  F   UNL     1      36.867 -18.722 -21.051  0.00  0.00    -0.204 F 
ATOM     16  C   UNL     1      34.498 -18.560 -21.063  0.00  0.00    +0.045 C 
ATOM     17  C   UNL     1      35.668 -19.280 -20.838  0.00  0.00    +0.142 C 
ATOM     18  C   UNL     1      33.254 -19.148 -20.840  0.00  0.00    +0.004 C 
ATOM     19  C   UNL     1      35.595 -20.599 -20.388  0.00  0.00    +0.030 C 
ATOM     20  C   UNL     1      33.182 -20.466 -20.390  0.00  0.00    +0.000 C 
ATOM     21  C   UNL     1      34.351 -21.192 -20.164  0.00  0.00    +0.002 C 
ENDBRANCH   8  16
TORSDOF 1
ENDMDL
MODEL 2
REMARK VINA RESULT:      -9.0      2.843      4.437
REMARK  Name = 35775
REMARK  1 active torsions:
REMARK  status: ('A' for Active; 'I' for Inactive)
REMARK    1  A    between atoms: C_8  and  C_16
REMARK                            x       y       z     vdW  Elec       q    Type
REMARK                         _______ _______ _______ _____ _____    ______ ____
ROOT
ATOM      1  O   UNL     1      34.134 -13.314 -27.851  0.00  0.00    -0.272 OA
ATOM      2  N   UNL     1      33.598 -12.802 -25.645  0.00  0.00    -0.241 N 
ATOM      3  N   UNL     1      33.021 -12.605 -23.300  0.00  0.00    -0.236 N 
ATOM      4  N   UNL     1      32.784 -13.317 -22.189  0.00  0.00    -0.172 NA
ATOM      5  N   UNL     1      33.605 -15.928 -25.984  0.00  0.00    -0.260 NA
ATOM      6  C   UNL     1      33.334 -13.364 -24.396  0.00  0.00    +0.137 A 
ATOM      7  C   UNL     1      33.381 -14.671 -23.944  0.00  0.00    +0.064 A 
ATOM      8  C   UNL     1      33.796 -15.830 -24.713  0.00  0.00    +0.083 C 
ATOM      9  C   UNL     1      33.013 -14.572 -22.579  0.00  0.00    +0.083 A 
ATOM     10  C   UNL     1      33.612 -13.624 -26.778  0.00  0.00    +0.255 C 
ATOM     11  C   UNL     1      32.827 -14.915 -26.677  0.00  0.00    +0.210 C 
ATOM     12  C   UNL     1      33.915 -11.383 -25.787  0.00  0.00    +0.122 C 
ATOM     13  C   UNL     1      32.786 -11.181 -23.202  0.00  0.00    +0.155 C 
ATOM     14  C   UNL     1      32.872 -15.656 -21.590  0.00  0.00    +0.054 C 
ENDROOT
BRANCH   8  16
ATOM     15  F   UNL     1      33.426 -18.539 -25.411  0.00  0.00    -0.204 F 
ATOM     16  C   UNL     1      34.490 -16.941 -24.014  0.00  0.00    +0.045 C 
ATOM     17  C   UNL     1      34.266 -18.257 -24.406  0.00  0.00    +0.142 C 
ATOM     18  C   UNL     1      35.365 -16.656 -22.968  0.00  0.00    +0.004 C 
ATOM     19  C   UNL     1      34.921 -19.299 -23.747  0.00  0.00    +0.030 C 
ATOM     20  C   UNL     1      36.019 -17.697 -22.309  0.00  0.00    +0.000 C 
ATOM     21  C   UNL     1      35.797 -19.018 -22.698  0.00  0.00    +0.002 C 
ENDBRANCH   8  16
TORSDOF 1
ENDMDL
MODEL 3
REMARK VINA RESULT:      -8.8      2.964      6.171
REMARK  Name = 35775
REMARK  1 active torsions:
REMARK  status: ('A' for Active; 'I' for Inactive)
REMARK    1  A    between atoms: C_8  and  C_16
REMARK                            x       y       z     vdW  Elec       q    Type
REMARK                         _______ _______ _______ _____ _____    ______ ____
ROOT
ATOM      1  O   UNL     1      34.958 -16.404 -20.245  0.00  0.00    -0.272 OA
ATOM      2  N   UNL     1      34.717 -16.636 -22.549  0.00  0.00    -0.241 N 
ATOM      3  N   UNL     1      34.273 -16.597 -24.929  0.00  0.00    -0.236 N 
ATOM      4  N   UNL     1      33.671 -15.892 -25.898  0.00  0.00    -0.172 NA
ATOM      5  N   UNL     1      33.092 -14.112 -21.611  0.00  0.00    -0.260 NA
ATOM      6  C   UNL     1      34.167 -16.040 -23.683  0.00  0.00    +0.137 A 
ATOM      7  C   UNL     1      33.512 -14.835 -23.867  0.00  0.00    +0.064 A 
ATOM      8  C   UNL     1      33.276 -13.823 -22.853  0.00  0.00    +0.083 C 
ATOM      9  C   UNL     1      33.218 -14.816 -25.253  0.00  0.00    +0.083 A 
ATOM     10  C   UNL     1      34.325 -16.188 -21.281  0.00  0.00    +0.255 C 
ATOM     11  C   UNL     1      32.978 -15.501 -21.202  0.00  0.00    +0.210 C 
ATOM     12  C   UNL     1      35.734 -17.678 -22.655  0.00  0.00    +0.122 C 
ATOM     13  C   UNL     1      34.816 -17.878 -25.323  0.00  0.00    +0.155 C 
ATOM     14  C   UNL     1      32.506 -13.780 -26.022  0.00  0.00    +0.054 C 
ENDROOT
BRANCH   8  16
ATOM     15  F   UNL     1      31.316 -11.998 -21.964  0.00  0.00    -0.204 F 
ATOM     16  C   UNL     1      33.268 -12.395 -23.257  0.00  0.00    +0.045 C 
ATOM     17  C   UNL     1      32.274 -11.543 -22.783  0.00  0.00    +0.142 C 
ATOM     18  C   UNL     1      34.260 -11.914 -24.109  0.00  0.00    +0.004 C 
ATOM     19  C   UNL     1      32.270 -10.201 -23.165  0.00  0.00    +0.030 C 
ATOM     20  C   UNL     1      34.257 -10.573 -24.490  0.00  0.00    +0.000 C 
ATOM     21  C   UNL     1      33.262  -9.716 -24.019  0.00  0.00    +0.002 C 
ENDBRANCH   8  16
TORSDOF 1
ENDMDL
MODEL 4
REMARK VINA RESULT:      -8.5      5.708      9.338
REMARK  Name = 35775
REMARK  1 active torsions:
REMARK  status: ('A' for Active; 'I' for Inactive)
REMARK    1  A    between atoms: C_8  and  C_16
REMARK                            x       y       z     vdW  Elec       q    Type
REMARK                         _______ _______ _______ _____ _____    ______ ____
ROOT
ATOM      1  O   UNL     1      35.174 -10.788 -26.550  0.00  0.00    -0.272 OA
ATOM      2  N   UNL     1      33.846 -11.769 -24.908  0.00  0.00    -0.241 N 
ATOM      3  N   UNL     1      32.474 -12.486 -23.046  0.00  0.00    -0.236 N 
ATOM      4  N   UNL     1      31.879 -12.059 -21.923  0.00  0.00    -0.172 NA
ATOM      5  N   UNL     1      34.399  -8.778 -24.109  0.00  0.00    -0.260 NA
ATOM      6  C   UNL     1      33.152 -11.511 -23.727  0.00  0.00    +0.137 A 
ATOM      7  C   UNL     1      32.914 -10.338 -23.034  0.00  0.00    +0.064 A 
ATOM      8  C   UNL     1      33.321  -9.004 -23.439  0.00  0.00    +0.083 C 
ATOM      9  C   UNL     1      32.138 -10.750 -21.923  0.00  0.00    +0.083 A 
ATOM     10  C   UNL     1      34.757 -10.820 -25.389  0.00  0.00    +0.255 C 
ATOM     11  C   UNL     1      35.330  -9.864 -24.365  0.00  0.00    +0.210 C 
ATOM     12  C   UNL     1      33.602 -12.982 -25.684  0.00  0.00    +0.122 C 
ATOM     13  C   UNL     1      32.418 -13.911 -23.288  0.00  0.00    +0.155 C 
ATOM     14  C   UNL     1      31.605  -9.926 -20.823  0.00  0.00    +0.054 C 
ENDROOT
BRANCH   8  16
ATOM     15  F   UNL     1      33.742  -7.415 -21.145  0.00  0.00    -0.204 F 
ATOM     16  C   UNL     1      32.451  -7.853 -23.090  0.00  0.00    +0.045 C 
ATOM     17  C   UNL     1      32.711  -7.107 -21.944  0.00  0.00    +0.142 C 
ATOM     18  C   UNL     1      31.377  -7.527 -23.915  0.00  0.00    +0.004 C 
ATOM     19  C   UNL     1      31.891  -6.026 -21.619  0.00  0.00    +0.030 C 
ATOM     20  C   UNL     1      30.557  -6.447 -23.590  0.00  0.00    +0.000 C 
ATOM     21  C   UNL     1      30.813  -5.696 -22.443  0.00  0.00    +0.002 C 
ENDBRANCH   8  16
TORSDOF 1
ENDMDL
MODEL 5
REMARK VINA RESULT:      -8.3      7.977     10.497
REMARK  Name = 35775
REMARK  1 active torsions:
REMARK  status: ('A' for Active; 'I' for Inactive)
REMARK    1  A    between atoms: C_8  and  C_16
REMARK                            x       y       z     vdW  Elec       q    Type
REMARK                         _______ _______ _______ _____ _____    ______ ____
ROOT
ATOM      1  O   UNL     1      30.984 -24.540 -13.982  0.00  0.00    -0.272 OA
ATOM      2  N   UNL     1      32.313 -23.701 -15.700  0.00  0.00    -0.241 N 
ATOM      3  N   UNL     1      33.946 -22.823 -17.258  0.00  0.00    -0.236 N 
ATOM      4  N   UNL     1      35.239 -22.490 -17.384  0.00  0.00    -0.172 NA
ATOM      5  N   UNL     1      34.057 -23.934 -13.094  0.00  0.00    -0.260 NA
ATOM      6  C   UNL     1      33.612 -23.315 -16.025  0.00  0.00    +0.137 A 
ATOM      7  C   UNL     1      34.799 -23.382 -15.316  0.00  0.00    +0.064 A 
ATOM      8  C   UNL     1      34.979 -23.958 -13.995  0.00  0.00    +0.083 C 
ATOM      9  C   UNL     1      35.758 -22.840 -16.207  0.00  0.00    +0.083 A 
ATOM     10  C   UNL     1      31.974 -23.906 -14.357  0.00  0.00    +0.255 C 
ATOM     11  C   UNL     1      32.832 -23.192 -13.334  0.00  0.00    +0.210 C 
ATOM     12  C   UNL     1      31.313 -23.950 -16.735  0.00  0.00    +0.122 C 
ATOM     13  C   UNL     1      33.095 -22.494 -18.380  0.00  0.00    +0.155 C 
ATOM     14  C   UNL     1      37.202 -22.639 -15.984  0.00  0.00    +0.054 C 
ENDROOT
BRANCH   8  16
ATOM     15  F   UNL     1      35.843 -26.313 -15.287  0.00  0.00    -0.204 F 
ATOM     16  C   UNL     1      36.267 -24.622 -13.674  0.00  0.00    +0.045 C 
ATOM     17  C   UNL     1      36.638 -25.783 -14.348  0.00  0.00    +0.142 C 
ATOM     18  C   UNL     1      37.098 -24.077 -12.698  0.00  0.00    +0.004 C 
ATOM     19  C   UNL     1      37.849 -26.404 -14.043  0.00  0.00    +0.030 C 
ATOM     20  C   UNL     1      38.309 -24.699 -12.394  0.00  0.00    +0.000 C 
ATOM     21  C   UNL     1      38.685 -25.862 -13.066  0.00  0.00    +0.002 C 
ENDBRANCH   8  16
TORSDOF 1
ENDMDL
MODEL 6
REMARK VINA RESULT:      -8.2      5.849      9.435
REMARK  Name = 35775
REMARK  1 active torsions:
REMARK  status: ('A' for Active; 'I' for Inactive)
REMARK    1  A    between atoms: C_8  and  C_16
REMARK                            x       y       z     vdW  Elec       q    Type
REMARK                         _______ _______ _______ _____ _____    ______ ____
ROOT
ATOM      1  O   UNL     1      35.210 -10.569 -26.467  0.00  0.00    -0.272 OA
ATOM      2  N   UNL     1      33.862 -11.622 -24.889  0.00  0.00    -0.241 N 
ATOM      3  N   UNL     1      32.470 -12.424 -23.076  0.00  0.00    -0.236 N 
ATOM      4  N   UNL     1      31.870 -12.050 -21.937  0.00  0.00    -0.172 NA
ATOM      5  N   UNL     1      34.433  -8.682 -23.930  0.00  0.00    -0.260 NA
ATOM      6  C   UNL     1      33.161 -11.421 -23.701  0.00  0.00    +0.137 A 
ATOM      7  C   UNL     1      32.927 -10.283 -22.949  0.00  0.00    +0.064 A 
ATOM      8  C   UNL     1      33.348  -8.933 -23.281  0.00  0.00    +0.083 C 
ATOM      9  C   UNL     1      32.139 -10.746 -21.866  0.00  0.00    +0.083 A 
ATOM     10  C   UNL     1      34.784 -10.657 -25.313  0.00  0.00    +0.255 C 
ATOM     11  C   UNL     1      35.357  -9.761 -24.236  0.00  0.00    +0.210 C 
ATOM     12  C   UNL     1      33.614 -12.792 -25.728  0.00  0.00    +0.122 C 
ATOM     13  C   UNL     1      32.405 -13.834 -23.393  0.00  0.00    +0.155 C 
ATOM     14  C   UNL     1      31.605  -9.975 -20.729  0.00  0.00    +0.054 C 
ENDROOT
BRANCH   8  16
ATOM     15  F   UNL     1      31.025  -8.203 -24.708  0.00  0.00    -0.204 F 
ATOM     16  C   UNL     1      32.484  -7.795 -22.879  0.00  0.00    +0.045 C 
ATOM     17  C   UNL     1      31.349  -7.485 -23.624  0.00  0.00    +0.142 C 
ATOM     18  C   UNL     1      32.815  -7.044 -21.754  0.00  0.00    +0.004 C 
ATOM     19  C   UNL     1      30.540  -6.415 -23.242  0.00  0.00    +0.030 C 
ATOM     20  C   UNL     1      32.006  -5.974 -21.372  0.00  0.00    +0.000 C 
ATOM     21  C   UNL     1      30.869  -5.659 -22.116  0.00  0.00    +0.002 C 
ENDBRANCH   8  16
TORSDOF 1
ENDMDL
MODEL 7
REMARK VINA RESULT:      -7.9      2.500      4.167
REMARK  Name = 35775
REMARK  1 active torsions:
REMARK  status: ('A' for Active; 'I' for Inactive)
REMARK    1  A    between atoms: C_8  and  C_16
REMARK                            x       y       z     vdW  Elec       q    Type
REMARK                         _______ _______ _______ _____ _____    ______ ____
ROOT
ATOM      1  O   UNL     1      34.158 -12.186 -26.365  0.00  0.00    -0.272 OA
ATOM      2  N   UNL     1      33.277 -12.279 -24.212  0.00  0.00    -0.241 N 
ATOM      3  N   UNL     1      32.372 -12.713 -22.008  0.00  0.00    -0.236 N 
ATOM      4  N   UNL     1      32.063 -13.695 -21.148  0.00  0.00    -0.172 NA
ATOM      5  N   UNL     1      33.662 -15.214 -25.274  0.00  0.00    -0.260 NA
ATOM      6  C   UNL     1      32.908 -13.151 -23.189  0.00  0.00    +0.137 A 
ATOM      7  C   UNL     1      33.032 -14.523 -23.056  0.00  0.00    +0.064 A 
ATOM      8  C   UNL     1      33.668 -15.423 -24.002  0.00  0.00    +0.083 C 
ATOM      9  C   UNL     1      32.475 -14.793 -21.782  0.00  0.00    +0.083 A 
ATOM     10  C   UNL     1      33.532 -12.790 -25.490  0.00  0.00    +0.255 C 
ATOM     11  C   UNL     1      32.882 -14.117 -25.821  0.00  0.00    +0.210 C 
ATOM     12  C   UNL     1      33.458 -10.851 -23.964  0.00  0.00    +0.122 C 
ATOM     13  C   UNL     1      31.974 -11.379 -21.614  0.00  0.00    +0.155 C 
ATOM     14  C   UNL     1      32.317 -16.097 -21.111  0.00  0.00    +0.054 C 
ENDROOT
BRANCH   8  16
ATOM     15  F   UNL     1      35.380 -15.333 -21.760  0.00  0.00    -0.204 F 
ATOM     16  C   UNL     1      34.376 -16.621 -23.485  0.00  0.00    +0.045 C 
ATOM     17  C   UNL     1      35.206 -16.512 -22.373  0.00  0.00    +0.142 C 
ATOM     18  C   UNL     1      34.202 -17.850 -24.117  0.00  0.00    +0.004 C 
ATOM     19  C   UNL     1      35.869 -17.641 -21.890  0.00  0.00    +0.030 C 
ATOM     20  C   UNL     1      34.864 -18.977 -23.634  0.00  0.00    +0.000 C 
ATOM     21  C   UNL     1      35.698 -18.874 -22.521  0.00  0.00    +0.002 C 
ENDBRANCH   8  16
TORSDOF 1
ENDMDL
MODEL 8
REMARK VINA RESULT:      -7.9      6.747     10.568
REMARK  Name = 35775
REMARK  1 active torsions:
REMARK  status: ('A' for Active; 'I' for Inactive)
REMARK    1  A    between atoms: C_8  and  C_16
REMARK                            x       y       z     vdW  Elec       q    Type
REMARK                         _______ _______ _______ _____ _____    ______ ____
ROOT
ATOM      1  O   UNL     1      32.728 -12.442 -23.953  0.00  0.00    -0.272 OA
ATOM      2  N   UNL     1      32.252 -11.237 -22.019  0.00  0.00    -0.241 N 
ATOM      3  N   UNL     1      31.874  -9.712 -20.175  0.00  0.00    -0.236 N 
ATOM      4  N   UNL     1      31.949  -8.422 -19.815  0.00  0.00    -0.172 NA
ATOM      5  N   UNL     1      33.467  -9.277 -24.158  0.00  0.00    -0.260 NA
ATOM      6  C   UNL     1      32.249  -9.956 -21.469  0.00  0.00    +0.137 A 
ATOM      7  C   UNL     1      32.513  -8.714 -22.021  0.00  0.00    +0.064 A 
ATOM      8  C   UNL     1      32.827  -8.442 -23.412  0.00  0.00    +0.083 C 
ATOM      9  C   UNL     1      32.327  -7.815 -20.941  0.00  0.00    +0.083 A 
ATOM     10  C   UNL     1      32.921 -11.462 -23.228  0.00  0.00    +0.255 C 
ATOM     11  C   UNL     1      34.025 -10.485 -23.574  0.00  0.00    +0.210 C 
ATOM     12  C   UNL     1      31.524 -12.335 -21.389  0.00  0.00    +0.122 C 
ATOM     13  C   UNL     1      31.543 -10.645 -19.121  0.00  0.00    +0.155 C 
ATOM     14  C   UNL     1      32.491  -6.350 -20.933  0.00  0.00    +0.054 C 
ENDROOT
BRANCH   8  16
ATOM     15  F   UNL     1      34.612  -6.574 -24.546  0.00  0.00    -0.204 F 
ATOM     16  C   UNL     1      32.374  -7.162 -24.011  0.00  0.00    +0.045 C 
ATOM     17  C   UNL     1      33.305  -6.281 -24.556  0.00  0.00    +0.142 C 
ATOM     18  C   UNL     1      31.017  -6.850 -24.024  0.00  0.00    +0.004 C 
ATOM     19  C   UNL     1      32.875  -5.079 -25.118  0.00  0.00    +0.030 C 
ATOM     20  C   UNL     1      30.588  -5.648 -24.586  0.00  0.00    +0.000 C 
ATOM     21  C   UNL     1      31.516  -4.762 -25.132  0.00  0.00    +0.002 C 
ENDBRANCH   8  16
TORSDOF 1
ENDMDL
