MODEL 1
REMARK VINA RESULT:     -10.7      0.000      0.000
REMARK  Name = 65947
REMARK  5 active torsions:
REMARK  status: ('A' for Active; 'I' for Inactive)
REMARK    1  A    between atoms: C_5  and  N_16
REMARK    2  A    between atoms: C_12  and  C_32
REMARK    3  A    between atoms: N_17  and  C_23
REMARK    4  A    between atoms: C_23  and  C_27
REMARK    5  A    between atoms: C_32  and  O_33
REMARK                            x       y       z     vdW  Elec       q    Type
REMARK                         _______ _______ _______ _____ _____    ______ ____
ROOT
ATOM      1  S   UNL     1      32.442 -13.145 -22.348  0.00  0.00    -0.074 S 
ATOM      2  F   UNL     1      35.264 -20.288 -23.713  0.00  0.00    -0.203 F 
ATOM      3  O   UNL     1      34.572 -15.904 -26.185  0.00  0.00    -0.286 OA
ATOM      4  N   UNL     1      33.206 -15.302 -22.474  0.00  0.00    -0.314 N 
ATOM      5  C   UNL     1      34.277 -18.846 -22.107  0.00  0.00    +0.077 C 
ATOM      6  C   UNL     1      33.714 -16.580 -22.728  0.00  0.00    +0.065 A 
ATOM      7  C   UNL     1      32.636 -14.651 -21.358  0.00  0.00    +0.139 C 
ATOM      8  C   UNL     1      33.162 -14.348 -23.353  0.00  0.00    +0.098 A 
ATOM      9  C   UNL     1      33.753 -17.594 -21.772  0.00  0.00    +0.034 C 
ATOM     10  C   UNL     1      34.207 -16.831 -24.029  0.00  0.00    +0.057 A 
ATOM     11  C   UNL     1      34.762 -19.086 -23.394  0.00  0.00    +0.154 C 
ATOM     12  C   UNL     1      33.582 -14.410 -24.624  0.00  0.00    +0.136 A 
ATOM     13  C   UNL     1      34.730 -18.081 -24.361  0.00  0.00    +0.036 C 
ATOM     14  C   UNL     1      34.157 -15.729 -25.045  0.00  0.00    +0.205 A 
ATOM     15  C   UNL     1      33.637 -14.450 -20.247  0.00  0.00    +0.037 C 
ENDROOT
BRANCH   5  16
ATOM     16  N   UNL     1      34.312 -19.861 -21.145  0.00  0.00    -0.310 N 
ATOM     17  N   UNL     1      34.457 -21.754 -19.011  0.00  0.00    +0.394 N 
ATOM     18  C   UNL     1      33.142 -20.102 -20.297  0.00  0.00    +0.068 C 
ATOM     19  C   UNL     1      35.611 -20.198 -20.548  0.00  0.00    +0.068 C 
ATOM     20  C   UNL     1      33.188 -21.513 -19.706  0.00  0.00    -0.055 C 
ATOM     21  C   UNL     1      35.576 -21.608 -19.950  0.00  0.00    -0.055 C 
ATOM     22  H   UNL     1      34.561 -21.065 -18.266  0.00  0.00    -0.079 HD
BRANCH  17  23
ATOM     23  C   UNL     1      34.468 -23.085 -18.405  0.00  0.00    -0.008 C 
BRANCH  23  27
ATOM     24  O   UNL     1      36.390 -22.691 -16.935  0.00  0.00    -0.397 OA
ATOM     25  O   UNL     1      35.382 -22.800 -14.841  0.00  0.00    -0.395 OA
ATOM     26  O   UNL     1      37.634 -22.405 -15.029  0.00  0.00    -0.202 OA
ATOM     27  C   UNL     1      35.035 -22.936 -17.038  0.00  0.00    +0.139 A 
ATOM     28  C   UNL     1      34.465 -22.997 -15.853  0.00  0.00    +0.158 A 
ATOM     29  C   UNL     1      33.055 -23.235 -15.460  0.00  0.00    +0.076 C 
ATOM     30  C   UNL     1      36.550 -22.616 -15.561  0.00  0.00    +0.521 A 
ENDBRANCH  23  27
ENDBRANCH  17  23
ENDBRANCH   5  16
BRANCH  12  32
ATOM     31  O   UNL     1      33.845 -12.120 -25.204  0.00  0.00    -0.245 OA
ATOM     32  C   UNL     1      33.463 -13.244 -25.492  0.00  0.00    +0.343 C 
BRANCH  32  33
ATOM     33  O   UNL     1      32.869 -13.595 -26.654  0.00  0.00    -0.477 OA
ATOM     34  H   UNL     1      31.954 -13.434 -26.779  0.00  0.00    +0.295 HD
ENDBRANCH  32  33
ENDBRANCH  12  32
TORSDOF 5
ENDMDL
MODEL 2
REMARK VINA RESULT:     -10.6      5.355     11.734
REMARK  Name = 65947
REMARK  5 active torsions:
REMARK  status: ('A' for Active; 'I' for Inactive)
REMARK    1  A    between atoms: C_5  and  N_16
REMARK    2  A    between atoms: C_12  and  C_32
REMARK    3  A    between atoms: N_17  and  C_23
REMARK    4  A    between atoms: C_23  and  C_27
REMARK    5  A    between atoms: C_32  and  O_33
REMARK                            x       y       z     vdW  Elec       q    Type
REMARK                         _______ _______ _______ _____ _____    ______ ____
ROOT
ATOM      1  S   UNL     1      34.878 -17.241 -21.057  0.00  0.00    -0.074 S 
ATOM      2  F   UNL     1      33.210 -11.687 -26.274  0.00  0.00    -0.203 F 
ATOM      3  O   UNL     1      34.142 -16.680 -26.157  0.00  0.00    -0.286 OA
ATOM      4  N   UNL     1      34.380 -15.427 -22.365  0.00  0.00    -0.314 N 
ATOM      5  C   UNL     1      33.583 -12.172 -23.980  0.00  0.00    +0.077 C 
ATOM      6  C   UNL     1      34.082 -14.439 -23.308  0.00  0.00    +0.065 A 
ATOM      7  C   UNL     1      34.561 -15.459 -20.966  0.00  0.00    +0.139 C 
ATOM      8  C   UNL     1      34.575 -16.676 -22.658  0.00  0.00    +0.098 A 
ATOM      9  C   UNL     1      33.877 -13.099 -22.977  0.00  0.00    +0.034 C 
ATOM     10  C   UNL     1      33.988 -14.842 -24.659  0.00  0.00    +0.057 A 
ATOM     11  C   UNL     1      33.492 -12.579 -25.313  0.00  0.00    +0.154 C 
ATOM     12  C   UNL     1      34.526 -17.232 -23.877  0.00  0.00    +0.136 A 
ATOM     13  C   UNL     1      33.694 -13.915 -25.660  0.00  0.00    +0.036 C 
ATOM     14  C   UNL     1      34.212 -16.287 -24.999  0.00  0.00    +0.205 A 
ATOM     15  C   UNL     1      33.280 -15.168 -20.222  0.00  0.00    +0.037 C 
ENDROOT
BRANCH   5  16
ATOM     16  N   UNL     1      33.380 -10.829 -23.644  0.00  0.00    -0.310 N 
ATOM     17  N   UNL     1      32.901  -8.048 -23.206  0.00  0.00    +0.394 N 
ATOM     18  C   UNL     1      32.036 -10.362 -23.293  0.00  0.00    +0.068 C 
ATOM     19  C   UNL     1      34.263  -9.826 -24.253  0.00  0.00    +0.068 C 
ATOM     20  C   UNL     1      32.112  -9.059 -22.494  0.00  0.00    -0.055 C 
ATOM     21  C   UNL     1      34.267  -8.540 -23.421  0.00  0.00    -0.055 C 
ATOM     22  H   UNL     1      32.469  -7.871 -24.113  0.00  0.00    -0.079 HD
BRANCH  17  23
ATOM     23  C   UNL     1      32.922  -6.791 -22.458  0.00  0.00    -0.008 C 
BRANCH  23  27
ATOM     24  O   UNL     1      32.560  -5.494 -24.507  0.00  0.00    -0.397 OA
ATOM     25  O   UNL     1      30.618  -4.332 -23.966  0.00  0.00    -0.395 OA
ATOM     26  O   UNL     1      31.617  -4.040 -26.010  0.00  0.00    -0.202 OA
ATOM     27  C   UNL     1      32.120  -5.808 -23.237  0.00  0.00    +0.139 A 
ATOM     28  C   UNL     1      31.021  -5.151 -22.931  0.00  0.00    +0.158 A 
ATOM     29  C   UNL     1      30.192  -5.158 -21.702  0.00  0.00    +0.076 C 
ATOM     30  C   UNL     1      31.599  -4.581 -24.911  0.00  0.00    +0.521 A 
ENDBRANCH  23  27
ENDBRANCH  17  23
ENDBRANCH   5  16
BRANCH  12  32
ATOM     31  O   UNL     1      35.621 -19.295 -23.439  0.00  0.00    -0.245 OA
ATOM     32  C   UNL     1      34.769 -18.659 -24.042  0.00  0.00    +0.343 C 
BRANCH  32  33
ATOM     33  O   UNL     1      33.914 -19.169 -24.956  0.00  0.00    -0.477 OA
ATOM     34  H   UNL     1      33.007 -19.268 -24.744  0.00  0.00    +0.295 HD
ENDBRANCH  32  33
ENDBRANCH  12  32
TORSDOF 5
ENDMDL
MODEL 3
REMARK VINA RESULT:     -10.1      5.082     10.857
REMARK  Name = 65947
REMARK  5 active torsions:
REMARK  status: ('A' for Active; 'I' for Inactive)
REMARK    1  A    between atoms: C_5  and  N_16
REMARK    2  A    between atoms: C_12  and  C_32
REMARK    3  A    between atoms: N_17  and  C_23
REMARK    4  A    between atoms: C_23  and  C_27
REMARK    5  A    between atoms: C_32  and  O_33
REMARK                            x       y       z     vdW  Elec       q    Type
REMARK                         _______ _______ _______ _____ _____    ______ ____
ROOT
ATOM      1  S   UNL     1      35.178 -17.525 -20.932  0.00  0.00    -0.074 S 
ATOM      2  F   UNL     1      33.147 -12.617 -26.646  0.00  0.00    -0.203 F 
ATOM      3  O   UNL     1      33.914 -17.591 -25.959  0.00  0.00    -0.286 OA
ATOM      4  N   UNL     1      34.604 -15.872 -22.414  0.00  0.00    -0.314 N 
ATOM      5  C   UNL     1      33.749 -12.819 -24.358  0.00  0.00    +0.077 C 
ATOM      6  C   UNL     1      34.239 -15.001 -23.444  0.00  0.00    +0.065 A 
ATOM      7  C   UNL     1      34.934 -15.732 -21.048  0.00  0.00    +0.139 C 
ATOM      8  C   UNL     1      34.723 -17.157 -22.555  0.00  0.00    +0.098 A 
ATOM      9  C   UNL     1      34.118 -13.621 -23.275  0.00  0.00    +0.034 C 
ATOM     10  C   UNL     1      33.986 -15.571 -24.713  0.00  0.00    +0.057 A 
ATOM     11  C   UNL     1      33.501 -13.389 -25.608  0.00  0.00    +0.154 C 
ATOM     12  C   UNL     1      34.523 -17.862 -23.677  0.00  0.00    +0.136 A 
ATOM     13  C   UNL     1      33.618 -14.767 -25.792  0.00  0.00    +0.036 C 
ATOM     14  C   UNL     1      34.122 -17.056 -24.877  0.00  0.00    +0.205 A 
ATOM     15  C   UNL     1      33.752 -15.286 -20.223  0.00  0.00    +0.037 C 
ENDROOT
BRANCH   5  16
ATOM     16  N   UNL     1      33.630 -11.436 -24.185  0.00  0.00    -0.310 N 
ATOM     17  N   UNL     1      33.481  -8.645 -23.593  0.00  0.00    +0.394 N 
ATOM     18  C   UNL     1      34.783 -10.568 -24.443  0.00  0.00    +0.068 C 
ATOM     19  C   UNL     1      32.679 -10.946 -23.179  0.00  0.00    +0.068 C 
ATOM     20  C   UNL     1      34.327  -9.128 -24.691  0.00  0.00    -0.055 C 
ATOM     21  C   UNL     1      32.290  -9.494 -23.470  0.00  0.00    -0.055 C 
ATOM     22  H   UNL     1      34.011  -8.694 -22.723  0.00  0.00    -0.079 HD
BRANCH  17  23
ATOM     23  C   UNL     1      33.096  -7.252 -23.816  0.00  0.00    -0.008 C 
BRANCH  23  27
ATOM     24  O   UNL     1      33.151  -7.265 -21.365  0.00  0.00    -0.397 OA
ATOM     25  O   UNL     1      31.576  -5.624 -20.872  0.00  0.00    -0.395 OA
ATOM     26  O   UNL     1      32.671  -6.730 -19.186  0.00  0.00    -0.202 OA
ATOM     27  C   UNL     1      32.609  -6.722 -22.513  0.00  0.00    +0.139 A 
ATOM     28  C   UNL     1      31.718  -5.795 -22.234  0.00  0.00    +0.158 A 
ATOM     29  C   UNL     1      30.884  -4.946 -23.119  0.00  0.00    +0.076 C 
ATOM     30  C   UNL     1      32.480  -6.553 -20.384  0.00  0.00    +0.521 A 
ENDBRANCH  23  27
ENDBRANCH  17  23
ENDBRANCH   5  16
BRANCH  12  32
ATOM     31  O   UNL     1      34.684 -20.010 -22.673  0.00  0.00    -0.245 OA
ATOM     32  C   UNL     1      34.697 -19.309 -23.674  0.00  0.00    +0.343 C 
BRANCH  32  33
ATOM     33  O   UNL     1      34.875 -19.754 -24.938  0.00  0.00    -0.477 OA
ATOM     34  H   UNL     1      34.272 -19.507 -25.610  0.00  0.00    +0.295 HD
ENDBRANCH  32  33
ENDBRANCH  12  32
TORSDOF 5
ENDMDL
MODEL 4
REMARK VINA RESULT:     -10.1      3.862      6.163
REMARK  Name = 65947
REMARK  5 active torsions:
REMARK  status: ('A' for Active; 'I' for Inactive)
REMARK    1  A    between atoms: C_5  and  N_16
REMARK    2  A    between atoms: C_12  and  C_32
REMARK    3  A    between atoms: N_17  and  C_23
REMARK    4  A    between atoms: C_23  and  C_27
REMARK    5  A    between atoms: C_32  and  O_33
REMARK                            x       y       z     vdW  Elec       q    Type
REMARK                         _______ _______ _______ _____ _____    ______ ____
ROOT
ATOM      1  S   UNL     1      34.668  -8.356 -24.743  0.00  0.00    -0.074 S 
ATOM      2  F   UNL     1      31.737 -14.755 -21.380  0.00  0.00    -0.203 F 
ATOM      3  O   UNL     1      30.656  -9.809 -21.800  0.00  0.00    -0.286 OA
ATOM      4  N   UNL     1      34.031 -10.378 -23.872  0.00  0.00    -0.314 N 
ATOM      5  C   UNL     1      33.486 -13.872 -22.721  0.00  0.00    +0.077 C 
ATOM      6  C   UNL     1      33.498 -11.519 -23.265  0.00  0.00    +0.065 A 
ATOM      7  C   UNL     1      35.161 -10.099 -24.669  0.00  0.00    +0.139 C 
ATOM      8  C   UNL     1      33.500  -9.196 -23.793  0.00  0.00    +0.098 A 
ATOM      9  C   UNL     1      34.083 -12.781 -23.358  0.00  0.00    +0.034 C 
ATOM     10  C   UNL     1      32.304 -11.359 -22.524  0.00  0.00    +0.057 A 
ATOM     11  C   UNL     1      32.307 -13.706 -21.991  0.00  0.00    +0.154 C 
ATOM     12  C   UNL     1      32.378  -8.863 -23.138  0.00  0.00    +0.136 A 
ATOM     13  C   UNL     1      31.711 -12.449 -21.889  0.00  0.00    +0.036 C 
ATOM     14  C   UNL     1      31.689  -9.993 -22.433  0.00  0.00    +0.205 A 
ATOM     15  C   UNL     1      35.071 -10.751 -26.027  0.00  0.00    +0.037 C 
ENDROOT
BRANCH   5  16
ATOM     16  N   UNL     1      34.077 -15.137 -22.815  0.00  0.00    -0.310 N 
ATOM     17  N   UNL     1      35.494 -17.601 -23.102  0.00  0.00    +0.394 N 
ATOM     18  C   UNL     1      34.924 -15.628 -21.725  0.00  0.00    +0.068 C 
ATOM     19  C   UNL     1      34.405 -15.646 -24.154  0.00  0.00    +0.068 C 
ATOM     20  C   UNL     1      35.041 -17.153 -21.781  0.00  0.00    -0.055 C 
ATOM     21  C   UNL     1      34.537 -17.171 -24.130  0.00  0.00    -0.055 C 
ATOM     22  H   UNL     1      36.401 -17.178 -23.301  0.00  0.00    -0.079 HD
BRANCH  17  23
ATOM     23  C   UNL     1      35.652 -19.055 -23.127  0.00  0.00    -0.008 C 
BRANCH  23  27
ATOM     24  O   UNL     1      33.696 -19.735 -21.816  0.00  0.00    -0.397 OA
ATOM     25  O   UNL     1      34.696 -20.363 -19.811  0.00  0.00    -0.395 OA
ATOM     26  O   UNL     1      32.421 -20.502 -20.070  0.00  0.00    -0.202 OA
ATOM     27  C   UNL     1      35.066 -19.577 -21.863  0.00  0.00    +0.139 A 
ATOM     28  C   UNL     1      35.632 -19.932 -20.729  0.00  0.00    +0.158 A 
ATOM     29  C   UNL     1      37.054 -19.939 -20.308  0.00  0.00    +0.076 C 
ATOM     30  C   UNL     1      33.521 -20.221 -20.530  0.00  0.00    +0.521 A 
ENDBRANCH  23  27
ENDBRANCH  17  23
ENDBRANCH   5  16
BRANCH  12  32
ATOM     31  O   UNL     1      32.466  -6.555 -22.577  0.00  0.00    -0.245 OA
ATOM     32  C   UNL     1      31.909  -7.483 -23.145  0.00  0.00    +0.343 C 
BRANCH  32  33
ATOM     33  O   UNL     1      30.772  -7.387 -23.869  0.00  0.00    -0.477 OA
ATOM     34  H   UNL     1      30.794  -7.011 -24.727  0.00  0.00    +0.295 HD
ENDBRANCH  32  33
ENDBRANCH  12  32
TORSDOF 5
ENDMDL
MODEL 5
REMARK VINA RESULT:      -8.8      3.103     10.208
REMARK  Name = 65947
REMARK  5 active torsions:
REMARK  status: ('A' for Active; 'I' for Inactive)
REMARK    1  A    between atoms: C_5  and  N_16
REMARK    2  A    between atoms: C_12  and  C_32
REMARK    3  A    between atoms: N_17  and  C_23
REMARK    4  A    between atoms: C_23  and  C_27
REMARK    5  A    between atoms: C_32  and  O_33
REMARK                            x       y       z     vdW  Elec       q    Type
REMARK                         _______ _______ _______ _____ _____    ______ ____
ROOT
ATOM      1  S   UNL     1      37.664 -23.347 -15.380  0.00  0.00    -0.074 S 
ATOM      2  F   UNL     1      32.296 -21.000 -20.531  0.00  0.00    -0.203 F 
ATOM      3  O   UNL     1      32.640 -24.024 -16.463  0.00  0.00    -0.286 OA
ATOM      4  N   UNL     1      36.297 -22.499 -17.013  0.00  0.00    -0.314 N 
ATOM      5  C   UNL     1      34.566 -20.837 -19.855  0.00  0.00    +0.077 C 
ATOM      6  C   UNL     1      35.328 -22.085 -17.932  0.00  0.00    +0.065 A 
ATOM      7  C   UNL     1      37.670 -22.240 -16.816  0.00  0.00    +0.139 C 
ATOM      8  C   UNL     1      36.068 -23.322 -16.035  0.00  0.00    +0.098 A 
ATOM      9  C   UNL     1      35.592 -21.202 -18.979  0.00  0.00    +0.034 C 
ATOM     10  C   UNL     1      34.022 -22.601 -17.770  0.00  0.00    +0.057 A 
ATOM     11  C   UNL     1      33.279 -21.352 -19.689  0.00  0.00    +0.154 C 
ATOM     12  C   UNL     1      34.899 -23.904 -15.734  0.00  0.00    +0.136 A 
ATOM     13  C   UNL     1      33.000 -22.236 -18.646  0.00  0.00    +0.036 C 
ATOM     14  C   UNL     1      33.756 -23.551 -16.639  0.00  0.00    +0.205 A 
ATOM     15  C   UNL     1      37.924 -20.811 -16.404  0.00  0.00    +0.037 C 
ENDROOT
BRANCH   5  16
ATOM     16  N   UNL     1      34.835 -19.952 -20.905  0.00  0.00    -0.310 N 
ATOM     17  N   UNL     1      35.258 -17.964 -22.912  0.00  0.00    +0.394 N 
ATOM     18  C   UNL     1      36.016 -19.087 -20.844  0.00  0.00    +0.068 C 
ATOM     19  C   UNL     1      33.696 -19.421 -21.666  0.00  0.00    +0.068 C 
ATOM     20  C   UNL     1      36.398 -18.600 -22.244  0.00  0.00    -0.055 C 
ATOM     21  C   UNL     1      34.155 -18.924 -23.040  0.00  0.00    -0.055 C 
ATOM     22  H   UNL     1      34.943 -17.175 -22.347  0.00  0.00    -0.079 HD
BRANCH  17  23
ATOM     23  C   UNL     1      35.649 -17.456 -24.226  0.00  0.00    -0.008 C 
BRANCH  23  27
ATOM     24  O   UNL     1      34.147 -16.415 -25.861  0.00  0.00    -0.397 OA
ATOM     25  O   UNL     1      33.315 -14.625 -24.628  0.00  0.00    -0.395 OA
ATOM     26  O   UNL     1      32.637 -14.962 -26.794  0.00  0.00    -0.202 OA
ATOM     27  C   UNL     1      34.677 -16.388 -24.586  0.00  0.00    +0.139 A 
ATOM     28  C   UNL     1      34.207 -15.375 -23.890  0.00  0.00    +0.158 A 
ATOM     29  C   UNL     1      34.476 -14.940 -22.498  0.00  0.00    +0.076 C 
ATOM     30  C   UNL     1      33.315 -15.307 -25.834  0.00  0.00    +0.521 A 
ENDBRANCH  23  27
ENDBRANCH  17  23
ENDBRANCH   5  16
BRANCH  12  32
ATOM     31  O   UNL     1      34.334 -24.512 -13.507  0.00  0.00    -0.245 OA
ATOM     32  C   UNL     1      34.804 -24.809 -14.596  0.00  0.00    +0.343 C 
BRANCH  32  33
ATOM     33  O   UNL     1      35.310 -26.018 -14.925  0.00  0.00    -0.477 OA
ATOM     34  H   UNL     1      36.166 -26.262 -14.634  0.00  0.00    +0.295 HD
ENDBRANCH  32  33
ENDBRANCH  12  32
TORSDOF 5
ENDMDL
MODEL 6
REMARK VINA RESULT:      -8.4      4.257      6.690
REMARK  Name = 65947
REMARK  5 active torsions:
REMARK  status: ('A' for Active; 'I' for Inactive)
REMARK    1  A    between atoms: C_5  and  N_16
REMARK    2  A    between atoms: C_12  and  C_32
REMARK    3  A    between atoms: N_17  and  C_23
REMARK    4  A    between atoms: C_23  and  C_27
REMARK    5  A    between atoms: C_32  and  O_33
REMARK                            x       y       z     vdW  Elec       q    Type
REMARK                         _______ _______ _______ _____ _____    ______ ____
ROOT
ATOM      1  S   UNL     1      30.875  -8.940 -19.757  0.00  0.00    -0.074 S 
ATOM      2  F   UNL     1      34.607 -12.544 -25.583  0.00  0.00    -0.203 F 
ATOM      3  O   UNL     1      33.040  -7.873 -24.345  0.00  0.00    -0.286 OA
ATOM      4  N   UNL     1      31.942 -10.242 -21.314  0.00  0.00    -0.314 N 
ATOM      5  C   UNL     1      33.563 -12.805 -23.466  0.00  0.00    +0.077 C 
ATOM      6  C   UNL     1      32.611 -10.878 -22.363  0.00  0.00    +0.065 A 
ATOM      7  C   UNL     1      31.384 -10.650 -20.083  0.00  0.00    +0.139 C 
ATOM      8  C   UNL     1      31.674  -8.972 -21.285  0.00  0.00    +0.098 A 
ATOM      9  C   UNL     1      32.889 -12.245 -22.378  0.00  0.00    +0.034 C 
ATOM     10  C   UNL     1      33.016 -10.075 -23.453  0.00  0.00    +0.057 A 
ATOM     11  C   UNL     1      33.960 -12.004 -24.539  0.00  0.00    +0.154 C 
ATOM     12  C   UNL     1      31.981  -8.066 -22.225  0.00  0.00    +0.136 A 
ATOM     13  C   UNL     1      33.689 -10.636 -24.538  0.00  0.00    +0.036 C 
ATOM     14  C   UNL     1      32.708  -8.606 -23.421  0.00  0.00    +0.205 A 
ATOM     15  C   UNL     1      32.440 -11.102 -19.105  0.00  0.00    +0.037 C 
ENDROOT
BRANCH   5  16
ATOM     16  N   UNL     1      33.839 -14.177 -23.479  0.00  0.00    -0.310 N 
ATOM     17  N   UNL     1      34.166 -17.013 -23.401  0.00  0.00    +0.394 N 
ATOM     18  C   UNL     1      33.396 -14.998 -24.608  0.00  0.00    +0.068 C 
ATOM     19  C   UNL     1      33.937 -14.871 -22.188  0.00  0.00    +0.068 C 
ATOM     20  C   UNL     1      34.205 -16.295 -24.680  0.00  0.00    -0.055 C 
ATOM     21  C   UNL     1      34.731 -16.172 -22.339  0.00  0.00    -0.055 C 
ATOM     22  H   UNL     1      33.195 -17.225 -23.171  0.00  0.00    -0.079 HD
BRANCH  17  23
ATOM     23  C   UNL     1      34.898 -18.276 -23.498  0.00  0.00    -0.008 C 
BRANCH  23  27
ATOM     24  O   UNL     1      33.415 -19.398 -21.900  0.00  0.00    -0.397 OA
ATOM     25  O   UNL     1      34.924 -19.992 -20.229  0.00  0.00    -0.395 OA
ATOM     26  O   UNL     1      32.699 -20.517 -20.029  0.00  0.00    -0.202 OA
ATOM     27  C   UNL     1      34.699 -18.993 -22.209  0.00  0.00    +0.139 A 
ATOM     28  C   UNL     1      35.551 -19.329 -21.264  0.00  0.00    +0.158 A 
ATOM     29  C   UNL     1      37.014 -19.113 -21.149  0.00  0.00    +0.076 C 
ATOM     30  C   UNL     1      33.611 -20.007 -20.671  0.00  0.00    +0.521 A 
ENDBRANCH  23  27
ENDBRANCH  17  23
ENDBRANCH   5  16
BRANCH  12  32
ATOM     31  O   UNL     1      31.940  -5.977 -21.093  0.00  0.00    -0.245 OA
ATOM     32  C   UNL     1      31.610  -6.669 -22.045  0.00  0.00    +0.343 C 
BRANCH  32  33
ATOM     33  O   UNL     1      30.848  -6.257 -23.083  0.00  0.00    -0.477 OA
ATOM     34  H   UNL     1      31.195  -5.649 -23.705  0.00  0.00    +0.295 HD
ENDBRANCH  32  33
ENDBRANCH  12  32
TORSDOF 5
ENDMDL
MODEL 7
REMARK VINA RESULT:      -8.4      2.145      3.073
REMARK  Name = 65947
REMARK  5 active torsions:
REMARK  status: ('A' for Active; 'I' for Inactive)
REMARK    1  A    between atoms: C_5  and  N_16
REMARK    2  A    between atoms: C_12  and  C_32
REMARK    3  A    between atoms: N_17  and  C_23
REMARK    4  A    between atoms: C_23  and  C_27
REMARK    5  A    between atoms: C_32  and  O_33
REMARK                            x       y       z     vdW  Elec       q    Type
REMARK                         _______ _______ _______ _____ _____    ______ ____
ROOT
ATOM      1  S   UNL     1      31.113 -10.959 -20.959  0.00  0.00    -0.074 S 
ATOM      2  F   UNL     1      35.467 -16.622 -24.094  0.00  0.00    -0.203 F 
ATOM      3  O   UNL     1      34.276 -11.765 -24.987  0.00  0.00    -0.286 OA
ATOM      4  N   UNL     1      32.302 -12.789 -21.661  0.00  0.00    -0.314 N 
ATOM      5  C   UNL     1      33.993 -16.034 -22.328  0.00  0.00    +0.077 C 
ATOM      6  C   UNL     1      33.085 -13.797 -22.231  0.00  0.00    +0.065 A 
ATOM      7  C   UNL     1      31.461 -12.686 -20.532  0.00  0.00    +0.139 C 
ATOM      8  C   UNL     1      32.194 -11.589 -22.146  0.00  0.00    +0.098 A 
ATOM      9  C   UNL     1      33.188 -15.082 -21.697  0.00  0.00    +0.034 C 
ATOM     10  C   UNL     1      33.799 -13.474 -23.407  0.00  0.00    +0.057 A 
ATOM     11  C   UNL     1      34.695 -15.707 -23.490  0.00  0.00    +0.154 C 
ATOM     12  C   UNL     1      32.795 -11.112 -23.245  0.00  0.00    +0.136 A 
ATOM     13  C   UNL     1      34.602 -14.426 -24.035  0.00  0.00    +0.036 C 
ATOM     14  C   UNL     1      33.676 -12.088 -23.968  0.00  0.00    +0.205 A 
ATOM     15  C   UNL     1      32.232 -12.786 -19.239  0.00  0.00    +0.037 C 
ENDROOT
BRANCH   5  16
ATOM     16  N   UNL     1      34.092 -17.322 -21.791  0.00  0.00    -0.310 N 
ATOM     17  N   UNL     1      34.392 -19.841 -20.479  0.00  0.00    +0.394 N 
ATOM     18  C   UNL     1      33.010 -17.847 -20.954  0.00  0.00    +0.068 C 
ATOM     19  C   UNL     1      35.434 -17.843 -21.496  0.00  0.00    +0.068 C 
ATOM     20  C   UNL     1      33.066 -19.376 -20.901  0.00  0.00    -0.055 C 
ATOM     21  C   UNL     1      35.410 -19.373 -21.427  0.00  0.00    -0.055 C 
ATOM     22  H   UNL     1      34.599 -19.456 -19.557  0.00  0.00    -0.079 HD
BRANCH  17  23
ATOM     23  C   UNL     1      34.417 -21.301 -20.380  0.00  0.00    -0.008 C 
BRANCH  23  27
ATOM     24  O   UNL     1      36.274 -21.062 -18.797  0.00  0.00    -0.397 OA
ATOM     25  O   UNL     1      35.561 -22.437 -17.059  0.00  0.00    -0.395 OA
ATOM     26  O   UNL     1      37.562 -21.325 -16.917  0.00  0.00    -0.202 OA
ATOM     27  C   UNL     1      35.050 -21.636 -19.076  0.00  0.00    +0.139 A 
ATOM     28  C   UNL     1      34.647 -22.414 -18.093  0.00  0.00    +0.158 A 
ATOM     29  C   UNL     1      33.418 -23.230 -17.936  0.00  0.00    +0.076 C 
ATOM     30  C   UNL     1      36.543 -21.588 -17.544  0.00  0.00    +0.521 A 
ENDBRANCH  23  27
ENDBRANCH  17  23
ENDBRANCH   5  16
BRANCH  12  32
ATOM     31  O   UNL     1      31.478  -9.190 -23.715  0.00  0.00    -0.245 OA
ATOM     32  C   UNL     1      32.572  -9.733 -23.662  0.00  0.00    +0.343 C 
BRANCH  32  33
ATOM     33  O   UNL     1      33.750  -9.152 -23.979  0.00  0.00    -0.477 OA
ATOM     34  H   UNL     1      33.923  -8.898 -24.864  0.00  0.00    +0.295 HD
ENDBRANCH  32  33
ENDBRANCH  12  32
TORSDOF 5
ENDMDL
MODEL 8
REMARK VINA RESULT:      -8.2      6.850     13.642
REMARK  Name = 65947
REMARK  5 active torsions:
REMARK  status: ('A' for Active; 'I' for Inactive)
REMARK    1  A    between atoms: C_5  and  N_16
REMARK    2  A    between atoms: C_12  and  C_32
REMARK    3  A    between atoms: N_17  and  C_23
REMARK    4  A    between atoms: C_23  and  C_27
REMARK    5  A    between atoms: C_32  and  O_33
REMARK                            x       y       z     vdW  Elec       q    Type
REMARK                         _______ _______ _______ _____ _____    ______ ____
ROOT
ATOM      1  S   UNL     1      33.338 -14.802 -24.535  0.00  0.00    -0.074 S 
ATOM      2  F   UNL     1      31.356  -9.057 -19.644  0.00  0.00    -0.203 F 
ATOM      3  O   UNL     1      32.263 -14.054 -19.520  0.00  0.00    -0.286 OA
ATOM      4  N   UNL     1      32.768 -12.939 -23.328  0.00  0.00    -0.314 N 
ATOM      5  C   UNL     1      31.881  -9.626 -21.889  0.00  0.00    +0.077 C 
ATOM      6  C   UNL     1      32.412 -11.916 -22.444  0.00  0.00    +0.065 A 
ATOM      7  C   UNL     1      33.040 -13.022 -24.711  0.00  0.00    +0.139 C 
ATOM      8  C   UNL     1      32.932 -14.178 -22.979  0.00  0.00    +0.098 A 
ATOM      9  C   UNL     1      32.237 -10.589 -22.836  0.00  0.00    +0.034 C 
ATOM     10  C   UNL     1      32.226 -12.270 -21.088  0.00  0.00    +0.057 A 
ATOM     11  C   UNL     1      31.698  -9.984 -20.552  0.00  0.00    +0.154 C 
ATOM     12  C   UNL     1      32.798 -14.689 -21.747  0.00  0.00    +0.136 A 
ATOM     13  C   UNL     1      31.870 -11.307 -20.144  0.00  0.00    +0.036 C 
ATOM     14  C   UNL     1      32.416 -13.703 -20.683  0.00  0.00    +0.205 A 
ATOM     15  C   UNL     1      34.305 -12.290 -25.084  0.00  0.00    +0.037 C 
ENDROOT
BRANCH   5  16
ATOM     16  N   UNL     1      31.705  -8.296 -22.287  0.00  0.00    -0.310 N 
ATOM     17  N   UNL     1      31.582  -5.594 -23.206  0.00  0.00    +0.394 N 
ATOM     18  C   UNL     1      31.185  -7.998 -23.624  0.00  0.00    +0.068 C 
ATOM     19  C   UNL     1      32.599  -7.281 -21.713  0.00  0.00    +0.068 C 
ATOM     20  C   UNL     1      30.604  -6.583 -23.672  0.00  0.00    -0.055 C 
ATOM     21  C   UNL     1      31.971  -5.890 -21.822  0.00  0.00    -0.055 C 
ATOM     22  H   UNL     1      32.411  -5.647 -23.799  0.00  0.00    -0.079 HD
BRANCH  17  23
ATOM     23  C   UNL     1      31.035  -4.242 -23.307  0.00  0.00    -0.008 C 
BRANCH  23  27
ATOM     24  O   UNL     1      32.395  -4.374 -25.343  0.00  0.00    -0.397 OA
ATOM     25  O   UNL     1      31.502  -2.625 -26.592  0.00  0.00    -0.395 OA
ATOM     26  O   UNL     1      33.216  -3.900 -27.431  0.00  0.00    -0.202 OA
ATOM     27  C   UNL     1      31.377  -3.734 -24.663  0.00  0.00    +0.139 A 
ATOM     28  C   UNL     1      30.873  -2.745 -25.370  0.00  0.00    +0.158 A 
ATOM     29  C   UNL     1      29.783  -1.786 -25.067  0.00  0.00    +0.076 C 
ATOM     30  C   UNL     1      32.431  -3.651 -26.524  0.00  0.00    +0.521 A 
ENDBRANCH  23  27
ENDBRANCH  17  23
ENDBRANCH   5  16
BRANCH  12  32
ATOM     31  O   UNL     1      34.029 -16.720 -21.833  0.00  0.00    -0.245 OA
ATOM     32  C   UNL     1      33.018 -16.111 -21.516  0.00  0.00    +0.343 C 
BRANCH  32  33
ATOM     33  O   UNL     1      31.941 -16.650 -20.902  0.00  0.00    -0.477 OA
ATOM     34  H   UNL     1      31.613 -17.483 -21.178  0.00  0.00    +0.295 HD
ENDBRANCH  32  33
ENDBRANCH  12  32
TORSDOF 5
ENDMDL
MODEL 9
REMARK VINA RESULT:      -8.2      2.629      4.223
REMARK  Name = 65947
REMARK  5 active torsions:
REMARK  status: ('A' for Active; 'I' for Inactive)
REMARK    1  A    between atoms: C_5  and  N_16
REMARK    2  A    between atoms: C_12  and  C_32
REMARK    3  A    between atoms: N_17  and  C_23
REMARK    4  A    between atoms: C_23  and  C_27
REMARK    5  A    between atoms: C_32  and  O_33
REMARK                            x       y       z     vdW  Elec       q    Type
REMARK                         _______ _______ _______ _____ _____    ______ ____
ROOT
ATOM      1  S   UNL     1      30.901  -9.964 -20.995  0.00  0.00    -0.074 S 
ATOM      2  F   UNL     1      34.917 -15.739 -24.368  0.00  0.00    -0.203 F 
ATOM      3  O   UNL     1      34.018 -10.786 -25.054  0.00  0.00    -0.286 OA
ATOM      4  N   UNL     1      31.980 -11.830 -21.774  0.00  0.00    -0.314 N 
ATOM      5  C   UNL     1      33.477 -15.139 -22.578  0.00  0.00    +0.077 C 
ATOM      6  C   UNL     1      32.703 -12.858 -22.386  0.00  0.00    +0.065 A 
ATOM      7  C   UNL     1      31.144 -11.726 -20.642  0.00  0.00    +0.139 C 
ATOM      8  C   UNL     1      31.944 -10.607 -22.208  0.00  0.00    +0.098 A 
ATOM      9  C   UNL     1      32.728 -14.168 -21.907  0.00  0.00    +0.034 C 
ATOM     10  C   UNL     1      33.437 -12.529 -23.548  0.00  0.00    +0.057 A 
ATOM     11  C   UNL     1      34.199 -14.805 -23.726  0.00  0.00    +0.154 C 
ATOM     12  C   UNL     1      32.575 -10.120 -23.286  0.00  0.00    +0.136 A 
ATOM     13  C   UNL     1      34.184 -13.499 -24.216  0.00  0.00    +0.036 C 
ATOM     14  C   UNL     1      33.398 -11.115 -24.050  0.00  0.00    +0.205 A 
ATOM     15  C   UNL     1      31.905 -11.926 -19.354  0.00  0.00    +0.037 C 
ENDROOT
BRANCH   5  16
ATOM     16  N   UNL     1      33.498 -16.452 -22.096  0.00  0.00    -0.310 N 
ATOM     17  N   UNL     1      33.752 -19.066 -20.973  0.00  0.00    +0.394 N 
ATOM     18  C   UNL     1      32.842 -16.772 -20.826  0.00  0.00    +0.068 C 
ATOM     19  C   UNL     1      34.649 -17.296 -22.447  0.00  0.00    +0.068 C 
ATOM     20  C   UNL     1      32.542 -18.270 -20.738  0.00  0.00    -0.055 C 
ATOM     21  C   UNL     1      34.288 -18.777 -22.308  0.00  0.00    -0.055 C 
ATOM     22  H   UNL     1      34.453 -18.813 -20.275  0.00  0.00    -0.079 HD
BRANCH  17  23
ATOM     23  C   UNL     1      33.464 -20.493 -20.834  0.00  0.00    -0.008 C 
BRANCH  23  27
ATOM     24  O   UNL     1      33.973 -21.912 -18.900  0.00  0.00    -0.397 OA
ATOM     25  O   UNL     1      36.264 -21.565 -18.680  0.00  0.00    -0.395 OA
ATOM     26  O   UNL     1      35.154 -22.961 -17.237  0.00  0.00    -0.202 OA
ATOM     27  C   UNL     1      34.448 -21.042 -19.862  0.00  0.00    +0.139 A 
ATOM     28  C   UNL     1      35.743 -20.846 -19.737  0.00  0.00    +0.158 A 
ATOM     29  C   UNL     1      36.683 -20.010 -20.522  0.00  0.00    +0.076 C 
ATOM     30  C   UNL     1      35.132 -22.203 -18.199  0.00  0.00    +0.521 A 
ENDBRANCH  23  27
ENDBRANCH  17  23
ENDBRANCH   5  16
BRANCH  12  32
ATOM     31  O   UNL     1      31.400  -8.195 -24.035  0.00  0.00    -0.245 OA
ATOM     32  C   UNL     1      32.435  -8.714 -23.644  0.00  0.00    +0.343 C 
BRANCH  32  33
ATOM     33  O   UNL     1      33.615  -8.077 -23.480  0.00  0.00    -0.477 OA
ATOM     34  H   UNL     1      34.052  -7.703 -24.219  0.00  0.00    +0.295 HD
ENDBRANCH  32  33
ENDBRANCH  12  32
TORSDOF 5
ENDMDL
