MODEL 1
REMARK VINA RESULT:      -9.3      0.000      0.000
REMARK  Name = 5464096
REMARK  10 active torsions:
REMARK  status: ('A' for Active; 'I' for Inactive)
REMARK    1  A    between atoms: N_1  and  CA_4
REMARK    2  A    between atoms: N_1  and  CA_20
REMARK    3  A    between atoms: CA_4  and  C_15
REMARK    4  A    between atoms: CA_13  and  C_17
REMARK    5  A    between atoms: C_17  and  O_18
REMARK    6  A    between atoms: CA_20  and  C_22
REMARK    7  A    between atoms: CA_20  and  C_25
REMARK    8  A    between atoms: C_22  and  O_23
REMARK    9  A    between atoms: C_25  and  C_26
REMARK   10  A    between atoms: C_26  and  C_27
REMARK                            x       y       z     vdW  Elec       q    Type
REMARK                         _______ _______ _______ _____ _____    ______ ____
ROOT
ATOM      1  N   UNL     1      34.264 -13.432 -22.662  0.00  0.00    +0.399 N 
ATOM      2  H1  UNL     1      34.406 -12.976 -21.761  0.00  0.00    -0.083 HD
ATOM      3  H2  UNL     1      35.108 -13.368 -23.233  0.00  0.00    -0.083 HD
ENDROOT
BRANCH   1   4
ATOM      4  CA  UNL     1      33.180 -12.770 -23.365  0.00  0.00    +0.018 C 
ATOM      5  CB  UNL     1      32.206 -13.779 -23.940  0.00  0.00    -0.014 C 
BRANCH   4  15
ATOM      6  O   UNL     1      32.039 -12.379 -21.316  0.00  0.00    -0.277 OA
ATOM      7  N   UNL     1      32.367 -10.549 -22.693  0.00  0.00    -0.275 N 
ATOM      8  C   UNL     1      31.517  -8.312 -22.664  0.00  0.00    +0.020 C 
ATOM      9  C   UNL     1      31.584  -9.628 -21.875  0.00  0.00    +0.076 C 
ATOM     10  C   UNL     1      32.013  -8.648 -24.067  0.00  0.00    +0.033 C 
ATOM     11  C   UNL     1      32.378  -7.321 -21.884  0.00  0.00    +0.002 C 
ATOM     12  C   UNL     1      32.248  -9.289 -20.535  0.00  0.00    +0.020 C 
ATOM     13  CA  UNL     1      32.861  -9.905 -23.905  0.00  0.00    +0.174 C 
ATOM     14  C   UNL     1      32.199  -7.770 -20.443  0.00  0.00    +0.002 C 
ATOM     15  C   UNL     1      32.478 -11.892 -22.360  0.00  0.00    +0.206 C 
BRANCH  13  17
ATOM     16  OXT UNL     1      34.736  -8.523 -23.255  0.00  0.00    -0.248 OA
ATOM     17  C   UNL     1      34.311  -9.570 -23.719  0.00  0.00    +0.332 C 
BRANCH  17  18
ATOM     18  O   UNL     1      35.096 -10.593 -24.139  0.00  0.00    -0.479 OA
ATOM     19  H   UNL     1      34.764 -11.470 -24.135  0.00  0.00    +0.295 HD
ENDBRANCH  17  18
ENDBRANCH  13  17
ENDBRANCH   4  15
ENDBRANCH   1   4
BRANCH   1  20
ATOM     20  CA  UNL     1      33.962 -14.841 -22.439  0.00  0.00    +0.041 C 
BRANCH  20  22
ATOM     21  OXT UNL     1      34.946 -15.293 -20.258  0.00  0.00    -0.253 OA
ATOM     22  C   UNL     1      33.953 -15.058 -20.936  0.00  0.00    +0.293 C 
BRANCH  22  23
ATOM     23  O   UNL     1      32.711 -14.939 -20.400  0.00  0.00    -0.482 OA
ATOM     24  H   UNL     1      32.610 -14.794 -19.480  0.00  0.00    +0.295 HD
ENDBRANCH  22  23
ENDBRANCH  20  22
BRANCH  20  25
ATOM     25  C   UNL     1      35.036 -15.703 -23.116  0.00  0.00    -0.006 C 
BRANCH  25  26
ATOM     26  C   UNL     1      34.591 -17.139 -23.436  0.00  0.00    +0.025 C 
BRANCH  26  27
ATOM     27  C   UNL     1      34.967 -18.159 -22.389  0.00  0.00    -0.022 C 
ATOM     28  C   UNL     1      33.986 -18.980 -21.833  0.00  0.00    -0.004 C 
ATOM     29  C   UNL     1      36.294 -18.281 -21.978  0.00  0.00    -0.004 C 
ATOM     30  C   UNL     1      34.333 -19.924 -20.866  0.00  0.00    -0.000 C 
ATOM     31  C   UNL     1      36.640 -19.224 -21.011  0.00  0.00    -0.000 C 
ATOM     32  C   UNL     1      35.659 -20.046 -20.454  0.00  0.00    -0.000 C 
ENDBRANCH  26  27
ENDBRANCH  25  26
ENDBRANCH  20  25
ENDBRANCH   1  20
TORSDOF 10
ENDMDL
MODEL 2
REMARK VINA RESULT:      -9.2      9.352     14.203
REMARK  Name = 5464096
REMARK  10 active torsions:
REMARK  status: ('A' for Active; 'I' for Inactive)
REMARK    1  A    between atoms: N_1  and  CA_4
REMARK    2  A    between atoms: N_1  and  CA_20
REMARK    3  A    between atoms: CA_4  and  C_15
REMARK    4  A    between atoms: CA_13  and  C_17
REMARK    5  A    between atoms: C_17  and  O_18
REMARK    6  A    between atoms: CA_20  and  C_22
REMARK    7  A    between atoms: CA_20  and  C_25
REMARK    8  A    between atoms: C_22  and  O_23
REMARK    9  A    between atoms: C_25  and  C_26
REMARK   10  A    between atoms: C_26  and  C_27
REMARK                            x       y       z     vdW  Elec       q    Type
REMARK                         _______ _______ _______ _____ _____    ______ ____
ROOT
ATOM      1  N   UNL     1      33.372 -24.303 -15.349  0.00  0.00    +0.399 N 
ATOM      2  H1  UNL     1      32.567 -24.656 -14.832  0.00  0.00    -0.083 HD
ATOM      3  H2  UNL     1      33.684 -24.987 -16.039  0.00  0.00    -0.083 HD
ENDROOT
BRANCH   1   4
ATOM      4  CA  UNL     1      34.462 -24.055 -14.421  0.00  0.00    +0.018 C 
ATOM      5  CB  UNL     1      34.029 -24.315 -12.992  0.00  0.00    -0.014 C 
BRANCH   4  15
ATOM      6  O   UNL     1      35.485 -25.691 -15.809  0.00  0.00    -0.277 OA
ATOM      7  N   UNL     1      36.680 -25.006 -13.950  0.00  0.00    -0.275 N 
ATOM      8  C   UNL     1      38.665 -25.824 -12.893  0.00  0.00    +0.020 C 
ATOM      9  C   UNL     1      37.759 -25.973 -14.125  0.00  0.00    +0.076 C 
ATOM     10  C   UNL     1      37.873 -24.979 -11.899  0.00  0.00    +0.033 C 
ATOM     11  C   UNL     1      39.957 -25.194 -13.407  0.00  0.00    +0.002 C 
ATOM     12  C   UNL     1      38.645 -25.681 -15.342  0.00  0.00    +0.020 C 
ATOM     13  CA  UNL     1      36.861 -24.209 -12.743  0.00  0.00    +0.174 C 
ATOM     14  C   UNL     1      40.073 -25.745 -14.817  0.00  0.00    +0.002 C 
ATOM     15  C   UNL     1      35.581 -24.992 -14.798  0.00  0.00    +0.206 C 
BRANCH  13  17
ATOM     16  OXT UNL     1      37.507 -22.453 -14.275  0.00  0.00    -0.248 OA
ATOM     17  C   UNL     1      37.383 -22.857 -13.128  0.00  0.00    +0.332 C 
BRANCH  17  18
ATOM     18  O   UNL     1      37.702 -22.135 -12.026  0.00  0.00    -0.479 OA
ATOM     19  H   UNL     1      38.393 -21.503 -12.064  0.00  0.00    +0.295 HD
ENDBRANCH  17  18
ENDBRANCH  13  17
ENDBRANCH   4  15
ENDBRANCH   1   4
BRANCH   1  20
ATOM     20  CA  UNL     1      32.989 -23.082 -16.047  0.00  0.00    +0.041 C 
BRANCH  20  22
ATOM     21  OXT UNL     1      31.045 -22.762 -14.617  0.00  0.00    -0.253 OA
ATOM     22  C   UNL     1      31.522 -22.840 -15.743  0.00  0.00    +0.293 C 
BRANCH  22  23
ATOM     23  O   UNL     1      30.775 -22.690 -16.867  0.00  0.00    -0.482 OA
ATOM     24  H   UNL     1      29.992 -22.175 -16.844  0.00  0.00    +0.295 HD
ENDBRANCH  22  23
ENDBRANCH  20  22
BRANCH  20  25
ATOM     25  C   UNL     1      33.219 -23.267 -17.554  0.00  0.00    -0.006 C 
BRANCH  25  26
ATOM     26  C   UNL     1      34.552 -22.704 -18.069  0.00  0.00    +0.025 C 
BRANCH  26  27
ATOM     27  C   UNL     1      34.413 -21.642 -19.133  0.00  0.00    -0.022 C 
ATOM     28  C   UNL     1      33.146 -21.206 -19.521  0.00  0.00    -0.004 C 
ATOM     29  C   UNL     1      35.551 -21.097 -19.728  0.00  0.00    -0.004 C 
ATOM     30  C   UNL     1      33.017 -20.225 -20.504  0.00  0.00    -0.000 C 
ATOM     31  C   UNL     1      35.421 -20.116 -20.711  0.00  0.00    -0.000 C 
ATOM     32  C   UNL     1      34.154 -19.680 -21.099  0.00  0.00    -0.000 C 
ENDBRANCH  26  27
ENDBRANCH  25  26
ENDBRANCH  20  25
ENDBRANCH   1  20
TORSDOF 10
ENDMDL
MODEL 3
REMARK VINA RESULT:      -9.1      8.614     14.142
REMARK  Name = 5464096
REMARK  10 active torsions:
REMARK  status: ('A' for Active; 'I' for Inactive)
REMARK    1  A    between atoms: N_1  and  CA_4
REMARK    2  A    between atoms: N_1  and  CA_20
REMARK    3  A    between atoms: CA_4  and  C_15
REMARK    4  A    between atoms: CA_13  and  C_17
REMARK    5  A    between atoms: C_17  and  O_18
REMARK    6  A    between atoms: CA_20  and  C_22
REMARK    7  A    between atoms: CA_20  and  C_25
REMARK    8  A    between atoms: C_22  and  O_23
REMARK    9  A    between atoms: C_25  and  C_26
REMARK   10  A    between atoms: C_26  and  C_27
REMARK                            x       y       z     vdW  Elec       q    Type
REMARK                         _______ _______ _______ _____ _____    ______ ____
ROOT
ATOM      1  N   UNL     1      34.564 -22.680 -15.038  0.00  0.00    +0.399 N 
ATOM      2  H1  UNL     1      35.294 -22.117 -14.602  0.00  0.00    -0.083 HD
ATOM      3  H2  UNL     1      33.693 -22.151 -15.101  0.00  0.00    -0.083 HD
ENDROOT
BRANCH   1   4
ATOM      4  CA  UNL     1      34.328 -23.863 -14.229  0.00  0.00    +0.018 C 
ATOM      5  CB  UNL     1      32.949 -24.435 -14.490  0.00  0.00    -0.014 C 
BRANCH   4  15
ATOM      6  O   UNL     1      35.281 -25.506 -15.659  0.00  0.00    -0.277 OA
ATOM      7  N   UNL     1      36.434 -25.021 -13.713  0.00  0.00    -0.275 N 
ATOM      8  C   UNL     1      38.291 -26.058 -12.615  0.00  0.00    +0.020 C 
ATOM      9  C   UNL     1      37.438 -26.065 -13.892  0.00  0.00    +0.076 C 
ATOM     10  C   UNL     1      37.523 -25.202 -11.612  0.00  0.00    +0.033 C 
ATOM     11  C   UNL     1      39.654 -25.513 -13.034  0.00  0.00    +0.002 C 
ATOM     12  C   UNL     1      38.404 -25.787 -15.051  0.00  0.00    +0.020 C 
ATOM     13  CA  UNL     1      36.621 -24.305 -12.456  0.00  0.00    +0.174 C 
ATOM     14  C   UNL     1      39.794 -26.000 -14.467  0.00  0.00    +0.002 C 
ATOM     15  C   UNL     1      35.383 -24.870 -14.607  0.00  0.00    +0.206 C 
BRANCH  13  17
ATOM     16  OXT UNL     1      37.634 -22.606 -13.845  0.00  0.00    -0.248 OA
ATOM     17  C   UNL     1      37.270 -22.985 -12.742  0.00  0.00    +0.332 C 
BRANCH  17  18
ATOM     18  O   UNL     1      37.401 -22.260 -11.603  0.00  0.00    -0.479 OA
ATOM     19  H   UNL     1      36.947 -21.445 -11.512  0.00  0.00    +0.295 HD
ENDBRANCH  17  18
ENDBRANCH  13  17
ENDBRANCH   4  15
ENDBRANCH   1   4
BRANCH   1  20
ATOM     20  CA  UNL     1      34.985 -23.042 -16.386  0.00  0.00    +0.041 C 
BRANCH  20  22
ATOM     21  OXT UNL     1      36.396 -21.109 -16.832  0.00  0.00    -0.253 OA
ATOM     22  C   UNL     1      36.292 -22.316 -16.651  0.00  0.00    +0.293 C 
BRANCH  22  23
ATOM     23  O   UNL     1      37.361 -23.151 -16.644  0.00  0.00    -0.482 OA
ATOM     24  H   UNL     1      38.165 -22.888 -17.049  0.00  0.00    +0.295 HD
ENDBRANCH  22  23
ENDBRANCH  20  22
BRANCH  20  25
ATOM     25  C   UNL     1      33.902 -22.615 -17.387  0.00  0.00    -0.006 C 
BRANCH  25  26
ATOM     26  C   UNL     1      34.306 -22.758 -18.862  0.00  0.00    +0.025 C 
BRANCH  26  27
ATOM     27  C   UNL     1      34.224 -21.480 -19.661  0.00  0.00    -0.022 C 
ATOM     28  C   UNL     1      32.983 -20.891 -19.907  0.00  0.00    -0.004 C 
ATOM     29  C   UNL     1      35.387 -20.887 -20.152  0.00  0.00    -0.004 C 
ATOM     30  C   UNL     1      32.906 -19.709 -20.645  0.00  0.00    -0.000 C 
ATOM     31  C   UNL     1      35.310 -19.706 -20.889  0.00  0.00    -0.000 C 
ATOM     32  C   UNL     1      34.069 -19.116 -21.135  0.00  0.00    -0.000 C 
ENDBRANCH  26  27
ENDBRANCH  25  26
ENDBRANCH  20  25
ENDBRANCH   1  20
TORSDOF 10
ENDMDL
MODEL 4
REMARK VINA RESULT:      -8.8      2.455      8.210
REMARK  Name = 5464096
REMARK  10 active torsions:
REMARK  status: ('A' for Active; 'I' for Inactive)
REMARK    1  A    between atoms: N_1  and  CA_4
REMARK    2  A    between atoms: N_1  and  CA_20
REMARK    3  A    between atoms: CA_4  and  C_15
REMARK    4  A    between atoms: CA_13  and  C_17
REMARK    5  A    between atoms: C_17  and  O_18
REMARK    6  A    between atoms: CA_20  and  C_22
REMARK    7  A    between atoms: CA_20  and  C_25
REMARK    8  A    between atoms: C_22  and  O_23
REMARK    9  A    between atoms: C_25  and  C_26
REMARK   10  A    between atoms: C_26  and  C_27
REMARK                            x       y       z     vdW  Elec       q    Type
REMARK                         _______ _______ _______ _____ _____    ______ ____
ROOT
ATOM      1  N   UNL     1      33.001 -14.982 -23.832  0.00  0.00    +0.399 N 
ATOM      2  H1  UNL     1      32.104 -15.466 -23.781  0.00  0.00    -0.083 HD
ATOM      3  H2  UNL     1      33.725 -15.606 -24.188  0.00  0.00    -0.083 HD
ENDROOT
BRANCH   1   4
ATOM      4  CA  UNL     1      33.382 -14.547 -22.500  0.00  0.00    +0.018 C 
ATOM      5  CB  UNL     1      32.505 -13.405 -22.028  0.00  0.00    -0.014 C 
BRANCH   4  15
ATOM      6  O   UNL     1      32.285 -15.768 -20.780  0.00  0.00    -0.277 OA
ATOM      7  N   UNL     1      34.161 -16.744 -21.718  0.00  0.00    -0.275 N 
ATOM      8  C   UNL     1      35.484 -18.646 -21.118  0.00  0.00    +0.020 C 
ATOM      9  C   UNL     1      34.196 -17.873 -20.795  0.00  0.00    +0.076 C 
ATOM     10  C   UNL     1      36.299 -17.726 -22.022  0.00  0.00    +0.033 C 
ATOM     11  C   UNL     1      35.028 -19.956 -21.756  0.00  0.00    +0.002 C 
ATOM     12  C   UNL     1      33.043 -18.863 -21.001  0.00  0.00    +0.020 C 
ATOM     13  CA  UNL     1      35.285 -16.773 -22.647  0.00  0.00    +0.174 C 
ATOM     14  C   UNL     1      33.703 -20.233 -21.065  0.00  0.00    +0.002 C 
ATOM     15  C   UNL     1      33.217 -15.735 -21.586  0.00  0.00    +0.206 C 
BRANCH  13  17
ATOM     16  OXT UNL     1      33.989 -18.171 -24.133  0.00  0.00    -0.248 OA
ATOM     17  C   UNL     1      34.804 -17.275 -23.975  0.00  0.00    +0.332 C 
BRANCH  17  18
ATOM     18  O   UNL     1      35.399 -16.596 -24.987  0.00  0.00    -0.479 OA
ATOM     19  H   UNL     1      35.343 -15.661 -25.019  0.00  0.00    +0.295 HD
ENDBRANCH  17  18
ENDBRANCH  13  17
ENDBRANCH   4  15
ENDBRANCH   1   4
BRANCH   1  20
ATOM     20  CA  UNL     1      32.879 -13.848 -24.740  0.00  0.00    +0.041 C 
BRANCH  20  22
ATOM     21  OXT UNL     1      33.665 -15.246 -26.573  0.00  0.00    -0.253 OA
ATOM     22  C   UNL     1      32.874 -14.410 -26.151  0.00  0.00    +0.293 C 
BRANCH  22  23
ATOM     23  O   UNL     1      31.869 -13.903 -26.909  0.00  0.00    -0.482 OA
ATOM     24  H   UNL     1      31.724 -12.978 -26.937  0.00  0.00    +0.295 HD
ENDBRANCH  22  23
ENDBRANCH  20  22
BRANCH  20  25
ATOM     25  C   UNL     1      34.065 -12.897 -24.527  0.00  0.00    -0.006 C 
BRANCH  25  26
ATOM     26  C   UNL     1      33.973 -11.579 -25.311  0.00  0.00    +0.025 C 
BRANCH  26  27
ATOM     27  C   UNL     1      33.905 -10.342 -24.450  0.00  0.00    -0.022 C 
ATOM     28  C   UNL     1      34.917  -9.384 -24.526  0.00  0.00    -0.004 C 
ATOM     29  C   UNL     1      32.833 -10.156 -23.577  0.00  0.00    -0.004 C 
ATOM     30  C   UNL     1      34.855  -8.240 -23.730  0.00  0.00    -0.000 C 
ATOM     31  C   UNL     1      32.772  -9.012 -22.782  0.00  0.00    -0.000 C 
ATOM     32  C   UNL     1      33.783  -8.054 -22.858  0.00  0.00    -0.000 C 
ENDBRANCH  26  27
ENDBRANCH  25  26
ENDBRANCH  20  25
ENDBRANCH   1  20
TORSDOF 10
ENDMDL
MODEL 5
REMARK VINA RESULT:      -8.7     11.976     15.026
REMARK  Name = 5464096
REMARK  10 active torsions:
REMARK  status: ('A' for Active; 'I' for Inactive)
REMARK    1  A    between atoms: N_1  and  CA_4
REMARK    2  A    between atoms: N_1  and  CA_20
REMARK    3  A    between atoms: CA_4  and  C_15
REMARK    4  A    between atoms: CA_13  and  C_17
REMARK    5  A    between atoms: C_17  and  O_18
REMARK    6  A    between atoms: CA_20  and  C_22
REMARK    7  A    between atoms: CA_20  and  C_25
REMARK    8  A    between atoms: C_22  and  O_23
REMARK    9  A    between atoms: C_25  and  C_26
REMARK   10  A    between atoms: C_26  and  C_27
REMARK                            x       y       z     vdW  Elec       q    Type
REMARK                         _______ _______ _______ _____ _____    ______ ____
ROOT
ATOM      1  N   UNL     1      34.030 -23.039 -14.892  0.00  0.00    +0.399 N 
ATOM      2  H1  UNL     1      34.674 -22.968 -15.680  0.00  0.00    -0.083 HD
ATOM      3  H2  UNL     1      33.988 -22.155 -14.383  0.00  0.00    -0.083 HD
ENDROOT
BRANCH   1   4
ATOM      4  CA  UNL     1      34.500 -24.071 -13.985  0.00  0.00    +0.018 C 
ATOM      5  CB  UNL     1      33.397 -25.059 -13.666  0.00  0.00    -0.014 C 
BRANCH   4  15
ATOM      6  O   UNL     1      35.534 -25.102 -15.861  0.00  0.00    -0.277 OA
ATOM      7  N   UNL     1      36.766 -25.022 -13.905  0.00  0.00    -0.275 N 
ATOM      8  C   UNL     1      38.815 -26.054 -13.223  0.00  0.00    +0.020 C 
ATOM      9  C   UNL     1      37.873 -25.825 -14.415  0.00  0.00    +0.076 C 
ATOM     10  C   UNL     1      38.027 -25.625 -11.988  0.00  0.00    +0.033 C 
ATOM     11  C   UNL     1      40.065 -25.230 -13.522  0.00  0.00    +0.002 C 
ATOM     12  C   UNL     1      38.706 -25.104 -15.482  0.00  0.00    +0.020 C 
ATOM     13  CA  UNL     1      36.960 -24.665 -12.504  0.00  0.00    +0.174 C 
ATOM     14  C   UNL     1      40.152 -25.274 -15.038  0.00  0.00    +0.002 C 
ATOM     15  C   UNL     1      35.639 -24.776 -14.677  0.00  0.00    +0.206 C 
BRANCH  13  17
ATOM     16  OXT UNL     1      37.682 -22.533 -13.388  0.00  0.00    -0.248 OA
ATOM     17  C   UNL     1      37.419 -23.240 -12.426  0.00  0.00    +0.332 C 
BRANCH  17  18
ATOM     18  O   UNL     1      37.504 -22.835 -11.135  0.00  0.00    -0.479 OA
ATOM     19  H   UNL     1      37.868 -21.996 -10.930  0.00  0.00    +0.295 HD
ENDBRANCH  17  18
ENDBRANCH  13  17
ENDBRANCH   4  15
ENDBRANCH   1   4
BRANCH   1  20
ATOM     20  CA  UNL     1      32.697 -23.348 -15.394  0.00  0.00    +0.041 C 
BRANCH  20  22
ATOM     21  OXT UNL     1      31.847 -22.531 -17.525  0.00  0.00    -0.253 OA
ATOM     22  C   UNL     1      32.723 -23.110 -16.894  0.00  0.00    +0.293 C 
BRANCH  22  23
ATOM     23  O   UNL     1      33.850 -23.591 -17.477  0.00  0.00    -0.482 OA
ATOM     24  H   UNL     1      33.892 -24.487 -17.748  0.00  0.00    +0.295 HD
ENDBRANCH  22  23
ENDBRANCH  20  22
BRANCH  20  25
ATOM     25  C   UNL     1      31.672 -22.436 -14.707  0.00  0.00    -0.006 C 
BRANCH  25  26
ATOM     26  C   UNL     1      30.372 -23.140 -14.288  0.00  0.00    +0.025 C 
BRANCH  26  27
ATOM     27  C   UNL     1      29.307 -23.174 -15.356  0.00  0.00    -0.022 C 
ATOM     28  C   UNL     1      29.169 -24.301 -16.167  0.00  0.00    -0.004 C 
ATOM     29  C   UNL     1      28.459 -22.081 -15.533  0.00  0.00    -0.004 C 
ATOM     30  C   UNL     1      28.184 -24.334 -17.155  0.00  0.00    -0.000 C 
ATOM     31  C   UNL     1      27.475 -22.114 -16.520  0.00  0.00    -0.000 C 
ATOM     32  C   UNL     1      27.338 -23.241 -17.331  0.00  0.00    -0.000 C 
ENDBRANCH  26  27
ENDBRANCH  25  26
ENDBRANCH  20  25
ENDBRANCH   1  20
TORSDOF 10
ENDMDL
MODEL 6
REMARK VINA RESULT:      -8.4      1.812      8.174
REMARK  Name = 5464096
REMARK  10 active torsions:
REMARK  status: ('A' for Active; 'I' for Inactive)
REMARK    1  A    between atoms: N_1  and  CA_4
REMARK    2  A    between atoms: N_1  and  CA_20
REMARK    3  A    between atoms: CA_4  and  C_15
REMARK    4  A    between atoms: CA_13  and  C_17
REMARK    5  A    between atoms: C_17  and  O_18
REMARK    6  A    between atoms: CA_20  and  C_22
REMARK    7  A    between atoms: CA_20  and  C_25
REMARK    8  A    between atoms: C_22  and  O_23
REMARK    9  A    between atoms: C_25  and  C_26
REMARK   10  A    between atoms: C_26  and  C_27
REMARK                            x       y       z     vdW  Elec       q    Type
REMARK                         _______ _______ _______ _____ _____    ______ ____
ROOT
ATOM      1  N   UNL     1      34.163 -14.376 -23.973  0.00  0.00    +0.399 N 
ATOM      2  H1  UNL     1      34.940 -14.136 -24.589  0.00  0.00    -0.083 HD
ATOM      3  H2  UNL     1      34.497 -14.532 -23.021  0.00  0.00    -0.083 HD
ENDROOT
BRANCH   1   4
ATOM      4  CA  UNL     1      33.538 -15.597 -24.449  0.00  0.00    +0.018 C 
ATOM      5  CB  UNL     1      33.154 -15.479 -25.910  0.00  0.00    -0.014 C 
BRANCH   4  15
ATOM      6  O   UNL     1      35.385 -16.923 -25.145  0.00  0.00    -0.277 OA
ATOM      7  N   UNL     1      34.455 -17.429 -23.088  0.00  0.00    -0.275 N 
ATOM      8  C   UNL     1      34.746 -19.256 -21.571  0.00  0.00    +0.020 C 
ATOM      9  C   UNL     1      35.275 -18.615 -22.862  0.00  0.00    +0.076 C 
ATOM     10  C   UNL     1      33.417 -18.564 -21.282  0.00  0.00    +0.033 C 
ATOM     11  C   UNL     1      35.839 -19.039 -20.527  0.00  0.00    +0.002 C 
ATOM     12  C   UNL     1      36.752 -18.292 -22.604  0.00  0.00    +0.020 C 
ATOM     13  CA  UNL     1      33.493 -17.226 -22.011  0.00  0.00    +0.174 C 
ATOM     14  C   UNL     1      37.115 -19.077 -21.351  0.00  0.00    +0.002 C 
ATOM     15  C   UNL     1      34.546 -16.704 -24.269  0.00  0.00    +0.206 C 
BRANCH  13  17
ATOM     16  OXT UNL     1      35.142 -15.718 -21.090  0.00  0.00    -0.248 OA
ATOM     17  C   UNL     1      33.995 -16.137 -21.111  0.00  0.00    +0.332 C 
BRANCH  17  18
ATOM     18  O   UNL     1      32.998 -15.676 -20.316  0.00  0.00    -0.479 OA
ATOM     19  H   UNL     1      32.413 -16.279 -19.902  0.00  0.00    +0.295 HD
ENDBRANCH  17  18
ENDBRANCH  13  17
ENDBRANCH   4  15
ENDBRANCH   1   4
BRANCH   1  20
ATOM     20  CA  UNL     1      33.212 -13.271 -23.955  0.00  0.00    +0.041 C 
BRANCH  20  22
ATOM     21  OXT UNL     1      33.784 -11.892 -25.878  0.00  0.00    -0.253 OA
ATOM     22  C   UNL     1      33.871 -12.109 -24.676  0.00  0.00    +0.293 C 
BRANCH  22  23
ATOM     23  O   UNL     1      34.562 -11.299 -23.833  0.00  0.00    -0.482 OA
ATOM     24  H   UNL     1      35.257 -10.764 -24.163  0.00  0.00    +0.295 HD
ENDBRANCH  22  23
ENDBRANCH  20  22
BRANCH  20  25
ATOM     25  C   UNL     1      32.885 -12.907 -22.500  0.00  0.00    -0.006 C 
BRANCH  25  26
ATOM     26  C   UNL     1      31.589 -12.103 -22.320  0.00  0.00    +0.025 C 
BRANCH  26  27
ATOM     27  C   UNL     1      31.696 -10.950 -21.352  0.00  0.00    -0.022 C 
ATOM     28  C   UNL     1      32.007  -9.673 -21.821  0.00  0.00    -0.004 C 
ATOM     29  C   UNL     1      31.485 -11.160 -19.989  0.00  0.00    -0.004 C 
ATOM     30  C   UNL     1      32.106  -8.607 -20.927  0.00  0.00    -0.000 C 
ATOM     31  C   UNL     1      31.585 -10.094 -19.096  0.00  0.00    -0.000 C 
ATOM     32  C   UNL     1      31.895  -8.817 -19.565  0.00  0.00    -0.000 C 
ENDBRANCH  26  27
ENDBRANCH  25  26
ENDBRANCH  20  25
ENDBRANCH   1  20
TORSDOF 10
ENDMDL
MODEL 7
REMARK VINA RESULT:      -8.4      2.139      8.530
REMARK  Name = 5464096
REMARK  10 active torsions:
REMARK  status: ('A' for Active; 'I' for Inactive)
REMARK    1  A    between atoms: N_1  and  CA_4
REMARK    2  A    between atoms: N_1  and  CA_20
REMARK    3  A    between atoms: CA_4  and  C_15
REMARK    4  A    between atoms: CA_13  and  C_17
REMARK    5  A    between atoms: C_17  and  O_18
REMARK    6  A    between atoms: CA_20  and  C_22
REMARK    7  A    between atoms: CA_20  and  C_25
REMARK    8  A    between atoms: C_22  and  O_23
REMARK    9  A    between atoms: C_25  and  C_26
REMARK   10  A    between atoms: C_26  and  C_27
REMARK                            x       y       z     vdW  Elec       q    Type
REMARK                         _______ _______ _______ _____ _____    ______ ____
ROOT
ATOM      1  N   UNL     1      32.203 -13.982 -22.961  0.00  0.00    +0.399 N 
ATOM      2  H1  UNL     1      31.570 -14.357 -22.254  0.00  0.00    -0.083 HD
ATOM      3  H2  UNL     1      31.723 -13.885 -23.856  0.00  0.00    -0.083 HD
ENDROOT
BRANCH   1   4
ATOM      4  CA  UNL     1      33.319 -14.895 -23.132  0.00  0.00    +0.018 C 
ATOM      5  CB  UNL     1      34.641 -14.156 -23.078  0.00  0.00    -0.014 C 
BRANCH   4  15
ATOM      6  O   UNL     1      32.385 -15.774 -21.131  0.00  0.00    -0.277 OA
ATOM      7  N   UNL     1      34.178 -16.922 -22.036  0.00  0.00    -0.275 N 
ATOM      8  C   UNL     1      35.561 -18.696 -21.219  0.00  0.00    +0.020 C 
ATOM      9  C   UNL     1      34.302 -17.865 -20.930  0.00  0.00    +0.076 C 
ATOM     10  C   UNL     1      36.288 -17.962 -22.343  0.00  0.00    +0.033 C 
ATOM     11  C   UNL     1      35.060 -20.095 -21.567  0.00  0.00    +0.002 C 
ATOM     12  C   UNL     1      33.141 -18.865 -20.852  0.00  0.00    +0.020 C 
ATOM     13  CA  UNL     1      35.217 -17.128 -23.039  0.00  0.00    +0.174 C 
ATOM     14  C   UNL     1      33.803 -20.230 -20.724  0.00  0.00    +0.002 C 
ATOM     15  C   UNL     1      33.242 -15.896 -22.008  0.00  0.00    +0.206 C 
BRANCH  13  17
ATOM     16  OXT UNL     1      34.146 -18.982 -24.163  0.00  0.00    -0.248 OA
ATOM     17  C   UNL     1      34.624 -17.858 -24.207  0.00  0.00    +0.332 C 
BRANCH  17  18
ATOM     18  O   UNL     1      34.691 -17.100 -25.329  0.00  0.00    -0.479 OA
ATOM     19  H   UNL     1      34.920 -17.494 -26.148  0.00  0.00    +0.295 HD
ENDBRANCH  17  18
ENDBRANCH  13  17
ENDBRANCH   4  15
ENDBRANCH   1   4
BRANCH   1  20
ATOM     20  CA  UNL     1      32.662 -12.665 -22.536  0.00  0.00    +0.041 C 
BRANCH  20  22
ATOM     21  OXT UNL     1      31.956 -12.373 -20.224  0.00  0.00    -0.253 OA
ATOM     22  C   UNL     1      31.738 -12.214 -21.419  0.00  0.00    +0.293 C 
BRANCH  22  23
ATOM     23  O   UNL     1      30.632 -11.579 -21.884  0.00  0.00    -0.482 OA
ATOM     24  H   UNL     1      30.668 -10.665 -22.089  0.00  0.00    +0.295 HD
ENDBRANCH  22  23
ENDBRANCH  20  22
BRANCH  20  25
ATOM     25  C   UNL     1      32.603 -11.699 -23.727  0.00  0.00    -0.006 C 
BRANCH  25  26
ATOM     26  C   UNL     1      33.869 -10.850 -23.923  0.00  0.00    +0.025 C 
BRANCH  26  27
ATOM     27  C   UNL     1      33.638  -9.360 -23.866  0.00  0.00    -0.022 C 
ATOM     28  C   UNL     1      32.363  -8.862 -23.595  0.00  0.00    -0.004 C 
ATOM     29  C   UNL     1      34.698  -8.480 -24.085  0.00  0.00    -0.004 C 
ATOM     30  C   UNL     1      32.149  -7.485 -23.542  0.00  0.00    -0.000 C 
ATOM     31  C   UNL     1      34.483  -7.103 -24.032  0.00  0.00    -0.000 C 
ATOM     32  C   UNL     1      33.208  -6.605 -23.761  0.00  0.00    -0.000 C 
ENDBRANCH  26  27
ENDBRANCH  25  26
ENDBRANCH  20  25
ENDBRANCH   1  20
TORSDOF 10
ENDMDL
MODEL 8
REMARK VINA RESULT:      -8.3      1.318      1.871
REMARK  Name = 5464096
REMARK  10 active torsions:
REMARK  status: ('A' for Active; 'I' for Inactive)
REMARK    1  A    between atoms: N_1  and  CA_4
REMARK    2  A    between atoms: N_1  and  CA_20
REMARK    3  A    between atoms: CA_4  and  C_15
REMARK    4  A    between atoms: CA_13  and  C_17
REMARK    5  A    between atoms: C_17  and  O_18
REMARK    6  A    between atoms: CA_20  and  C_22
REMARK    7  A    between atoms: CA_20  and  C_25
REMARK    8  A    between atoms: C_22  and  O_23
REMARK    9  A    between atoms: C_25  and  C_26
REMARK   10  A    between atoms: C_26  and  C_27
REMARK                            x       y       z     vdW  Elec       q    Type
REMARK                         _______ _______ _______ _____ _____    ______ ____
ROOT
ATOM      1  N   UNL     1      33.119 -13.957 -22.791  0.00  0.00    +0.399 N 
ATOM      2  H1  UNL     1      32.534 -14.509 -23.419  0.00  0.00    -0.083 HD
ATOM      3  H2  UNL     1      32.707 -13.919 -21.858  0.00  0.00    -0.083 HD
ENDROOT
BRANCH   1   4
ATOM      4  CA  UNL     1      33.225 -12.603 -23.306  0.00  0.00    +0.018 C 
ATOM      5  CB  UNL     1      32.600 -12.493 -24.682  0.00  0.00    -0.014 C 
BRANCH   4  15
ATOM      6  O   UNL     1      32.018 -12.179 -21.301  0.00  0.00    -0.277 OA
ATOM      7  N   UNL     1      32.404 -10.369 -22.690  0.00  0.00    -0.275 N 
ATOM      8  C   UNL     1      31.567  -8.127 -22.718  0.00  0.00    +0.020 C 
ATOM      9  C   UNL     1      31.599  -9.433 -21.911  0.00  0.00    +0.076 C 
ATOM     10  C   UNL     1      32.108  -8.484 -24.100  0.00  0.00    +0.033 C 
ATOM     11  C   UNL     1      32.408  -7.131 -21.923  0.00  0.00    +0.002 C 
ATOM     12  C   UNL     1      32.221  -9.080 -20.554  0.00  0.00    +0.020 C 
ATOM     13  CA  UNL     1      32.942  -9.745 -23.892  0.00  0.00    +0.174 C 
ATOM     14  C   UNL     1      32.178  -7.560 -20.483  0.00  0.00    +0.002 C 
ATOM     15  C   UNL     1      32.495 -11.708 -22.336  0.00  0.00    +0.206 C 
BRANCH  13  17
ATOM     16  OXT UNL     1      34.801  -8.376 -23.173  0.00  0.00    -0.248 OA
ATOM     17  C   UNL     1      34.387  -9.416 -23.663  0.00  0.00    +0.332 C 
BRANCH  17  18
ATOM     18  O   UNL     1      35.181 -10.435 -24.075  0.00  0.00    -0.479 OA
ATOM     19  H   UNL     1      35.502 -11.059 -23.454  0.00  0.00    +0.295 HD
ENDBRANCH  17  18
ENDBRANCH  13  17
ENDBRANCH   4  15
ENDBRANCH   1   4
BRANCH   1  20
ATOM     20  CA  UNL     1      34.431 -14.585 -22.692  0.00  0.00    +0.041 C 
BRANCH  20  22
ATOM     21  OXT UNL     1      33.669 -15.760 -24.683  0.00  0.00    -0.253 OA
ATOM     22  C   UNL     1      34.549 -15.551 -23.858  0.00  0.00    +0.293 C 
BRANCH  22  23
ATOM     23  O   UNL     1      35.764 -16.155 -23.912  0.00  0.00    -0.482 OA
ATOM     24  H   UNL     1      36.464 -15.849 -23.370  0.00  0.00    +0.295 HD
ENDBRANCH  22  23
ENDBRANCH  20  22
BRANCH  20  25
ATOM     25  C   UNL     1      34.540 -15.322 -21.350  0.00  0.00    -0.006 C 
BRANCH  25  26
ATOM     26  C   UNL     1      33.541 -16.476 -21.174  0.00  0.00    +0.025 C 
BRANCH  26  27
ATOM     27  C   UNL     1      34.178 -17.836 -21.013  0.00  0.00    -0.022 C 
ATOM     28  C   UNL     1      35.566 -17.965 -21.063  0.00  0.00    -0.004 C 
ATOM     29  C   UNL     1      33.379 -18.962 -20.813  0.00  0.00    -0.004 C 
ATOM     30  C   UNL     1      36.155 -19.221 -20.913  0.00  0.00    -0.000 C 
ATOM     31  C   UNL     1      33.969 -20.217 -20.664  0.00  0.00    -0.000 C 
ATOM     32  C   UNL     1      35.357 -20.346 -20.714  0.00  0.00    -0.000 C 
ENDBRANCH  26  27
ENDBRANCH  25  26
ENDBRANCH  20  25
ENDBRANCH   1  20
TORSDOF 10
ENDMDL
MODEL 9
REMARK VINA RESULT:      -8.2      1.719      8.161
REMARK  Name = 5464096
REMARK  10 active torsions:
REMARK  status: ('A' for Active; 'I' for Inactive)
REMARK    1  A    between atoms: N_1  and  CA_4
REMARK    2  A    between atoms: N_1  and  CA_20
REMARK    3  A    between atoms: CA_4  and  C_15
REMARK    4  A    between atoms: CA_13  and  C_17
REMARK    5  A    between atoms: C_17  and  O_18
REMARK    6  A    between atoms: CA_20  and  C_22
REMARK    7  A    between atoms: CA_20  and  C_25
REMARK    8  A    between atoms: C_22  and  O_23
REMARK    9  A    between atoms: C_25  and  C_26
REMARK   10  A    between atoms: C_26  and  C_27
REMARK                            x       y       z     vdW  Elec       q    Type
REMARK                         _______ _______ _______ _____ _____    ______ ____
ROOT
ATOM      1  N   UNL     1      34.162 -13.038 -24.328  0.00  0.00    +0.399 N 
ATOM      2  H1  UNL     1      35.019 -13.194 -24.860  0.00  0.00    -0.083 HD
ATOM      3  H2  UNL     1      34.347 -13.094 -23.326  0.00  0.00    -0.083 HD
ENDROOT
BRANCH   1   4
ATOM      4  CA  UNL     1      33.193 -14.063 -24.677  0.00  0.00    +0.018 C 
ATOM      5  CB  UNL     1      32.675 -13.865 -26.086  0.00  0.00    -0.014 C 
BRANCH   4  15
ATOM      6  O   UNL     1      34.495 -15.852 -25.546  0.00  0.00    -0.277 OA
ATOM      7  N   UNL     1      33.831 -16.023 -23.337  0.00  0.00    -0.275 N 
ATOM      8  C   UNL     1      33.901 -17.810 -21.745  0.00  0.00    +0.020 C 
ATOM      9  C   UNL     1      34.348 -17.375 -23.149  0.00  0.00    +0.076 C 
ATOM     10  C   UNL     1      32.861 -16.782 -21.309  0.00  0.00    +0.033 C 
ATOM     11  C   UNL     1      35.173 -17.853 -20.903  0.00  0.00    +0.002 C 
ATOM     12  C   UNL     1      35.880 -17.446 -23.149  0.00  0.00    +0.020 C 
ATOM     13  CA  UNL     1      33.150 -15.537 -22.142  0.00  0.00    +0.174 C 
ATOM     14  C   UNL     1      36.238 -18.255 -21.910  0.00  0.00    +0.002 C 
ATOM     15  C   UNL     1      33.902 -15.390 -24.570  0.00  0.00    +0.206 C 
BRANCH  13  17
ATOM     16  OXT UNL     1      35.239 -14.412 -21.678  0.00  0.00    -0.248 OA
ATOM     17  C   UNL     1      34.058 -14.589 -21.419  0.00  0.00    +0.332 C 
BRANCH  17  18
ATOM     18  O   UNL     1      33.390 -13.948 -20.428  0.00  0.00    -0.479 OA
ATOM     19  H   UNL     1      32.475 -14.109 -20.300  0.00  0.00    +0.295 HD
ENDBRANCH  17  18
ENDBRANCH  13  17
ENDBRANCH   4  15
ENDBRANCH   1   4
BRANCH   1  20
ATOM     20  CA  UNL     1      33.651 -11.707 -24.631  0.00  0.00    +0.041 C 
BRANCH  20  22
ATOM     21  OXT UNL     1      35.179 -10.825 -26.309  0.00  0.00    -0.253 OA
ATOM     22  C   UNL     1      34.824 -10.888 -25.139  0.00  0.00    +0.293 C 
BRANCH  22  23
ATOM     23  O   UNL     1      35.442 -10.195 -24.148  0.00  0.00    -0.482 OA
ATOM     24  H   UNL     1      34.939  -9.650 -23.574  0.00  0.00    +0.295 HD
ENDBRANCH  22  23
ENDBRANCH  20  22
BRANCH  20  25
ATOM     25  C   UNL     1      33.055 -11.091 -23.358  0.00  0.00    -0.006 C 
BRANCH  25  26
ATOM     26  C   UNL     1      32.209  -9.831 -23.596  0.00  0.00    +0.025 C 
BRANCH  26  27
ATOM     27  C   UNL     1      32.228  -8.840 -22.457  0.00  0.00    -0.022 C 
ATOM     28  C   UNL     1      32.166  -9.293 -21.139  0.00  0.00    -0.004 C 
ATOM     29  C   UNL     1      32.308  -7.473 -22.722  0.00  0.00    -0.004 C 
ATOM     30  C   UNL     1      32.184  -8.378 -20.086  0.00  0.00    -0.000 C 
ATOM     31  C   UNL     1      32.327  -6.559 -21.669  0.00  0.00    -0.000 C 
ATOM     32  C   UNL     1      32.264  -7.011 -20.351  0.00  0.00    -0.000 C 
ENDBRANCH  26  27
ENDBRANCH  25  26
ENDBRANCH  20  25
ENDBRANCH   1  20
TORSDOF 10
ENDMDL
