MODEL 1
REMARK VINA RESULT:     -12.2      0.000      0.000
REMARK  Name = 59472121
REMARK  7 active torsions:
REMARK  status: ('A' for Active; 'I' for Inactive)
REMARK    1  A    between atoms: C_4  and  C_13
REMARK    2  A    between atoms: C_5  and  C_24
REMARK    3  A    between atoms: C_10  and  S_16
REMARK    4  A    between atoms: S_16  and  C_19
REMARK    5  A    between atoms: C_25  and  C_27
REMARK    6  A    between atoms: C_28  and  C_33
REMARK    7  A    between atoms: C_33  and  N_34
REMARK                            x       y       z     vdW  Elec       q    Type
REMARK                         _______ _______ _______ _____ _____    ______ ____
ROOT
ATOM      1  N   UNL     1      33.901 -15.364 -23.397  0.00  0.00    -0.398 NA
ATOM      2  N   UNL     1      34.001 -16.101 -26.102  0.00  0.00    -0.247 NA
ATOM      3  N   UNL     1      34.579 -18.312 -25.461  0.00  0.00    -0.341 N 
ATOM      4  C   UNL     1      33.647 -14.485 -24.387  0.00  0.00    +0.134 C 
ATOM      5  C   UNL     1      34.205 -16.618 -23.785  0.00  0.00    +0.198 C 
ATOM      6  C   UNL     1      33.696 -14.847 -25.715  0.00  0.00    +0.185 C 
ATOM      7  C   UNL     1      34.254 -16.981 -25.113  0.00  0.00    +0.154 C 
ATOM      8  H   UNL     1      34.616 -18.578 -26.408  0.00  0.00    +0.144 HD
ATOM      9  H   UNL     1      34.769 -18.973 -24.757  0.00  0.00    +0.144 HD
ENDROOT
BRANCH   4  13
ATOM     10  C   UNL     1      32.690 -10.543 -23.163  0.00  0.00    +0.106 C 
ATOM     11  C   UNL     1      32.141 -11.635 -22.491  0.00  0.00    +0.018 C 
ATOM     12  C   UNL     1      33.555 -10.748 -24.239  0.00  0.00    +0.018 C 
ATOM     13  C   UNL     1      33.321 -13.138 -23.969  0.00  0.00    +0.027 C 
ATOM     14  C   UNL     1      32.457 -12.933 -22.893  0.00  0.00    +0.004 C 
ATOM     15  C   UNL     1      33.870 -12.046 -24.641  0.00  0.00    +0.004 C 
BRANCH  10  16
ATOM     16  S   UNL     1      32.291  -8.900 -22.653  0.00  0.00    +0.007 S 
ATOM     17  O   UNL     1      30.897  -8.655 -22.971  0.00  0.00    -0.169 OA
ATOM     18  O   UNL     1      32.777  -8.742 -21.297  0.00  0.00    -0.169 OA
BRANCH  16  19
ATOM     19  C   UNL     1      33.269  -7.877 -23.722  0.00  0.00    +0.134 C 
ATOM     20  C   UNL     1      32.538  -6.577 -24.020  0.00  0.00    +0.026 C 
ATOM     21  C   UNL     1      34.633  -7.618 -23.100  0.00  0.00    +0.026 C 
ENDBRANCH  16  19
ENDBRANCH  10  16
ENDBRANCH   4  13
BRANCH   5  24
ATOM     22  O   UNL     1      35.528 -17.206 -21.909  0.00  0.00    -0.351 OA
ATOM     23  N   UNL     1      35.661 -18.162 -20.910  0.00  0.00    -0.077 NA
ATOM     24  C   UNL     1      34.468 -17.524 -22.696  0.00  0.00    +0.209 C 
ATOM     25  C   UNL     1      34.670 -19.032 -21.130  0.00  0.00    +0.123 C 
ATOM     26  C   UNL     1      33.887 -18.679 -22.242  0.00  0.00    +0.065 C 
BRANCH  25  27
ATOM     27  C   UNL     1      34.493 -20.175 -20.274  0.00  0.00    +0.021 C 
ATOM     28  C   UNL     1      34.152 -22.392 -18.616  0.00  0.00    -0.044 C 
ATOM     29  C   UNL     1      35.607 -20.832 -19.751  0.00  0.00    +0.001 C 
ATOM     30  C   UNL     1      33.209 -20.625 -19.968  0.00  0.00    +0.001 C 
ATOM     31  C   UNL     1      35.436 -21.941 -18.923  0.00  0.00    -0.006 C 
ATOM     32  C   UNL     1      33.039 -21.733 -19.139  0.00  0.00    -0.006 C 
BRANCH  28  33
ATOM     33  C   UNL     1      33.969 -23.578 -17.730  0.00  0.00    -0.054 C 
BRANCH  33  34
ATOM     34  N   UNL     1      33.446 -23.213 -16.413  0.00  0.00    +0.385 N 
ATOM     35  C   UNL     1      34.518 -23.153 -15.432  0.00  0.00    -0.105 C 
ATOM     36  H   UNL     1      32.761 -23.911 -16.118  0.00  0.00    -0.084 HD
ATOM     37  H   UNL     1      33.007 -22.294 -16.476  0.00  0.00    -0.084 HD
ENDBRANCH  33  34
ENDBRANCH  28  33
ENDBRANCH  25  27
ENDBRANCH   5  24
TORSDOF 7
ENDMDL
MODEL 2
REMARK VINA RESULT:     -11.8      1.103      1.818
REMARK  Name = 59472121
REMARK  7 active torsions:
REMARK  status: ('A' for Active; 'I' for Inactive)
REMARK    1  A    between atoms: C_4  and  C_13
REMARK    2  A    between atoms: C_5  and  C_24
REMARK    3  A    between atoms: C_10  and  S_16
REMARK    4  A    between atoms: S_16  and  C_19
REMARK    5  A    between atoms: C_25  and  C_27
REMARK    6  A    between atoms: C_28  and  C_33
REMARK    7  A    between atoms: C_33  and  N_34
REMARK                            x       y       z     vdW  Elec       q    Type
REMARK                         _______ _______ _______ _____ _____    ______ ____
ROOT
ATOM      1  N   UNL     1      33.920 -15.429 -23.337  0.00  0.00    -0.398 NA
ATOM      2  N   UNL     1      34.014 -16.136 -26.050  0.00  0.00    -0.247 NA
ATOM      3  N   UNL     1      34.618 -18.347 -25.435  0.00  0.00    -0.341 N 
ATOM      4  C   UNL     1      33.652 -14.542 -24.317  0.00  0.00    +0.134 C 
ATOM      5  C   UNL     1      34.235 -16.675 -23.739  0.00  0.00    +0.198 C 
ATOM      6  C   UNL     1      33.699 -14.889 -25.649  0.00  0.00    +0.185 C 
ATOM      7  C   UNL     1      34.281 -17.024 -25.071  0.00  0.00    +0.154 C 
ATOM      8  H   UNL     1      34.654 -18.603 -26.386  0.00  0.00    +0.144 HD
ATOM      9  H   UNL     1      34.818 -19.014 -24.739  0.00  0.00    +0.144 HD
ENDROOT
BRANCH   4  13
ATOM     10  C   UNL     1      32.663 -10.623 -23.046  0.00  0.00    +0.106 C 
ATOM     11  C   UNL     1      33.600 -10.811 -24.062  0.00  0.00    +0.018 C 
ATOM     12  C   UNL     1      32.052 -11.725 -22.447  0.00  0.00    +0.018 C 
ATOM     13  C   UNL     1      33.314 -13.203 -23.882  0.00  0.00    +0.027 C 
ATOM     14  C   UNL     1      33.925 -12.101 -24.481  0.00  0.00    +0.004 C 
ATOM     15  C   UNL     1      32.378 -13.015 -22.866  0.00  0.00    +0.004 C 
BRANCH  10  16
ATOM     16  S   UNL     1      32.251  -8.989 -22.515  0.00  0.00    +0.007 S 
ATOM     17  O   UNL     1      33.212  -8.070 -23.094  0.00  0.00    -0.169 OA
ATOM     18  O   UNL     1      30.831  -8.811 -22.742  0.00  0.00    -0.169 OA
BRANCH  16  19
ATOM     19  C   UNL     1      32.539  -9.029 -20.766  0.00  0.00    +0.134 C 
ATOM     20  C   UNL     1      32.632  -7.613 -20.215  0.00  0.00    +0.026 C 
ATOM     21  C   UNL     1      31.446  -9.825 -20.070  0.00  0.00    +0.026 C 
ENDBRANCH  16  19
ENDBRANCH  10  16
ENDBRANCH   4  13
BRANCH   5  24
ATOM     22  O   UNL     1      35.629 -17.322 -21.936  0.00  0.00    -0.351 OA
ATOM     23  N   UNL     1      35.769 -18.281 -20.940  0.00  0.00    -0.077 NA
ATOM     24  C   UNL     1      34.513 -17.590 -22.662  0.00  0.00    +0.209 C 
ATOM     25  C   UNL     1      34.726 -19.101 -21.100  0.00  0.00    +0.123 C 
ATOM     26  C   UNL     1      33.902 -18.713 -22.170  0.00  0.00    +0.065 C 
BRANCH  25  27
ATOM     27  C   UNL     1      34.540 -20.231 -20.230  0.00  0.00    +0.021 C 
ATOM     28  C   UNL     1      34.177 -22.422 -18.542  0.00  0.00    -0.044 C 
ATOM     29  C   UNL     1      33.252 -20.673 -19.927  0.00  0.00    +0.001 C 
ATOM     30  C   UNL     1      35.647 -20.886 -19.689  0.00  0.00    +0.001 C 
ATOM     31  C   UNL     1      33.070 -21.768 -19.083  0.00  0.00    -0.006 C 
ATOM     32  C   UNL     1      35.465 -21.981 -18.845  0.00  0.00    -0.006 C 
BRANCH  28  33
ATOM     33  C   UNL     1      33.983 -23.593 -17.638  0.00  0.00    -0.054 C 
BRANCH  33  34
ATOM     34  N   UNL     1      33.588 -23.194 -16.287  0.00  0.00    +0.385 N 
ATOM     35  C   UNL     1      34.721 -23.270 -15.378  0.00  0.00    -0.105 C 
ATOM     36  H   UNL     1      32.850 -23.817 -15.955  0.00  0.00    -0.084 HD
ATOM     37  H   UNL     1      33.252 -22.231 -16.313  0.00  0.00    -0.084 HD
ENDBRANCH  33  34
ENDBRANCH  28  33
ENDBRANCH  25  27
ENDBRANCH   5  24
TORSDOF 7
ENDMDL
MODEL 3
REMARK VINA RESULT:     -11.7      0.797      1.199
REMARK  Name = 59472121
REMARK  7 active torsions:
REMARK  status: ('A' for Active; 'I' for Inactive)
REMARK    1  A    between atoms: C_4  and  C_13
REMARK    2  A    between atoms: C_5  and  C_24
REMARK    3  A    between atoms: C_10  and  S_16
REMARK    4  A    between atoms: S_16  and  C_19
REMARK    5  A    between atoms: C_25  and  C_27
REMARK    6  A    between atoms: C_28  and  C_33
REMARK    7  A    between atoms: C_33  and  N_34
REMARK                            x       y       z     vdW  Elec       q    Type
REMARK                         _______ _______ _______ _____ _____    ______ ____
ROOT
ATOM      1  N   UNL     1      33.880 -14.803 -23.478  0.00  0.00    -0.398 NA
ATOM      2  N   UNL     1      33.830 -15.508 -26.192  0.00  0.00    -0.247 NA
ATOM      3  N   UNL     1      34.284 -17.761 -25.597  0.00  0.00    -0.341 N 
ATOM      4  C   UNL     1      33.650 -13.895 -24.447  0.00  0.00    +0.134 C 
ATOM      5  C   UNL     1      34.086 -16.069 -23.890  0.00  0.00    +0.198 C 
ATOM      6  C   UNL     1      33.625 -14.242 -25.780  0.00  0.00    +0.185 C 
ATOM      7  C   UNL     1      34.061 -16.416 -25.222  0.00  0.00    +0.154 C 
ATOM      8  H   UNL     1      34.268 -18.016 -26.548  0.00  0.00    +0.144 HD
ATOM      9  H   UNL     1      34.455 -18.442 -24.908  0.00  0.00    +0.144 HD
ENDROOT
BRANCH   4  13
ATOM     10  C   UNL     1      33.006  -9.915 -23.145  0.00  0.00    +0.106 C 
ATOM     11  C   UNL     1      33.891 -10.172 -24.191  0.00  0.00    +0.018 C 
ATOM     12  C   UNL     1      32.332 -10.969 -22.526  0.00  0.00    +0.018 C 
ATOM     13  C   UNL     1      33.429 -12.535 -24.002  0.00  0.00    +0.027 C 
ATOM     14  C   UNL     1      34.103 -11.483 -24.620  0.00  0.00    +0.004 C 
ATOM     15  C   UNL     1      32.543 -12.279 -22.956  0.00  0.00    +0.004 C 
BRANCH  10  16
ATOM     16  S   UNL     1      32.738  -8.256 -22.600  0.00  0.00    +0.007 S 
ATOM     17  O   UNL     1      31.588  -8.251 -21.718  0.00  0.00    -0.169 OA
ATOM     18  O   UNL     1      34.016  -7.742 -22.150  0.00  0.00    -0.169 OA
BRANCH  16  19
ATOM     19  C   UNL     1      32.277  -7.396 -24.081  0.00  0.00    +0.134 C 
ATOM     20  C   UNL     1      30.964  -6.656 -23.873  0.00  0.00    +0.026 C 
ATOM     21  C   UNL     1      33.388  -6.448 -24.507  0.00  0.00    +0.026 C 
ENDBRANCH  16  19
ENDBRANCH  10  16
ENDBRANCH   4  13
BRANCH   5  24
ATOM     22  O   UNL     1      35.216 -16.601 -21.877  0.00  0.00    -0.351 OA
ATOM     23  N   UNL     1      35.349 -17.599 -20.919  0.00  0.00    -0.077 NA
ATOM     24  C   UNL     1      34.329 -17.005 -22.822  0.00  0.00    +0.209 C 
ATOM     25  C   UNL     1      34.534 -18.577 -21.321  0.00  0.00    +0.123 C 
ATOM     26  C   UNL     1      33.865 -18.256 -22.515  0.00  0.00    +0.065 C 
BRANCH  25  27
ATOM     27  C   UNL     1      34.410 -19.791 -20.559  0.00  0.00    +0.021 C 
ATOM     28  C   UNL     1      34.174 -22.145 -19.081  0.00  0.00    -0.044 C 
ATOM     29  C   UNL     1      35.554 -20.485 -20.165  0.00  0.00    +0.001 C 
ATOM     30  C   UNL     1      33.148 -20.273 -20.213  0.00  0.00    +0.001 C 
ATOM     31  C   UNL     1      35.436 -21.663 -19.427  0.00  0.00    -0.006 C 
ATOM     32  C   UNL     1      33.030 -21.449 -19.474  0.00  0.00    -0.006 C 
BRANCH  28  33
ATOM     33  C   UNL     1      34.047 -23.404 -18.291  0.00  0.00    -0.054 C 
BRANCH  33  34
ATOM     34  N   UNL     1      33.441 -23.178 -16.978  0.00  0.00    +0.385 N 
ATOM     35  C   UNL     1      34.453 -23.204 -15.934  0.00  0.00    -0.105 C 
ATOM     36  H   UNL     1      32.753 -23.910 -16.796  0.00  0.00    -0.084 HD
ATOM     37  H   UNL     1      32.991 -22.263 -16.976  0.00  0.00    -0.084 HD
ENDBRANCH  33  34
ENDBRANCH  28  33
ENDBRANCH  25  27
ENDBRANCH   5  24
TORSDOF 7
ENDMDL
MODEL 4
REMARK VINA RESULT:     -11.3      1.242      1.907
REMARK  Name = 59472121
REMARK  7 active torsions:
REMARK  status: ('A' for Active; 'I' for Inactive)
REMARK    1  A    between atoms: C_4  and  C_13
REMARK    2  A    between atoms: C_5  and  C_24
REMARK    3  A    between atoms: C_10  and  S_16
REMARK    4  A    between atoms: S_16  and  C_19
REMARK    5  A    between atoms: C_25  and  C_27
REMARK    6  A    between atoms: C_28  and  C_33
REMARK    7  A    between atoms: C_33  and  N_34
REMARK                            x       y       z     vdW  Elec       q    Type
REMARK                         _______ _______ _______ _____ _____    ______ ____
ROOT
ATOM      1  N   UNL     1      34.137 -16.642 -22.906  0.00  0.00    -0.398 NA
ATOM      2  N   UNL     1      34.435 -17.365 -25.600  0.00  0.00    -0.247 NA
ATOM      3  N   UNL     1      35.214 -19.503 -24.922  0.00  0.00    -0.341 N 
ATOM      4  C   UNL     1      33.838 -15.794 -23.911  0.00  0.00    +0.134 C 
ATOM      5  C   UNL     1      34.589 -17.857 -23.273  0.00  0.00    +0.198 C 
ATOM      6  C   UNL     1      33.984 -16.150 -25.234  0.00  0.00    +0.185 C 
ATOM      7  C   UNL     1      34.735 -18.214 -24.596  0.00  0.00    +0.154 C 
ATOM      8  H   UNL     1      35.321 -19.764 -25.866  0.00  0.00    +0.144 HD
ATOM      9  H   UNL     1      35.440 -20.140 -24.207  0.00  0.00    +0.144 HD
ENDROOT
BRANCH   4  13
ATOM     10  C   UNL     1      32.420 -11.974 -22.752  0.00  0.00    +0.106 C 
ATOM     11  C   UNL     1      33.174 -12.114 -23.917  0.00  0.00    +0.018 C 
ATOM     12  C   UNL     1      32.133 -13.092 -21.968  0.00  0.00    +0.018 C 
ATOM     13  C   UNL     1      33.353 -14.489 -23.515  0.00  0.00    +0.027 C 
ATOM     14  C   UNL     1      33.640 -13.372 -24.299  0.00  0.00    +0.004 C 
ATOM     15  C   UNL     1      32.599 -14.349 -22.350  0.00  0.00    +0.004 C 
BRANCH  10  16
ATOM     16  S   UNL     1      31.829 -10.381 -22.267  0.00  0.00    +0.007 S 
ATOM     17  O   UNL     1      30.383 -10.387 -22.365  0.00  0.00    -0.169 OA
ATOM     18  O   UNL     1      32.484 -10.044 -21.018  0.00  0.00    -0.169 OA
BRANCH  16  19
ATOM     19  C   UNL     1      32.445  -9.301 -23.532  0.00  0.00    +0.134 C 
ATOM     20  C   UNL     1      31.429  -8.207 -23.829  0.00  0.00    +0.026 C 
ATOM     21  C   UNL     1      33.787  -8.716 -23.118  0.00  0.00    +0.026 C 
ENDBRANCH  16  19
ENDBRANCH  10  16
ENDBRANCH   4  13
BRANCH   5  24
ATOM     22  O   UNL     1      36.195 -18.742 -21.773  0.00  0.00    -0.351 OA
ATOM     23  N   UNL     1      36.341 -19.623 -20.709  0.00  0.00    -0.077 NA
ATOM     24  C   UNL     1      34.896 -18.730 -22.169  0.00  0.00    +0.209 C 
ATOM     25  C   UNL     1      35.119 -20.117 -20.498  0.00  0.00    +0.123 C 
ATOM     26  C   UNL     1      34.169 -19.589 -21.389  0.00  0.00    +0.065 C 
BRANCH  25  27
ATOM     27  C   UNL     1      34.885 -21.077 -19.453  0.00  0.00    +0.021 C 
ATOM     28  C   UNL     1      34.428 -22.940 -17.426  0.00  0.00    -0.044 C 
ATOM     29  C   UNL     1      33.617 -21.638 -19.293  0.00  0.00    +0.001 C 
ATOM     30  C   UNL     1      35.924 -21.449 -18.600  0.00  0.00    +0.001 C 
ATOM     31  C   UNL     1      33.388 -22.568 -18.279  0.00  0.00    -0.006 C 
ATOM     32  C   UNL     1      35.696 -22.379 -17.587  0.00  0.00    -0.006 C 
BRANCH  28  33
ATOM     33  C   UNL     1      34.184 -23.935 -16.342  0.00  0.00    -0.054 C 
BRANCH  33  34
ATOM     34  N   UNL     1      35.137 -23.801 -15.239  0.00  0.00    +0.385 N 
ATOM     35  C   UNL     1      34.457 -23.911 -13.958  0.00  0.00    -0.105 C 
ATOM     36  H   UNL     1      35.593 -22.890 -15.299  0.00  0.00    -0.084 HD
ATOM     37  H   UNL     1      35.828 -24.548 -15.309  0.00  0.00    -0.084 HD
ENDBRANCH  33  34
ENDBRANCH  28  33
ENDBRANCH  25  27
ENDBRANCH   5  24
TORSDOF 7
ENDMDL
MODEL 5
REMARK VINA RESULT:     -11.3      3.573     11.093
REMARK  Name = 59472121
REMARK  7 active torsions:
REMARK  status: ('A' for Active; 'I' for Inactive)
REMARK    1  A    between atoms: C_4  and  C_13
REMARK    2  A    between atoms: C_5  and  C_24
REMARK    3  A    between atoms: C_10  and  S_16
REMARK    4  A    between atoms: S_16  and  C_19
REMARK    5  A    between atoms: C_25  and  C_27
REMARK    6  A    between atoms: C_28  and  C_33
REMARK    7  A    between atoms: C_33  and  N_34
REMARK                            x       y       z     vdW  Elec       q    Type
REMARK                         _______ _______ _______ _____ _____    ______ ____
ROOT
ATOM      1  N   UNL     1      33.748 -15.202 -23.456  0.00  0.00    -0.398 NA
ATOM      2  N   UNL     1      33.928 -15.514 -26.238  0.00  0.00    -0.247 NA
ATOM      3  N   UNL     1      33.068 -13.319 -26.522  0.00  0.00    -0.341 N 
ATOM      4  C   UNL     1      34.207 -16.337 -24.020  0.00  0.00    +0.134 C 
ATOM      5  C   UNL     1      33.381 -14.226 -24.309  0.00  0.00    +0.198 C 
ATOM      6  C   UNL     1      34.295 -16.490 -25.386  0.00  0.00    +0.185 C 
ATOM      7  C   UNL     1      33.468 -14.377 -25.675  0.00  0.00    +0.154 C 
ATOM      8  H   UNL     1      33.128 -13.421 -27.500  0.00  0.00    +0.144 HD
ATOM      9  H   UNL     1      32.730 -12.480 -26.135  0.00  0.00    +0.144 HD
ENDROOT
BRANCH   4  13
ATOM     10  C   UNL     1      35.361 -19.403 -21.333  0.00  0.00    +0.106 C 
ATOM     11  C   UNL     1      35.337 -18.075 -20.908  0.00  0.00    +0.018 C 
ATOM     12  C   UNL     1      35.005 -19.723 -22.644  0.00  0.00    +0.018 C 
ATOM     13  C   UNL     1      34.601 -17.385 -23.102  0.00  0.00    +0.027 C 
ATOM     14  C   UNL     1      34.957 -17.066 -21.792  0.00  0.00    +0.004 C 
ATOM     15  C   UNL     1      34.624 -18.713 -23.528  0.00  0.00    +0.004 C 
BRANCH  10  16
ATOM     16  S   UNL     1      35.843 -20.682 -20.214  0.00  0.00    +0.007 S 
ATOM     17  O   UNL     1      36.255 -21.833 -20.993  0.00  0.00    -0.169 OA
ATOM     18  O   UNL     1      36.743 -20.086 -19.246  0.00  0.00    -0.169 OA
BRANCH  16  19
ATOM     19  C   UNL     1      34.334 -21.110 -19.387  0.00  0.00    +0.134 C 
ATOM     20  C   UNL     1      33.137 -20.649 -20.205  0.00  0.00    +0.026 C 
ATOM     21  C   UNL     1      34.284 -22.608 -19.125  0.00  0.00    +0.026 C 
ENDBRANCH  16  19
ENDBRANCH  10  16
ENDBRANCH   4  13
BRANCH   5  24
ATOM     22  O   UNL     1      32.020 -13.226 -22.647  0.00  0.00    -0.351 OA
ATOM     23  N   UNL     1      31.641 -11.995 -22.126  0.00  0.00    -0.077 NA
ATOM     24  C   UNL     1      32.897 -13.031 -23.665  0.00  0.00    +0.209 C 
ATOM     25  C   UNL     1      32.306 -11.093 -22.853  0.00  0.00    +0.123 C 
ATOM     26  C   UNL     1      33.113 -11.690 -23.837  0.00  0.00    +0.065 C 
BRANCH  25  27
ATOM     27  C   UNL     1      32.159  -9.686 -22.591  0.00  0.00    +0.021 C 
ATOM     28  C   UNL     1      31.873  -6.958 -22.081  0.00  0.00    -0.044 C 
ATOM     29  C   UNL     1      32.294  -9.201 -21.290  0.00  0.00    +0.001 C 
ATOM     30  C   UNL     1      31.882  -8.806 -23.638  0.00  0.00    +0.001 C 
ATOM     31  C   UNL     1      32.150  -7.838 -21.035  0.00  0.00    -0.006 C 
ATOM     32  C   UNL     1      31.739  -7.443 -23.383  0.00  0.00    -0.006 C 
BRANCH  28  33
ATOM     33  C   UNL     1      31.720  -5.499 -21.809  0.00  0.00    -0.054 C 
BRANCH  33  34
ATOM     34  N   UNL     1      30.668  -4.889 -22.623  0.00  0.00    +0.385 N 
ATOM     35  C   UNL     1      31.198  -3.777 -23.396  0.00  0.00    -0.105 C 
ATOM     36  H   UNL     1      29.925  -4.548 -22.011  0.00  0.00    -0.084 HD
ATOM     37  H   UNL     1      30.301  -5.591 -23.266  0.00  0.00    -0.084 HD
ENDBRANCH  33  34
ENDBRANCH  28  33
ENDBRANCH  25  27
ENDBRANCH   5  24
TORSDOF 7
ENDMDL
MODEL 6
REMARK VINA RESULT:     -10.7      4.012     11.161
REMARK  Name = 59472121
REMARK  7 active torsions:
REMARK  status: ('A' for Active; 'I' for Inactive)
REMARK    1  A    between atoms: C_4  and  C_13
REMARK    2  A    between atoms: C_5  and  C_24
REMARK    3  A    between atoms: C_10  and  S_16
REMARK    4  A    between atoms: S_16  and  C_19
REMARK    5  A    between atoms: C_25  and  C_27
REMARK    6  A    between atoms: C_28  and  C_33
REMARK    7  A    between atoms: C_33  and  N_34
REMARK                            x       y       z     vdW  Elec       q    Type
REMARK                         _______ _______ _______ _____ _____    ______ ____
ROOT
ATOM      1  N   UNL     1      34.111 -18.009 -21.425  0.00  0.00    -0.398 NA
ATOM      2  N   UNL     1      35.604 -18.501 -23.747  0.00  0.00    -0.247 NA
ATOM      3  N   UNL     1      35.178 -16.281 -24.471  0.00  0.00    -0.341 N 
ATOM      4  C   UNL     1      34.692 -19.202 -21.661  0.00  0.00    +0.134 C 
ATOM      5  C   UNL     1      34.290 -17.067 -22.371  0.00  0.00    +0.198 C 
ATOM      6  C   UNL     1      35.425 -19.444 -22.802  0.00  0.00    +0.185 C 
ATOM      7  C   UNL     1      35.023 -17.307 -23.512  0.00  0.00    +0.154 C 
ATOM      8  H   UNL     1      35.701 -16.446 -25.289  0.00  0.00    +0.144 HD
ATOM      9  H   UNL     1      34.764 -15.401 -24.322  0.00  0.00    +0.144 HD
ENDROOT
BRANCH   4  13
ATOM     10  C   UNL     1      34.123 -22.161 -18.682  0.00  0.00    +0.106 C 
ATOM     11  C   UNL     1      33.025 -21.482 -19.210  0.00  0.00    +0.018 C 
ATOM     12  C   UNL     1      35.410 -21.865 -19.135  0.00  0.00    +0.018 C 
ATOM     13  C   UNL     1      34.498 -20.214 -20.644  0.00  0.00    +0.027 C 
ATOM     14  C   UNL     1      33.212 -20.508 -20.191  0.00  0.00    +0.004 C 
ATOM     15  C   UNL     1      35.597 -20.892 -20.116  0.00  0.00    +0.004 C 
BRANCH  10  16
ATOM     16  S   UNL     1      33.887 -23.394 -17.439  0.00  0.00    +0.007 S 
ATOM     17  O   UNL     1      33.380 -24.591 -18.082  0.00  0.00    -0.169 OA
ATOM     18  O   UNL     1      35.100 -23.439 -16.646  0.00  0.00    -0.169 OA
BRANCH  16  19
ATOM     19  C   UNL     1      32.584 -22.735 -16.434  0.00  0.00    +0.134 C 
ATOM     20  C   UNL     1      31.264 -23.413 -16.772  0.00  0.00    +0.026 C 
ATOM     21  C   UNL     1      32.926 -22.888 -14.960  0.00  0.00    +0.026 C 
ENDBRANCH  16  19
ENDBRANCH  10  16
ENDBRANCH   4  13
BRANCH   5  24
ATOM     22  O   UNL     1      32.843 -15.799 -20.989  0.00  0.00    -0.351 OA
ATOM     23  N   UNL     1      32.301 -14.529 -20.832  0.00  0.00    -0.077 NA
ATOM     24  C   UNL     1      33.653 -15.808 -22.078  0.00  0.00    +0.209 C 
ATOM     25  C   UNL     1      32.804 -13.811 -21.839  0.00  0.00    +0.123 C 
ATOM     26  C   UNL     1      33.663 -14.567 -22.656  0.00  0.00    +0.065 C 
BRANCH  25  27
ATOM     27  C   UNL     1      32.458 -12.424 -21.998  0.00  0.00    +0.021 C 
ATOM     28  C   UNL     1      31.787  -9.734 -22.307  0.00  0.00    -0.044 C 
ATOM     29  C   UNL     1      32.948 -11.703 -23.087  0.00  0.00    +0.001 C 
ATOM     30  C   UNL     1      31.631 -11.800 -21.064  0.00  0.00    +0.001 C 
ATOM     31  C   UNL     1      32.614 -10.358 -23.241  0.00  0.00    -0.006 C 
ATOM     32  C   UNL     1      31.296 -10.455 -21.218  0.00  0.00    -0.006 C 
BRANCH  28  33
ATOM     33  C   UNL     1      31.429  -8.295 -22.472  0.00  0.00    -0.054 C 
BRANCH  33  34
ATOM     34  N   UNL     1      32.471  -7.401 -21.966  0.00  0.00    +0.385 N 
ATOM     35  C   UNL     1      31.881  -6.264 -21.277  0.00  0.00    -0.105 C 
ATOM     36  H   UNL     1      33.032  -7.063 -22.749  0.00  0.00    -0.084 HD
ATOM     37  H   UNL     1      33.056  -7.916 -21.308  0.00  0.00    -0.084 HD
ENDBRANCH  33  34
ENDBRANCH  28  33
ENDBRANCH  25  27
ENDBRANCH   5  24
TORSDOF 7
ENDMDL
MODEL 7
REMARK VINA RESULT:     -10.6      4.344      8.383
REMARK  Name = 59472121
REMARK  7 active torsions:
REMARK  status: ('A' for Active; 'I' for Inactive)
REMARK    1  A    between atoms: C_4  and  C_13
REMARK    2  A    between atoms: C_5  and  C_24
REMARK    3  A    between atoms: C_10  and  S_16
REMARK    4  A    between atoms: S_16  and  C_19
REMARK    5  A    between atoms: C_25  and  C_27
REMARK    6  A    between atoms: C_28  and  C_33
REMARK    7  A    between atoms: C_33  and  N_34
REMARK                            x       y       z     vdW  Elec       q    Type
REMARK                         _______ _______ _______ _____ _____    ______ ____
ROOT
ATOM      1  N   UNL     1      32.302  -7.835 -23.216  0.00  0.00    -0.398 NA
ATOM      2  N   UNL     1      32.001  -6.732 -20.654  0.00  0.00    -0.247 NA
ATOM      3  N   UNL     1      32.005  -8.919 -19.732  0.00  0.00    -0.341 N 
ATOM      4  C   UNL     1      32.224  -6.504 -23.015  0.00  0.00    +0.134 C 
ATOM      5  C   UNL     1      32.226  -8.604 -22.112  0.00  0.00    +0.198 C 
ATOM      6  C   UNL     1      32.077  -5.963 -21.757  0.00  0.00    +0.185 C 
ATOM      7  C   UNL     1      32.079  -8.064 -20.854  0.00  0.00    +0.154 C 
ATOM      8  H   UNL     1      31.899  -8.540 -18.829  0.00  0.00    +0.144 HD
ATOM      9  H   UNL     1      32.059  -9.895 -19.851  0.00  0.00    +0.144 HD
ENDROOT
BRANCH   4  13
ATOM     10  C   UNL     1      32.461  -4.090 -26.490  0.00  0.00    +0.106 C 
ATOM     11  C   UNL     1      31.484  -3.834 -25.527  0.00  0.00    +0.018 C 
ATOM     12  C   UNL     1      33.360  -5.142 -26.309  0.00  0.00    +0.018 C 
ATOM     13  C   UNL     1      32.305  -5.679 -24.202  0.00  0.00    +0.027 C 
ATOM     14  C   UNL     1      31.406  -4.628 -24.383  0.00  0.00    +0.004 C 
ATOM     15  C   UNL     1      33.282  -5.936 -25.165  0.00  0.00    +0.004 C 
BRANCH  10  16
ATOM     16  S   UNL     1      32.559  -3.085 -27.939  0.00  0.00    +0.007 S 
ATOM     17  O   UNL     1      31.218  -2.918 -28.464  0.00  0.00    -0.169 OA
ATOM     18  O   UNL     1      33.369  -1.930 -27.604  0.00  0.00    -0.169 OA
BRANCH  16  19
ATOM     19  C   UNL     1      33.461  -4.089 -29.088  0.00  0.00    +0.134 C 
ATOM     20  C   UNL     1      32.501  -4.840 -29.999  0.00  0.00    +0.026 C 
ATOM     21  C   UNL     1      34.431  -3.232 -29.888  0.00  0.00    +0.026 C 
ENDBRANCH  16  19
ENDBRANCH  10  16
ENDBRANCH   4  13
BRANCH   5  24
ATOM     22  O   UNL     1      31.382 -10.788 -21.754  0.00  0.00    -0.351 OA
ATOM     23  N   UNL     1      31.589 -12.119 -22.094  0.00  0.00    -0.077 NA
ATOM     24  C   UNL     1      32.314 -10.018 -22.372  0.00  0.00    +0.209 C 
ATOM     25  C   UNL     1      32.646 -12.108 -22.910  0.00  0.00    +0.123 C 
ATOM     26  C   UNL     1      33.143 -10.810 -23.121  0.00  0.00    +0.065 C 
BRANCH  25  27
ATOM     27  C   UNL     1      33.155 -13.331 -23.470  0.00  0.00    +0.021 C 
ATOM     28  C   UNL     1      34.144 -15.704 -24.555  0.00  0.00    -0.044 C 
ATOM     29  C   UNL     1      33.984 -14.154 -22.708  0.00  0.00    +0.001 C 
ATOM     30  C   UNL     1      32.820 -13.695 -24.775  0.00  0.00    +0.001 C 
ATOM     31  C   UNL     1      34.479 -15.340 -23.251  0.00  0.00    -0.006 C 
ATOM     32  C   UNL     1      33.314 -14.881 -25.317  0.00  0.00    -0.006 C 
BRANCH  28  33
ATOM     33  C   UNL     1      34.673 -16.972 -25.135  0.00  0.00    -0.054 C 
BRANCH  33  34
ATOM     34  N   UNL     1      35.398 -17.775 -24.150  0.00  0.00    +0.385 N 
ATOM     35  C   UNL     1      34.694 -19.019 -23.883  0.00  0.00    -0.105 C 
ATOM     36  H   UNL     1      35.482 -17.245 -23.282  0.00  0.00    -0.084 HD
ATOM     37  H   UNL     1      36.323 -17.994 -24.521  0.00  0.00    -0.084 HD
ENDBRANCH  33  34
ENDBRANCH  28  33
ENDBRANCH  25  27
ENDBRANCH   5  24
TORSDOF 7
ENDMDL
MODEL 8
REMARK VINA RESULT:     -10.3      2.226      2.881
REMARK  Name = 59472121
REMARK  7 active torsions:
REMARK  status: ('A' for Active; 'I' for Inactive)
REMARK    1  A    between atoms: C_4  and  C_13
REMARK    2  A    between atoms: C_5  and  C_24
REMARK    3  A    between atoms: C_10  and  S_16
REMARK    4  A    between atoms: S_16  and  C_19
REMARK    5  A    between atoms: C_25  and  C_27
REMARK    6  A    between atoms: C_28  and  C_33
REMARK    7  A    between atoms: C_33  and  N_34
REMARK                            x       y       z     vdW  Elec       q    Type
REMARK                         _______ _______ _______ _____ _____    ______ ____
ROOT
ATOM      1  N   UNL     1      33.756 -17.169 -21.780  0.00  0.00    -0.398 NA
ATOM      2  N   UNL     1      34.809 -17.477 -24.362  0.00  0.00    -0.247 NA
ATOM      3  N   UNL     1      35.318 -19.742 -23.865  0.00  0.00    -0.341 N 
ATOM      4  C   UNL     1      33.776 -16.156 -22.670  0.00  0.00    +0.134 C 
ATOM      5  C   UNL     1      34.272 -18.339 -22.206  0.00  0.00    +0.198 C 
ATOM      6  C   UNL     1      34.293 -16.308 -23.937  0.00  0.00    +0.185 C 
ATOM      7  C   UNL     1      34.789 -18.492 -23.473  0.00  0.00    +0.154 C 
ATOM      8  H   UNL     1      35.690 -19.858 -24.770  0.00  0.00    +0.144 HD
ATOM      9  H   UNL     1      35.315 -20.498 -23.234  0.00  0.00    +0.144 HD
ENDROOT
BRANCH   4  13
ATOM     10  C   UNL     1      32.151 -12.481 -21.326  0.00  0.00    +0.106 C 
ATOM     11  C   UNL     1      32.388 -13.513 -20.418  0.00  0.00    +0.018 C 
ATOM     12  C   UNL     1      32.449 -12.659 -22.677  0.00  0.00    +0.018 C 
ATOM     13  C   UNL     1      33.221 -14.900 -22.211  0.00  0.00    +0.027 C 
ATOM     14  C   UNL     1      32.923 -14.723 -20.860  0.00  0.00    +0.004 C 
ATOM     15  C   UNL     1      32.984 -13.869 -23.119  0.00  0.00    +0.004 C 
BRANCH  10  16
ATOM     16  S   UNL     1      31.472 -10.950 -20.766  0.00  0.00    +0.007 S 
ATOM     17  O   UNL     1      30.046 -10.965 -21.028  0.00  0.00    -0.169 OA
ATOM     18  O   UNL     1      31.974 -10.724 -19.425  0.00  0.00    -0.169 OA
BRANCH  16  19
ATOM     19  C   UNL     1      32.199  -9.746 -21.847  0.00  0.00    +0.134 C 
ATOM     20  C   UNL     1      31.218  -9.365 -22.946  0.00  0.00    +0.026 C 
ATOM     21  C   UNL     1      32.647  -8.528 -21.053  0.00  0.00    +0.026 C 
ENDBRANCH  16  19
ENDBRANCH  10  16
ENDBRANCH   4  13
BRANCH   5  24
ATOM     22  O   UNL     1      33.126 -20.183 -21.256  0.00  0.00    -0.351 OA
ATOM     23  N   UNL     1      33.224 -21.147 -20.261  0.00  0.00    -0.077 NA
ATOM     24  C   UNL     1      34.231 -19.393 -21.225  0.00  0.00    +0.209 C 
ATOM     25  C   UNL     1      34.391 -20.904 -19.657  0.00  0.00    +0.123 C 
ATOM     26  C   UNL     1      35.067 -19.811 -20.224  0.00  0.00    +0.065 C 
BRANCH  25  27
ATOM     27  C   UNL     1      34.833 -21.720 -18.558  0.00  0.00    +0.021 C 
ATOM     28  C   UNL     1      35.693 -23.302 -16.427  0.00  0.00    -0.044 C 
ATOM     29  C   UNL     1      36.131 -21.581 -18.065  0.00  0.00    +0.001 C 
ATOM     30  C   UNL     1      33.965 -22.650 -17.985  0.00  0.00    +0.001 C 
ATOM     31  C   UNL     1      36.561 -22.373 -17.001  0.00  0.00    -0.006 C 
ATOM     32  C   UNL     1      34.395 -23.440 -16.920  0.00  0.00    -0.006 C 
BRANCH  28  33
ATOM     33  C   UNL     1      36.153 -24.149 -15.288  0.00  0.00    -0.054 C 
BRANCH  33  34
ATOM     34  N   UNL     1      37.572 -24.495 -15.389  0.00  0.00    +0.385 N 
ATOM     35  C   UNL     1      37.843 -25.750 -14.709  0.00  0.00    -0.105 C 
ATOM     36  H   UNL     1      38.129 -23.754 -14.961  0.00  0.00    -0.084 HD
ATOM     37  H   UNL     1      37.816 -24.596 -16.375  0.00  0.00    -0.084 HD
ENDBRANCH  33  34
ENDBRANCH  28  33
ENDBRANCH  25  27
ENDBRANCH   5  24
TORSDOF 7
ENDMDL
MODEL 9
REMARK VINA RESULT:      -9.7      5.029     12.653
REMARK  Name = 59472121
REMARK  7 active torsions:
REMARK  status: ('A' for Active; 'I' for Inactive)
REMARK    1  A    between atoms: C_4  and  C_13
REMARK    2  A    between atoms: C_5  and  C_24
REMARK    3  A    between atoms: C_10  and  S_16
REMARK    4  A    between atoms: S_16  and  C_19
REMARK    5  A    between atoms: C_25  and  C_27
REMARK    6  A    between atoms: C_28  and  C_33
REMARK    7  A    between atoms: C_33  and  N_34
REMARK                            x       y       z     vdW  Elec       q    Type
REMARK                         _______ _______ _______ _____ _____    ______ ____
ROOT
ATOM      1  N   UNL     1      32.450 -11.014 -22.272  0.00  0.00    -0.398 NA
ATOM      2  N   UNL     1      31.459 -11.437 -19.683  0.00  0.00    -0.247 NA
ATOM      3  N   UNL     1      31.154  -9.096 -19.435  0.00  0.00    -0.341 N 
ATOM      4  C   UNL     1      32.348 -12.248 -21.739  0.00  0.00    +0.134 C 
ATOM      5  C   UNL     1      32.048  -9.995 -21.487  0.00  0.00    +0.198 C 
ATOM      6  C   UNL     1      31.861 -12.455 -20.467  0.00  0.00    +0.185 C 
ATOM      7  C   UNL     1      31.561 -10.202 -20.215  0.00  0.00    +0.154 C 
ATOM      8  H   UNL     1      30.805  -9.237 -18.525  0.00  0.00    +0.144 HD
ATOM      9  H   UNL     1      31.219  -8.184 -19.801  0.00  0.00    +0.144 HD
ENDROOT
BRANCH   4  13
ATOM     10  C   UNL     1      33.614 -15.445 -24.213  0.00  0.00    +0.106 C 
ATOM     11  C   UNL     1      33.427 -15.652 -22.847  0.00  0.00    +0.018 C 
ATOM     12  C   UNL     1      33.385 -14.185 -24.766  0.00  0.00    +0.018 C 
ATOM     13  C   UNL     1      32.780 -13.340 -22.585  0.00  0.00    +0.027 C 
ATOM     14  C   UNL     1      33.010 -14.600 -22.032  0.00  0.00    +0.004 C 
ATOM     15  C   UNL     1      32.968 -13.132 -23.951  0.00  0.00    +0.004 C 
BRANCH  10  16
ATOM     16  S   UNL     1      34.144 -16.778 -25.245  0.00  0.00    +0.007 S 
ATOM     17  O   UNL     1      33.023 -17.181 -26.072  0.00  0.00    -0.169 OA
ATOM     18  O   UNL     1      35.400 -16.379 -25.848  0.00  0.00    -0.169 OA
BRANCH  16  19
ATOM     19  C   UNL     1      34.464 -18.095 -24.102  0.00  0.00    +0.134 C 
ATOM     20  C   UNL     1      34.500 -19.429 -24.833  0.00  0.00    +0.026 C 
ATOM     21  C   UNL     1      35.761 -17.837 -23.350  0.00  0.00    +0.026 C 
ENDBRANCH  16  19
ENDBRANCH  10  16
ENDBRANCH   4  13
BRANCH   5  24
ATOM     22  O   UNL     1      32.704  -7.726 -21.306  0.00  0.00    -0.351 OA
ATOM     23  N   UNL     1      32.764  -6.536 -22.020  0.00  0.00    -0.077 NA
ATOM     24  C   UNL     1      32.175  -8.696 -22.095  0.00  0.00    +0.209 C 
ATOM     25  C   UNL     1      32.264  -6.829 -23.223  0.00  0.00    +0.123 C 
ATOM     26  C   UNL     1      31.877  -8.176 -23.327  0.00  0.00    +0.065 C 
BRANCH  25  27
ATOM     27  C   UNL     1      32.169  -5.820 -24.245  0.00  0.00    +0.021 C 
ATOM     28  C   UNL     1      31.988  -3.865 -26.227  0.00  0.00    -0.044 C 
ATOM     29  C   UNL     1      33.088  -5.803 -25.294  0.00  0.00    +0.001 C 
ATOM     30  C   UNL     1      31.159  -4.860 -24.187  0.00  0.00    +0.001 C 
ATOM     31  C   UNL     1      32.998  -4.825 -26.285  0.00  0.00    -0.006 C 
ATOM     32  C   UNL     1      31.069  -3.883 -25.177  0.00  0.00    -0.006 C 
BRANCH  28  33
ATOM     33  C   UNL     1      31.891  -2.819 -27.286  0.00  0.00    -0.054 C 
BRANCH  33  34
ATOM     34  N   UNL     1      31.901  -3.390 -28.634  0.00  0.00    +0.385 N 
ATOM     35  C   UNL     1      31.146  -2.551 -29.551  0.00  0.00    -0.105 C 
ATOM     36  H   UNL     1      31.482  -4.320 -28.607  0.00  0.00    -0.084 HD
ATOM     37  H   UNL     1      32.866  -3.446 -28.959  0.00  0.00    -0.084 HD
ENDBRANCH  33  34
ENDBRANCH  28  33
ENDBRANCH  25  27
ENDBRANCH   5  24
TORSDOF 7
ENDMDL
