MODEL 1
REMARK VINA RESULT:      -8.8      0.000      0.000
REMARK  Name = 5584
REMARK  4 active torsions:
REMARK  status: ('A' for Active; 'I' for Inactive)
REMARK    1  A    between atoms: N_1  and  C_16
REMARK    2  A    between atoms: C_16  and  C_17
REMARK    3  A    between atoms: C_17  and  C_19
REMARK    4  A    between atoms: C_19  and  N_20
REMARK                            x       y       z     vdW  Elec       q    Type
REMARK                         _______ _______ _______ _____ _____    ______ ____
ROOT
ATOM      1  N   UNL     1      32.883 -13.249 -23.237  0.00  0.00    -0.287 N 
ATOM      2  C   UNL     1      32.401 -12.191 -22.416  0.00  0.00    +0.048 C 
ATOM      3  C   UNL     1      33.089 -13.243 -24.642  0.00  0.00    +0.048 C 
ATOM      4  C   UNL     1      33.310 -10.242 -23.895  0.00  0.00    +0.032 C 
ATOM      5  C   UNL     1      34.419 -11.109 -24.470  0.00  0.00    +0.032 C 
ATOM      6  C   UNL     1      32.556 -10.816 -22.715  0.00  0.00    -0.008 C 
ATOM      7  C   UNL     1      33.826 -12.229 -25.275  0.00  0.00    -0.008 C 
ATOM      8  C   UNL     1      31.673 -12.504 -21.237  0.00  0.00    +0.015 C 
ATOM      9  C   UNL     1      32.562 -14.274 -25.450  0.00  0.00    +0.015 C 
ATOM     10  C   UNL     1      31.967  -9.843 -21.868  0.00  0.00    -0.003 C 
ATOM     11  C   UNL     1      34.024 -12.258 -26.667  0.00  0.00    -0.003 C 
ATOM     12  C   UNL     1      31.119 -11.529 -20.404  0.00  0.00    +0.001 C 
ATOM     13  C   UNL     1      32.761 -14.296 -26.832  0.00  0.00    +0.001 C 
ATOM     14  C   UNL     1      31.261 -10.193 -20.724  0.00  0.00    -0.000 C 
ATOM     15  C   UNL     1      33.494 -13.287 -27.441  0.00  0.00    -0.000 C 
ENDROOT
BRANCH   1  16
ATOM     16  C   UNL     1      33.055 -14.572 -22.617  0.00  0.00    +0.093 C 
BRANCH  16  17
ATOM     17  C   UNL     1      34.505 -14.805 -22.157  0.00  0.00    -0.001 C 
ATOM     18  C   UNL     1      34.565 -15.173 -20.670  0.00  0.00    -0.000 C 
BRANCH  17  19
ATOM     19  C   UNL     1      35.252 -15.866 -22.988  0.00  0.00    -0.076 C 
BRANCH  19  20
ATOM     20  N   UNL     1      34.375 -16.957 -23.398  0.00  0.00    +0.384 N 
ATOM     21  C   UNL     1      34.666 -18.169 -22.630  0.00  0.00    -0.101 C 
ATOM     22  C   UNL     1      34.514 -17.219 -24.831  0.00  0.00    -0.101 C 
ATOM     23  H   UNL     1      33.411 -16.679 -23.211  0.00  0.00    -0.080 HD
ENDBRANCH  19  20
ENDBRANCH  17  19
ENDBRANCH  16  17
ENDBRANCH   1  16
TORSDOF 4
ENDMDL
MODEL 2
REMARK VINA RESULT:      -8.0      2.774      5.718
REMARK  Name = 5584
REMARK  4 active torsions:
REMARK  status: ('A' for Active; 'I' for Inactive)
REMARK    1  A    between atoms: N_1  and  C_16
REMARK    2  A    between atoms: C_16  and  C_17
REMARK    3  A    between atoms: C_17  and  C_19
REMARK    4  A    between atoms: C_19  and  N_20
REMARK                            x       y       z     vdW  Elec       q    Type
REMARK                         _______ _______ _______ _____ _____    ______ ____
ROOT
ATOM      1  N   UNL     1      32.023  -8.822 -22.869  0.00  0.00    -0.287 N 
ATOM      2  C   UNL     1      31.883  -9.620 -21.699  0.00  0.00    +0.048 C 
ATOM      3  C   UNL     1      31.737  -7.440 -23.028  0.00  0.00    +0.048 C 
ATOM      4  C   UNL     1      32.289  -7.691 -19.987  0.00  0.00    +0.032 C 
ATOM      5  C   UNL     1      33.108  -6.890 -20.986  0.00  0.00    +0.032 C 
ATOM      6  C   UNL     1      31.966  -9.118 -20.378  0.00  0.00    -0.008 C 
ATOM      7  C   UNL     1      32.242  -6.476 -22.141  0.00  0.00    -0.008 C 
ATOM      8  C   UNL     1      31.593 -11.004 -21.833  0.00  0.00    +0.015 C 
ATOM      9  C   UNL     1      30.935  -6.990 -24.099  0.00  0.00    +0.015 C 
ATOM     10  C   UNL     1      31.731  -9.986 -19.282  0.00  0.00    -0.003 C 
ATOM     11  C   UNL     1      31.951  -5.114 -22.332  0.00  0.00    -0.003 C 
ATOM     12  C   UNL     1      31.386 -11.847 -20.738  0.00  0.00    +0.001 C 
ATOM     13  C   UNL     1      30.648  -5.637 -24.282  0.00  0.00    +0.001 C 
ATOM     14  C   UNL     1      31.450 -11.335 -19.458  0.00  0.00    -0.000 C 
ATOM     15  C   UNL     1      31.158  -4.697 -23.397  0.00  0.00    -0.000 C 
ENDROOT
BRANCH   1  16
ATOM     16  C   UNL     1      32.358  -9.507 -24.127  0.00  0.00    +0.093 C 
BRANCH  16  17
ATOM     17  C   UNL     1      33.878  -9.562 -24.364  0.00  0.00    -0.001 C 
ATOM     18  C   UNL     1      34.611  -8.525 -23.505  0.00  0.00    -0.000 C 
BRANCH  17  19
ATOM     19  C   UNL     1      34.488 -10.957 -24.132  0.00  0.00    -0.076 C 
BRANCH  19  20
ATOM     20  N   UNL     1      33.619 -12.022 -24.620  0.00  0.00    +0.384 N 
ATOM     21  C   UNL     1      33.875 -13.268 -23.896  0.00  0.00    -0.101 C 
ATOM     22  C   UNL     1      33.807 -12.222 -26.058  0.00  0.00    -0.101 C 
ATOM     23  H   UNL     1      32.651 -11.745 -24.455  0.00  0.00    -0.080 HD
ENDBRANCH  19  20
ENDBRANCH  17  19
ENDBRANCH  16  17
ENDBRANCH   1  16
TORSDOF 4
ENDMDL
MODEL 3
REMARK VINA RESULT:      -7.8      3.889      6.419
REMARK  Name = 5584
REMARK  4 active torsions:
REMARK  status: ('A' for Active; 'I' for Inactive)
REMARK    1  A    between atoms: N_1  and  C_16
REMARK    2  A    between atoms: C_16  and  C_17
REMARK    3  A    between atoms: C_17  and  C_19
REMARK    4  A    between atoms: C_19  and  N_20
REMARK                            x       y       z     vdW  Elec       q    Type
REMARK                         _______ _______ _______ _____ _____    ______ ____
ROOT
ATOM      1  N   UNL     1      32.312  -7.667 -23.310  0.00  0.00    -0.287 N 
ATOM      2  C   UNL     1      32.145  -6.439 -24.008  0.00  0.00    +0.048 C 
ATOM      3  C   UNL     1      33.088  -8.793 -23.690  0.00  0.00    +0.048 C 
ATOM      4  C   UNL     1      34.477  -6.455 -25.181  0.00  0.00    +0.032 C 
ATOM      5  C   UNL     1      35.092  -7.317 -24.089  0.00  0.00    +0.032 C 
ATOM      6  C   UNL     1      33.104  -5.887 -24.891  0.00  0.00    -0.008 C 
ATOM      7  C   UNL     1      34.434  -8.666 -24.072  0.00  0.00    -0.008 C 
ATOM      8  C   UNL     1      30.927  -5.720 -23.868  0.00  0.00    +0.015 C 
ATOM      9  C   UNL     1      32.527 -10.089 -23.687  0.00  0.00    +0.015 C 
ATOM     10  C   UNL     1      32.804  -4.696 -25.599  0.00  0.00    -0.003 C 
ATOM     11  C   UNL     1      35.181  -9.802 -24.431  0.00  0.00    -0.003 C 
ATOM     12  C   UNL     1      30.659  -4.536 -24.559  0.00  0.00    +0.001 C 
ATOM     13  C   UNL     1      33.273 -11.212 -24.047  0.00  0.00    +0.001 C 
ATOM     14  C   UNL     1      31.599  -4.024 -25.432  0.00  0.00    -0.000 C 
ATOM     15  C   UNL     1      34.603 -11.068 -24.418  0.00  0.00    -0.000 C 
ENDROOT
BRANCH   1  16
ATOM     16  C   UNL     1      31.476  -7.897 -22.121  0.00  0.00    +0.093 C 
BRANCH  16  17
ATOM     17  C   UNL     1      32.319  -8.283 -20.893  0.00  0.00    -0.001 C 
ATOM     18  C   UNL     1      33.038  -7.063 -20.307  0.00  0.00    -0.000 C 
BRANCH  17  19
ATOM     19  C   UNL     1      31.511  -8.994 -19.790  0.00  0.00    -0.076 C 
BRANCH  19  20
ATOM     20  N   UNL     1      31.699 -10.440 -19.820  0.00  0.00    +0.384 N 
ATOM     21  C   UNL     1      30.773 -11.061 -20.768  0.00  0.00    -0.101 C 
ATOM     22  C   UNL     1      31.516 -11.010 -18.484  0.00  0.00    -0.101 C 
ATOM     23  H   UNL     1      32.653 -10.632 -20.127  0.00  0.00    -0.080 HD
ENDBRANCH  19  20
ENDBRANCH  17  19
ENDBRANCH  16  17
ENDBRANCH   1  16
TORSDOF 4
ENDMDL
MODEL 4
REMARK VINA RESULT:      -7.5     10.141     14.054
REMARK  Name = 5584
REMARK  4 active torsions:
REMARK  status: ('A' for Active; 'I' for Inactive)
REMARK    1  A    between atoms: N_1  and  C_16
REMARK    2  A    between atoms: C_16  and  C_17
REMARK    3  A    between atoms: C_17  and  C_19
REMARK    4  A    between atoms: C_19  and  N_20
REMARK                            x       y       z     vdW  Elec       q    Type
REMARK                         _______ _______ _______ _____ _____    ______ ____
ROOT
ATOM      1  N   UNL     1      35.105 -23.916 -15.879  0.00  0.00    -0.287 N 
ATOM      2  C   UNL     1      34.873 -23.081 -17.007  0.00  0.00    +0.048 C 
ATOM      3  C   UNL     1      36.321 -24.530 -15.478  0.00  0.00    +0.048 C 
ATOM      4  C   UNL     1      37.285 -22.093 -17.135  0.00  0.00    +0.032 C 
ATOM      5  C   UNL     1      37.528 -22.324 -15.652  0.00  0.00    +0.032 C 
ATOM      6  C   UNL     1      35.861 -22.270 -17.615  0.00  0.00    -0.008 C 
ATOM      7  C   UNL     1      37.512 -23.796 -15.355  0.00  0.00    -0.008 C 
ATOM      8  C   UNL     1      33.588 -23.076 -17.615  0.00  0.00    +0.015 C 
ATOM      9  C   UNL     1      36.367 -25.909 -15.178  0.00  0.00    +0.015 C 
ATOM     10  C   UNL     1      35.543 -21.536 -18.786  0.00  0.00    -0.003 C 
ATOM     11  C   UNL     1      38.698 -24.430 -14.944  0.00  0.00    -0.003 C 
ATOM     12  C   UNL     1      33.290 -22.329 -18.757  0.00  0.00    +0.001 C 
ATOM     13  C   UNL     1      37.547 -26.533 -14.772  0.00  0.00    +0.001 C 
ATOM     14  C   UNL     1      34.273 -21.560 -19.348  0.00  0.00    -0.000 C 
ATOM     15  C   UNL     1      38.715 -25.791 -14.654  0.00  0.00    -0.000 C 
ENDROOT
BRANCH   1  16
ATOM     16  C   UNL     1      33.937 -24.343 -15.092  0.00  0.00    +0.093 C 
BRANCH  16  17
ATOM     17  C   UNL     1      33.875 -23.634 -13.727  0.00  0.00    -0.001 C 
ATOM     18  C   UNL     1      32.441 -23.219 -13.381  0.00  0.00    -0.000 C 
BRANCH  17  19
ATOM     19  C   UNL     1      34.472 -24.463 -12.575  0.00  0.00    -0.076 C 
BRANCH  19  20
ATOM     20  N   UNL     1      35.224 -23.637 -11.637  0.00  0.00    +0.384 N 
ATOM     21  C   UNL     1      36.469 -23.168 -12.247  0.00  0.00    -0.101 C 
ATOM     22  C   UNL     1      35.508 -24.380 -10.409  0.00  0.00    -0.101 C 
ATOM     23  H   UNL     1      34.654 -22.824 -11.400  0.00  0.00    -0.080 HD
ENDBRANCH  19  20
ENDBRANCH  17  19
ENDBRANCH  16  17
ENDBRANCH   1  16
TORSDOF 4
ENDMDL
MODEL 5
REMARK VINA RESULT:      -7.4      1.435      4.730
REMARK  Name = 5584
REMARK  4 active torsions:
REMARK  status: ('A' for Active; 'I' for Inactive)
REMARK    1  A    between atoms: N_1  and  C_16
REMARK    2  A    between atoms: C_16  and  C_17
REMARK    3  A    between atoms: C_17  and  C_19
REMARK    4  A    between atoms: C_19  and  N_20
REMARK                            x       y       z     vdW  Elec       q    Type
REMARK                         _______ _______ _______ _____ _____    ______ ____
ROOT
ATOM      1  N   UNL     1      32.677 -13.891 -23.016  0.00  0.00    -0.287 N 
ATOM      2  C   UNL     1      32.271 -12.899 -22.080  0.00  0.00    +0.048 C 
ATOM      3  C   UNL     1      33.548 -14.992 -22.804  0.00  0.00    +0.048 C 
ATOM      4  C   UNL     1      32.455 -14.413 -19.961  0.00  0.00    +0.032 C 
ATOM      5  C   UNL     1      32.231 -15.681 -20.768  0.00  0.00    +0.032 C 
ATOM      6  C   UNL     1      32.196 -13.107 -20.682  0.00  0.00    -0.008 C 
ATOM      7  C   UNL     1      33.366 -15.880 -21.731  0.00  0.00    -0.008 C 
ATOM      8  C   UNL     1      31.959 -11.593 -22.543  0.00  0.00    +0.015 C 
ATOM      9  C   UNL     1      34.627 -15.235 -23.681  0.00  0.00    +0.015 C 
ATOM     10  C   UNL     1      31.856 -12.026 -19.829  0.00  0.00    -0.003 C 
ATOM     11  C   UNL     1      34.237 -16.969 -21.556  0.00  0.00    -0.003 C 
ATOM     12  C   UNL     1      31.606 -10.547 -21.687  0.00  0.00    +0.001 C 
ATOM     13  C   UNL     1      35.490 -16.317 -23.500  0.00  0.00    +0.001 C 
ATOM     14  C   UNL     1      31.559 -10.763 -20.324  0.00  0.00    -0.000 C 
ATOM     15  C   UNL     1      35.294 -17.186 -22.435  0.00  0.00    -0.000 C 
ENDROOT
BRANCH   1  16
ATOM     16  C   UNL     1      32.291 -13.701 -24.423  0.00  0.00    +0.093 C 
BRANCH  16  17
ATOM     17  C   UNL     1      33.456 -13.155 -25.268  0.00  0.00    -0.001 C 
ATOM     18  C   UNL     1      33.462 -13.773 -26.671  0.00  0.00    -0.000 C 
BRANCH  17  19
ATOM     19  C   UNL     1      33.472 -11.618 -25.375  0.00  0.00    -0.076 C 
BRANCH  19  20
ATOM     20  N   UNL     1      34.777 -11.060 -25.038  0.00  0.00    +0.384 N 
ATOM     21  C   UNL     1      34.633  -9.939 -24.108  0.00  0.00    -0.101 C 
ATOM     22  C   UNL     1      35.481 -10.630 -26.247  0.00  0.00    -0.101 C 
ATOM     23  H   UNL     1      35.328 -11.788 -24.584  0.00  0.00    -0.080 HD
ENDBRANCH  19  20
ENDBRANCH  17  19
ENDBRANCH  16  17
ENDBRANCH   1  16
TORSDOF 4
ENDMDL
MODEL 6
REMARK VINA RESULT:      -7.4      3.065      5.471
REMARK  Name = 5584
REMARK  4 active torsions:
REMARK  status: ('A' for Active; 'I' for Inactive)
REMARK    1  A    between atoms: N_1  and  C_16
REMARK    2  A    between atoms: C_16  and  C_17
REMARK    3  A    between atoms: C_17  and  C_19
REMARK    4  A    between atoms: C_19  and  N_20
REMARK                            x       y       z     vdW  Elec       q    Type
REMARK                         _______ _______ _______ _____ _____    ______ ____
ROOT
ATOM      1  N   UNL     1      31.900  -9.479 -22.628  0.00  0.00    -0.287 N 
ATOM      2  C   UNL     1      31.838  -9.869 -21.261  0.00  0.00    +0.048 C 
ATOM      3  C   UNL     1      31.782  -8.173 -23.173  0.00  0.00    +0.048 C 
ATOM      4  C   UNL     1      32.765  -7.634 -20.282  0.00  0.00    +0.032 C 
ATOM      5  C   UNL     1      33.518  -7.310 -21.562  0.00  0.00    +0.032 C 
ATOM      6  C   UNL     1      32.195  -9.032 -20.177  0.00  0.00    -0.008 C 
ATOM      7  C   UNL     1      32.546  -7.099 -22.687  0.00  0.00    -0.008 C 
ATOM      8  C   UNL     1      31.346 -11.160 -20.929  0.00  0.00    +0.015 C 
ATOM      9  C   UNL     1      30.890  -7.915 -24.236  0.00  0.00    +0.015 C 
ATOM     10  C   UNL     1      32.020  -9.493 -18.847  0.00  0.00    -0.003 C 
ATOM     11  C   UNL     1      32.415  -5.820 -23.256  0.00  0.00    -0.003 C 
ATOM     12  C   UNL     1      31.201 -11.603 -19.612  0.00  0.00    +0.001 C 
ATOM     13  C   UNL     1      30.763  -6.643 -24.796  0.00  0.00    +0.001 C 
ATOM     14  C   UNL     1      31.534 -10.764 -18.566  0.00  0.00    -0.000 C 
ATOM     15  C   UNL     1      31.529  -5.594 -24.305  0.00  0.00    -0.000 C 
ENDROOT
BRANCH   1  16
ATOM     16  C   UNL     1      31.937 -10.544 -23.642  0.00  0.00    +0.093 C 
BRANCH  16  17
ATOM     17  C   UNL     1      33.316 -11.225 -23.707  0.00  0.00    -0.001 C 
ATOM     18  C   UNL     1      33.235 -12.688 -23.256  0.00  0.00    -0.000 C 
BRANCH  17  19
ATOM     19  C   UNL     1      33.979 -11.143 -25.095  0.00  0.00    -0.076 C 
BRANCH  19  20
ATOM     20  N   UNL     1      35.259 -10.445 -25.051  0.00  0.00    +0.384 N 
ATOM     21  C   UNL     1      35.110  -9.135 -24.416  0.00  0.00    -0.101 C 
ATOM     22  C   UNL     1      35.812 -10.297 -26.398  0.00  0.00    -0.101 C 
ATOM     23  H   UNL     1      35.907 -11.003 -24.494  0.00  0.00    -0.080 HD
ENDBRANCH  19  20
ENDBRANCH  17  19
ENDBRANCH  16  17
ENDBRANCH   1  16
TORSDOF 4
ENDMDL
MODEL 7
REMARK VINA RESULT:      -7.3      1.797      6.418
REMARK  Name = 5584
REMARK  4 active torsions:
REMARK  status: ('A' for Active; 'I' for Inactive)
REMARK    1  A    between atoms: N_1  and  C_16
REMARK    2  A    between atoms: C_16  and  C_17
REMARK    3  A    between atoms: C_17  and  C_19
REMARK    4  A    between atoms: C_19  and  N_20
REMARK                            x       y       z     vdW  Elec       q    Type
REMARK                         _______ _______ _______ _____ _____    ______ ____
ROOT
ATOM      1  N   UNL     1      32.961 -11.882 -23.910  0.00  0.00    -0.287 N 
ATOM      2  C   UNL     1      33.152 -13.009 -24.758  0.00  0.00    +0.048 C 
ATOM      3  C   UNL     1      32.400 -11.851 -22.606  0.00  0.00    +0.048 C 
ATOM      4  C   UNL     1      33.444 -14.761 -22.844  0.00  0.00    +0.032 C 
ATOM      5  C   UNL     1      33.937 -13.706 -21.866  0.00  0.00    +0.032 C 
ATOM      6  C   UNL     1      33.339 -14.333 -24.293  0.00  0.00    -0.008 C 
ATOM      7  C   UNL     1      32.844 -12.714 -21.591  0.00  0.00    -0.008 C 
ATOM      8  C   UNL     1      33.110 -12.833 -26.167  0.00  0.00    +0.015 C 
ATOM      9  C   UNL     1      31.375 -10.935 -22.286  0.00  0.00    +0.015 C 
ATOM     10  C   UNL     1      33.440 -15.396 -25.225  0.00  0.00    -0.003 C 
ATOM     11  C   UNL     1      32.277 -12.651 -20.306  0.00  0.00    -0.003 C 
ATOM     12  C   UNL     1      33.233 -13.892 -27.069  0.00  0.00    +0.001 C 
ATOM     13  C   UNL     1      30.815 -10.877 -21.008  0.00  0.00    +0.001 C 
ATOM     14  C   UNL     1      33.393 -15.180 -26.597  0.00  0.00    -0.000 C 
ATOM     15  C   UNL     1      31.268 -11.737 -20.017  0.00  0.00    -0.000 C 
ENDROOT
BRANCH   1  16
ATOM     16  C   UNL     1      33.224 -10.549 -24.475  0.00  0.00    +0.093 C 
BRANCH  16  17
ATOM     17  C   UNL     1      34.674 -10.097 -24.228  0.00  0.00    -0.001 C 
ATOM     18  C   UNL     1      35.534 -10.277 -25.484  0.00  0.00    -0.000 C 
BRANCH  17  19
ATOM     19  C   UNL     1      34.789  -8.647 -23.720  0.00  0.00    -0.076 C 
BRANCH  19  20
ATOM     20  N   UNL     1      33.484  -8.060 -23.440  0.00  0.00    +0.384 N 
ATOM     21  C   UNL     1      33.312  -6.810 -24.182  0.00  0.00    -0.101 C 
ATOM     22  C   UNL     1      33.321  -7.825 -22.005  0.00  0.00    -0.101 C 
ATOM     23  H   UNL     1      32.766  -8.718 -23.744  0.00  0.00    -0.080 HD
ENDBRANCH  19  20
ENDBRANCH  17  19
ENDBRANCH  16  17
ENDBRANCH   1  16
TORSDOF 4
ENDMDL
MODEL 8
REMARK VINA RESULT:      -7.2      1.297      5.395
REMARK  Name = 5584
REMARK  4 active torsions:
REMARK  status: ('A' for Active; 'I' for Inactive)
REMARK    1  A    between atoms: N_1  and  C_16
REMARK    2  A    between atoms: C_16  and  C_17
REMARK    3  A    between atoms: C_17  and  C_19
REMARK    4  A    between atoms: C_19  and  N_20
REMARK                            x       y       z     vdW  Elec       q    Type
REMARK                         _______ _______ _______ _____ _____    ______ ____
ROOT
ATOM      1  N   UNL     1      34.115 -14.529 -23.261  0.00  0.00    -0.287 N 
ATOM      2  C   UNL     1      34.532 -15.880 -23.424  0.00  0.00    +0.048 C 
ATOM      3  C   UNL     1      33.991 -13.524 -24.255  0.00  0.00    +0.048 C 
ATOM      4  C   UNL     1      33.680 -16.148 -25.877  0.00  0.00    +0.032 C 
ATOM      5  C   UNL     1      32.620 -15.073 -25.695  0.00  0.00    +0.032 C 
ATOM      6  C   UNL     1      34.374 -16.623 -24.619  0.00  0.00    -0.008 C 
ATOM      7  C   UNL     1      33.276 -13.746 -25.444  0.00  0.00    -0.008 C 
ATOM      8  C   UNL     1      35.195 -16.537 -22.353  0.00  0.00    +0.015 C 
ATOM      9  C   UNL     1      34.580 -12.254 -24.072  0.00  0.00    +0.015 C 
ATOM     10  C   UNL     1      34.898 -17.938 -24.701  0.00  0.00    -0.003 C 
ATOM     11  C   UNL     1      33.161 -12.726 -26.404  0.00  0.00    -0.003 C 
ATOM     12  C   UNL     1      35.685 -17.842 -22.448  0.00  0.00    +0.001 C 
ATOM     13  C   UNL     1      34.462 -11.245 -25.030  0.00  0.00    +0.001 C 
ATOM     14  C   UNL     1      35.541 -18.543 -23.629  0.00  0.00    -0.000 C 
ATOM     15  C   UNL     1      33.750 -11.482 -26.198  0.00  0.00    -0.000 C 
ENDROOT
BRANCH   1  16
ATOM     16  C   UNL     1      33.927 -14.034 -21.888  0.00  0.00    +0.093 C 
BRANCH  16  17
ATOM     17  C   UNL     1      32.446 -14.047 -21.471  0.00  0.00    -0.001 C 
ATOM     18  C   UNL     1      32.081 -15.355 -20.760  0.00  0.00    -0.000 C 
BRANCH  17  19
ATOM     19  C   UNL     1      32.041 -12.846 -20.596  0.00  0.00    -0.076 C 
BRANCH  19  20
ATOM     20  N   UNL     1      31.101 -11.964 -21.278  0.00  0.00    +0.384 N 
ATOM     21  C   UNL     1      31.763 -11.253 -22.373  0.00  0.00    -0.101 C 
ATOM     22  C   UNL     1      30.513 -11.010 -20.336  0.00  0.00    -0.101 C 
ATOM     23  H   UNL     1      30.352 -12.536 -21.669  0.00  0.00    -0.080 HD
ENDBRANCH  19  20
ENDBRANCH  17  19
ENDBRANCH  16  17
ENDBRANCH   1  16
TORSDOF 4
ENDMDL
MODEL 9
REMARK VINA RESULT:      -7.2      9.851     13.785
REMARK  Name = 5584
REMARK  4 active torsions:
REMARK  status: ('A' for Active; 'I' for Inactive)
REMARK    1  A    between atoms: N_1  and  C_16
REMARK    2  A    between atoms: C_16  and  C_17
REMARK    3  A    between atoms: C_17  and  C_19
REMARK    4  A    between atoms: C_19  and  N_20
REMARK                            x       y       z     vdW  Elec       q    Type
REMARK                         _______ _______ _______ _____ _____    ______ ____
ROOT
ATOM      1  N   UNL     1      34.917 -23.706 -16.268  0.00  0.00    -0.287 N 
ATOM      2  C   UNL     1      35.130 -22.805 -17.348  0.00  0.00    +0.048 C 
ATOM      3  C   UNL     1      35.890 -24.389 -15.491  0.00  0.00    +0.048 C 
ATOM      4  C   UNL     1      37.439 -21.909 -16.524  0.00  0.00    +0.032 C 
ATOM      5  C   UNL     1      37.118 -22.228 -15.072  0.00  0.00    +0.032 C 
ATOM      6  C   UNL     1      36.287 -22.003 -17.500  0.00  0.00    -0.008 C 
ATOM      7  C   UNL     1      36.967 -23.711 -14.896  0.00  0.00    -0.008 C 
ATOM      8  C   UNL     1      34.158 -22.716 -18.380  0.00  0.00    +0.015 C 
ATOM      9  C   UNL     1      35.797 -25.782 -15.284  0.00  0.00    +0.015 C 
ATOM     10  C   UNL     1      36.434 -21.197 -18.658  0.00  0.00    -0.003 C 
ATOM     11  C   UNL     1      37.907 -24.413 -14.122  0.00  0.00    -0.003 C 
ATOM     12  C   UNL     1      34.313 -21.899 -19.502  0.00  0.00    +0.001 C 
ATOM     13  C   UNL     1      36.735 -26.474 -14.516  0.00  0.00    +0.001 C 
ATOM     14  C   UNL     1      35.458 -21.140 -19.645  0.00  0.00    -0.000 C 
ATOM     15  C   UNL     1      37.792 -25.787 -13.933  0.00  0.00    -0.000 C 
ENDROOT
BRANCH   1  16
ATOM     16  C   UNL     1      33.535 -24.126 -15.990  0.00  0.00    +0.093 C 
BRANCH  16  17
ATOM     17  C   UNL     1      33.058 -23.648 -14.607  0.00  0.00    -0.001 C 
ATOM     18  C   UNL     1      32.272 -22.336 -14.713  0.00  0.00    -0.000 C 
BRANCH  17  19
ATOM     19  C   UNL     1      32.224 -24.697 -13.847  0.00  0.00    -0.076 C 
BRANCH  19  20
ATOM     20  N   UNL     1      30.791 -24.461 -13.983  0.00  0.00    +0.384 N 
ATOM     21  C   UNL     1      30.151 -24.397 -12.668  0.00  0.00    -0.101 C 
ATOM     22  C   UNL     1      30.172 -25.507 -14.798  0.00  0.00    -0.101 C 
ATOM     23  H   UNL     1      30.658 -23.564 -14.451  0.00  0.00    -0.080 HD
ENDBRANCH  19  20
ENDBRANCH  17  19
ENDBRANCH  16  17
ENDBRANCH   1  16
TORSDOF 4
ENDMDL
