MODEL 1
REMARK VINA RESULT:      -7.9      0.000      0.000
REMARK  Name = 4633
REMARK  12 active torsions:
REMARK  status: ('A' for Active; 'I' for Inactive)
REMARK    1  A    between atoms: C_1  and  O_21
REMARK    2  A    between atoms: C_2  and  C_11
REMARK    3  A    between atoms: C_4  and  N_7
REMARK    4  A    between atoms: C_11  and  O_12
REMARK    5  A    between atoms: O_12  and  C_13
REMARK    6  A    between atoms: C_13  and  C_14
REMARK    7  A    between atoms: C_14  and  N_15
REMARK    8  A    between atoms: N_15  and  C_17
REMARK    9  A    between atoms: N_15  and  C_19
REMARK   10  A    between atoms: O_21  and  C_22
REMARK   11  A    between atoms: C_22  and  C_23
REMARK   12  A    between atoms: C_23  and  C_24
REMARK                            x       y       z     vdW  Elec       q    Type
REMARK                         _______ _______ _______ _____ _____    ______ ____
ROOT
ATOM      1  C   UNL     1      32.892 -22.853 -17.431  0.00  0.00    +0.151 C 
ATOM      2  C   UNL     1      34.486 -23.475 -15.727  0.00  0.00    +0.079 C 
ATOM      3  C   UNL     1      34.210 -23.076 -17.034  0.00  0.00    +0.045 C 
ATOM      4  C   UNL     1      31.849 -23.027 -16.521  0.00  0.00    +0.076 C 
ATOM      5  C   UNL     1      33.445 -23.651 -14.816  0.00  0.00    +0.008 C 
ATOM      6  C   UNL     1      32.126 -23.426 -15.214  0.00  0.00    +0.017 C 
ENDROOT
BRANCH   4   7
ATOM      7  N   UNL     1      30.510 -22.805 -16.910  0.00  0.00    -0.355 N 
ATOM      8  H   UNL     1      29.999 -23.525 -17.344  0.00  0.00    +0.142 HD
ATOM      9  H   UNL     1      30.089 -21.931 -16.747  0.00  0.00    +0.142 HD
ENDBRANCH   4   7
BRANCH   2  11
ATOM     10  O   UNL     1      36.543 -22.906 -14.663  0.00  0.00    -0.245 OA
ATOM     11  C   UNL     1      35.860 -23.709 -15.313  0.00  0.00    +0.341 C 
BRANCH  11  12
ATOM     12  O   UNL     1      36.310 -24.932 -15.730  0.00  0.00    -0.448 OA
BRANCH  12  13
ATOM     13  C   UNL     1      36.299 -25.990 -14.766  0.00  0.00    +0.186 C 
BRANCH  13  14
ATOM     14  C   UNL     1      37.687 -26.605 -14.698  0.00  0.00    -0.029 C 
BRANCH  14  15
ATOM     15  N   UNL     1      38.355 -26.232 -13.460  0.00  0.00    +0.389 N 
ATOM     16  H   UNL     1      38.790 -27.069 -13.073  0.00  0.00    -0.080 HD
BRANCH  15  17
ATOM     17  C   UNL     1      39.400 -25.238 -13.714  0.00  0.00    -0.077 C 
ATOM     18  C   UNL     1      40.073 -25.478 -15.054  0.00  0.00    -0.025 C 
ENDBRANCH  15  17
BRANCH  15  19
ATOM     19  C   UNL     1      37.390 -25.715 -12.486  0.00  0.00    -0.077 C 
ATOM     20  C   UNL     1      37.878 -24.417 -11.866  0.00  0.00    -0.025 C 
ENDBRANCH  15  19
ENDBRANCH  14  15
ENDBRANCH  13  14
ENDBRANCH  12  13
ENDBRANCH  11  12
ENDBRANCH   2  11
BRANCH   1  21
ATOM     21  O   UNL     1      32.641 -22.461 -18.721  0.00  0.00    -0.474 OA
BRANCH  21  22
ATOM     22  C   UNL     1      33.678 -21.753 -19.389  0.00  0.00    +0.205 C 
BRANCH  22  23
ATOM     23  C   UNL     1      33.073 -20.552 -20.101  0.00  0.00    +0.047 C 
BRANCH  23  24
ATOM     24  C   UNL     1      34.120 -19.789 -20.907  0.00  0.00    +0.004 C 
ATOM     25  C   UNL     1      35.525 -20.285 -20.607  0.00  0.00    +0.000 C 
ENDBRANCH  23  24
ENDBRANCH  22  23
ENDBRANCH  21  22
ENDBRANCH   1  21
TORSDOF 12
ENDMDL
MODEL 2
REMARK VINA RESULT:      -7.8      6.964     10.561
REMARK  Name = 4633
REMARK  12 active torsions:
REMARK  status: ('A' for Active; 'I' for Inactive)
REMARK    1  A    between atoms: C_1  and  O_21
REMARK    2  A    between atoms: C_2  and  C_11
REMARK    3  A    between atoms: C_4  and  N_7
REMARK    4  A    between atoms: C_11  and  O_12
REMARK    5  A    between atoms: O_12  and  C_13
REMARK    6  A    between atoms: C_13  and  C_14
REMARK    7  A    between atoms: C_14  and  N_15
REMARK    8  A    between atoms: N_15  and  C_17
REMARK    9  A    between atoms: N_15  and  C_19
REMARK   10  A    between atoms: O_21  and  C_22
REMARK   11  A    between atoms: C_22  and  C_23
REMARK   12  A    between atoms: C_23  and  C_24
REMARK                            x       y       z     vdW  Elec       q    Type
REMARK                         _______ _______ _______ _____ _____    ______ ____
ROOT
ATOM      1  C   UNL     1      32.915 -13.375 -22.986  0.00  0.00    +0.151 C 
ATOM      2  C   UNL     1      33.870 -15.056 -21.537  0.00  0.00    +0.079 C 
ATOM      3  C   UNL     1      33.791 -14.443 -22.788  0.00  0.00    +0.045 C 
ATOM      4  C   UNL     1      32.120 -12.921 -21.933  0.00  0.00    +0.076 C 
ATOM      5  C   UNL     1      33.075 -14.603 -20.486  0.00  0.00    +0.008 C 
ATOM      6  C   UNL     1      32.200 -13.534 -20.684  0.00  0.00    +0.017 C 
ENDROOT
BRANCH   4   7
ATOM      7  N   UNL     1      31.228 -11.842 -22.121  0.00  0.00    -0.355 N 
ATOM      8  H   UNL     1      30.473 -11.931 -22.747  0.00  0.00    +0.142 HD
ATOM      9  H   UNL     1      31.362 -11.002 -21.627  0.00  0.00    +0.142 HD
ENDBRANCH   4   7
BRANCH   2  11
ATOM     10  O   UNL     1      35.255 -16.494 -20.233  0.00  0.00    -0.245 OA
ATOM     11  C   UNL     1      34.783 -16.170 -21.331  0.00  0.00    +0.341 C 
BRANCH  11  12
ATOM     12  O   UNL     1      35.057 -16.820 -22.502  0.00  0.00    -0.448 OA
BRANCH  12  13
ATOM     13  C   UNL     1      35.877 -17.991 -22.417  0.00  0.00    +0.186 C 
BRANCH  13  14
ATOM     14  C   UNL     1      35.000 -19.176 -22.048  0.00  0.00    -0.029 C 
BRANCH  14  15
ATOM     15  N   UNL     1      35.173 -19.528 -20.647  0.00  0.00    +0.389 N 
ATOM     16  H   UNL     1      35.085 -18.675 -20.095  0.00  0.00    -0.080 HD
BRANCH  15  17
ATOM     17  C   UNL     1      34.139 -20.471 -20.217  0.00  0.00    -0.077 C 
ATOM     18  C   UNL     1      32.758 -20.005 -20.646  0.00  0.00    -0.025 C 
ENDBRANCH  15  17
BRANCH  15  19
ATOM     19  C   UNL     1      36.504 -20.098 -20.416  0.00  0.00    -0.077 C 
ATOM     20  C   UNL     1      36.439 -21.270 -19.453  0.00  0.00    -0.025 C 
ENDBRANCH  15  19
ENDBRANCH  14  15
ENDBRANCH  13  14
ENDBRANCH  12  13
ENDBRANCH  11  12
ENDBRANCH   2  11
BRANCH   1  21
ATOM     21  O   UNL     1      32.851 -12.786 -24.222  0.00  0.00    -0.474 OA
BRANCH  21  22
ATOM     22  C   UNL     1      34.014 -12.100 -24.666  0.00  0.00    +0.205 C 
BRANCH  22  23
ATOM     23  C   UNL     1      34.066 -10.736 -23.992  0.00  0.00    +0.047 C 
BRANCH  23  24
ATOM     24  C   UNL     1      35.004  -9.781 -24.724  0.00  0.00    +0.004 C 
ATOM     25  C   UNL     1      35.564 -10.411 -25.989  0.00  0.00    +0.000 C 
ENDBRANCH  23  24
ENDBRANCH  22  23
ENDBRANCH  21  22
ENDBRANCH   1  21
TORSDOF 12
ENDMDL
MODEL 3
REMARK VINA RESULT:      -7.8      4.486     10.010
REMARK  Name = 4633
REMARK  12 active torsions:
REMARK  status: ('A' for Active; 'I' for Inactive)
REMARK    1  A    between atoms: C_1  and  O_21
REMARK    2  A    between atoms: C_2  and  C_11
REMARK    3  A    between atoms: C_4  and  N_7
REMARK    4  A    between atoms: C_11  and  O_12
REMARK    5  A    between atoms: O_12  and  C_13
REMARK    6  A    between atoms: C_13  and  C_14
REMARK    7  A    between atoms: C_14  and  N_15
REMARK    8  A    between atoms: N_15  and  C_17
REMARK    9  A    between atoms: N_15  and  C_19
REMARK   10  A    between atoms: O_21  and  C_22
REMARK   11  A    between atoms: C_22  and  C_23
REMARK   12  A    between atoms: C_23  and  C_24
REMARK                            x       y       z     vdW  Elec       q    Type
REMARK                         _______ _______ _______ _____ _____    ______ ____
ROOT
ATOM      1  C   UNL     1      34.892 -21.391 -19.493  0.00  0.00    +0.151 C 
ATOM      2  C   UNL     1      34.946 -19.553 -21.059  0.00  0.00    +0.079 C 
ATOM      3  C   UNL     1      35.616 -20.499 -20.284  0.00  0.00    +0.045 C 
ATOM      4  C   UNL     1      33.498 -21.337 -19.477  0.00  0.00    +0.076 C 
ATOM      5  C   UNL     1      33.553 -19.497 -21.042  0.00  0.00    +0.008 C 
ATOM      6  C   UNL     1      32.829 -20.390 -20.251  0.00  0.00    +0.017 C 
ENDROOT
BRANCH   4   7
ATOM      7  N   UNL     1      32.753 -22.233 -18.679  0.00  0.00    -0.355 N 
ATOM      8  H   UNL     1      32.035 -21.894 -18.098  0.00  0.00    +0.142 HD
ATOM      9  H   UNL     1      32.953 -23.196 -18.704  0.00  0.00    +0.142 HD
ENDBRANCH   4   7
BRANCH   2  11
ATOM     10  O   UNL     1      36.934 -18.523 -21.878  0.00  0.00    -0.245 OA
ATOM     11  C   UNL     1      35.700 -18.622 -21.883  0.00  0.00    +0.341 C 
BRANCH  11  12
ATOM     12  O   UNL     1      34.877 -17.865 -22.671  0.00  0.00    -0.448 OA
BRANCH  12  13
ATOM     13  C   UNL     1      35.255 -16.500 -22.878  0.00  0.00    +0.186 C 
BRANCH  13  14
ATOM     14  C   UNL     1      34.354 -15.900 -23.946  0.00  0.00    -0.029 C 
BRANCH  14  15
ATOM     15  N   UNL     1      33.344 -15.042 -23.345  0.00  0.00    +0.389 N 
ATOM     16  H   UNL     1      32.513 -15.607 -23.173  0.00  0.00    -0.080 HD
BRANCH  15  17
ATOM     17  C   UNL     1      33.815 -14.504 -22.066  0.00  0.00    -0.077 C 
ATOM     18  C   UNL     1      32.781 -14.707 -20.972  0.00  0.00    -0.025 C 
ENDBRANCH  15  17
BRANCH  15  19
ATOM     19  C   UNL     1      32.986 -13.949 -24.253  0.00  0.00    -0.077 C 
ATOM     20  C   UNL     1      33.789 -12.696 -23.947  0.00  0.00    -0.025 C 
ENDBRANCH  15  19
ENDBRANCH  14  15
ENDBRANCH  13  14
ENDBRANCH  12  13
ENDBRANCH  11  12
ENDBRANCH   2  11
BRANCH   1  21
ATOM     21  O   UNL     1      35.569 -22.315 -18.739  0.00  0.00    -0.474 OA
BRANCH  21  22
ATOM     22  C   UNL     1      36.605 -21.821 -17.899  0.00  0.00    +0.205 C 
BRANCH  22  23
ATOM     23  C   UNL     1      36.382 -22.342 -16.487  0.00  0.00    +0.047 C 
BRANCH  23  24
ATOM     24  C   UNL     1      37.692 -22.775 -15.833  0.00  0.00    +0.004 C 
ATOM     25  C   UNL     1      37.523 -24.063 -15.045  0.00  0.00    +0.000 C 
ENDBRANCH  23  24
ENDBRANCH  22  23
ENDBRANCH  21  22
ENDBRANCH   1  21
TORSDOF 12
ENDMDL
MODEL 4
REMARK VINA RESULT:      -7.7      6.364      9.998
REMARK  Name = 4633
REMARK  12 active torsions:
REMARK  status: ('A' for Active; 'I' for Inactive)
REMARK    1  A    between atoms: C_1  and  O_21
REMARK    2  A    between atoms: C_2  and  C_11
REMARK    3  A    between atoms: C_4  and  N_7
REMARK    4  A    between atoms: C_11  and  O_12
REMARK    5  A    between atoms: O_12  and  C_13
REMARK    6  A    between atoms: C_13  and  C_14
REMARK    7  A    between atoms: C_14  and  N_15
REMARK    8  A    between atoms: N_15  and  C_17
REMARK    9  A    between atoms: N_15  and  C_19
REMARK   10  A    between atoms: O_21  and  C_22
REMARK   11  A    between atoms: C_22  and  C_23
REMARK   12  A    between atoms: C_23  and  C_24
REMARK                            x       y       z     vdW  Elec       q    Type
REMARK                         _______ _______ _______ _____ _____    ______ ____
ROOT
ATOM      1  C   UNL     1      33.453 -14.271 -23.542  0.00  0.00    +0.151 C 
ATOM      2  C   UNL     1      34.610 -16.211 -22.684  0.00  0.00    +0.079 C 
ATOM      3  C   UNL     1      34.030 -14.959 -22.474  0.00  0.00    +0.045 C 
ATOM      4  C   UNL     1      33.455 -14.835 -24.818  0.00  0.00    +0.076 C 
ATOM      5  C   UNL     1      34.613 -16.773 -23.959  0.00  0.00    +0.008 C 
ATOM      6  C   UNL     1      34.035 -16.085 -25.027  0.00  0.00    +0.017 C 
ENDROOT
BRANCH   4   7
ATOM      7  N   UNL     1      32.876 -14.148 -25.908  0.00  0.00    -0.355 N 
ATOM      8  H   UNL     1      32.055 -13.622 -25.777  0.00  0.00    +0.142 HD
ATOM      9  H   UNL     1      33.293 -14.198 -26.798  0.00  0.00    +0.142 HD
ENDBRANCH   4   7
BRANCH   2  11
ATOM     10  O   UNL     1      35.159 -16.560 -20.390  0.00  0.00    -0.245 OA
ATOM     11  C   UNL     1      35.212 -16.928 -21.571  0.00  0.00    +0.341 C 
BRANCH  11  12
ATOM     12  O   UNL     1      35.847 -18.065 -21.990  0.00  0.00    -0.448 OA
BRANCH  12  13
ATOM     13  C   UNL     1      36.264 -18.985 -20.974  0.00  0.00    +0.186 C 
BRANCH  13  14
ATOM     14  C   UNL     1      35.434 -20.252 -21.092  0.00  0.00    -0.029 C 
BRANCH  14  15
ATOM     15  N   UNL     1      34.966 -20.684 -19.784  0.00  0.00    +0.389 N 
ATOM     16  H   UNL     1      35.136 -19.927 -19.123  0.00  0.00    -0.080 HD
BRANCH  15  17
ATOM     17  C   UNL     1      33.528 -20.963 -19.813  0.00  0.00    -0.077 C 
ATOM     18  C   UNL     1      32.778 -19.901 -20.598  0.00  0.00    -0.025 C 
ENDBRANCH  15  17
BRANCH  15  19
ATOM     19  C   UNL     1      35.702 -21.870 -19.336  0.00  0.00    -0.077 C 
ATOM     20  C   UNL     1      36.626 -21.536 -18.178  0.00  0.00    -0.025 C 
ENDBRANCH  15  19
ENDBRANCH  14  15
ENDBRANCH  13  14
ENDBRANCH  12  13
ENDBRANCH  11  12
ENDBRANCH   2  11
BRANCH   1  21
ATOM     21  O   UNL     1      32.888 -13.042 -23.316  0.00  0.00    -0.474 OA
BRANCH  21  22
ATOM     22  C   UNL     1      32.083 -12.912 -22.152  0.00  0.00    +0.205 C 
BRANCH  22  23
ATOM     23  C   UNL     1      31.638 -11.462 -22.023  0.00  0.00    +0.047 C 
BRANCH  23  24
ATOM     24  C   UNL     1      30.679 -11.269 -20.852  0.00  0.00    +0.004 C 
ATOM     25  C   UNL     1      31.377 -10.638 -19.658  0.00  0.00    +0.000 C 
ENDBRANCH  23  24
ENDBRANCH  22  23
ENDBRANCH  21  22
ENDBRANCH   1  21
TORSDOF 12
ENDMDL
MODEL 5
REMARK VINA RESULT:      -7.7      6.683     10.181
REMARK  Name = 4633
REMARK  12 active torsions:
REMARK  status: ('A' for Active; 'I' for Inactive)
REMARK    1  A    between atoms: C_1  and  O_21
REMARK    2  A    between atoms: C_2  and  C_11
REMARK    3  A    between atoms: C_4  and  N_7
REMARK    4  A    between atoms: C_11  and  O_12
REMARK    5  A    between atoms: O_12  and  C_13
REMARK    6  A    between atoms: C_13  and  C_14
REMARK    7  A    between atoms: C_14  and  N_15
REMARK    8  A    between atoms: N_15  and  C_17
REMARK    9  A    between atoms: N_15  and  C_19
REMARK   10  A    between atoms: O_21  and  C_22
REMARK   11  A    between atoms: C_22  and  C_23
REMARK   12  A    between atoms: C_23  and  C_24
REMARK                            x       y       z     vdW  Elec       q    Type
REMARK                         _______ _______ _______ _____ _____    ______ ____
ROOT
ATOM      1  C   UNL     1      33.506 -14.530 -24.162  0.00  0.00    +0.151 C 
ATOM      2  C   UNL     1      34.667 -16.292 -22.987  0.00  0.00    +0.079 C 
ATOM      3  C   UNL     1      34.059 -15.037 -22.986  0.00  0.00    +0.045 C 
ATOM      4  C   UNL     1      33.560 -15.279 -25.338  0.00  0.00    +0.076 C 
ATOM      5  C   UNL     1      34.723 -17.040 -24.162  0.00  0.00    +0.008 C 
ATOM      6  C   UNL     1      34.168 -16.534 -25.338  0.00  0.00    +0.017 C 
ENDROOT
BRANCH   4   7
ATOM      7  N   UNL     1      33.005 -14.777 -26.536  0.00  0.00    -0.355 N 
ATOM      8  H   UNL     1      32.274 -14.120 -26.501  0.00  0.00    +0.142 HD
ATOM      9  H   UNL     1      33.349 -15.087 -27.405  0.00  0.00    +0.142 HD
ENDBRANCH   4   7
BRANCH   2  11
ATOM     10  O   UNL     1      35.099 -16.311 -20.642  0.00  0.00    -0.245 OA
ATOM     11  C   UNL     1      35.245 -16.820 -21.761  0.00  0.00    +0.341 C 
BRANCH  11  12
ATOM     12  O   UNL     1      35.972 -17.955 -21.995  0.00  0.00    -0.448 OA
BRANCH  12  13
ATOM     13  C   UNL     1      36.071 -18.894 -20.919  0.00  0.00    +0.186 C 
BRANCH  13  14
ATOM     14  C   UNL     1      35.108 -20.041 -21.181  0.00  0.00    -0.029 C 
BRANCH  14  15
ATOM     15  N   UNL     1      35.398 -21.166 -20.305  0.00  0.00    +0.389 N 
ATOM     16  H   UNL     1      35.639 -21.967 -20.890  0.00  0.00    -0.080 HD
BRANCH  15  17
ATOM     17  C   UNL     1      36.536 -20.866 -19.434  0.00  0.00    -0.077 C 
ATOM     18  C   UNL     1      36.528 -21.747 -18.196  0.00  0.00    -0.025 C 
ENDBRANCH  15  17
BRANCH  15  19
ATOM     19  C   UNL     1      34.223 -21.513 -19.500  0.00  0.00    -0.077 C 
ATOM     20  C   UNL     1      33.017 -20.682 -19.905  0.00  0.00    -0.025 C 
ENDBRANCH  15  19
ENDBRANCH  14  15
ENDBRANCH  13  14
ENDBRANCH  12  13
ENDBRANCH  11  12
ENDBRANCH   2  11
BRANCH   1  21
ATOM     21  O   UNL     1      32.912 -13.294 -24.142  0.00  0.00    -0.474 OA
BRANCH  21  22
ATOM     22  C   UNL     1      33.776 -12.171 -24.034  0.00  0.00    +0.205 C 
BRANCH  22  23
ATOM     23  C   UNL     1      33.993 -11.583 -25.421  0.00  0.00    +0.047 C 
BRANCH  23  24
ATOM     24  C   UNL     1      35.093 -10.525 -25.419  0.00  0.00    +0.004 C 
ATOM     25  C   UNL     1      34.870  -9.491 -24.327  0.00  0.00    +0.000 C 
ENDBRANCH  23  24
ENDBRANCH  22  23
ENDBRANCH  21  22
ENDBRANCH   1  21
TORSDOF 12
ENDMDL
MODEL 6
REMARK VINA RESULT:      -7.6      1.226      2.124
REMARK  Name = 4633
REMARK  12 active torsions:
REMARK  status: ('A' for Active; 'I' for Inactive)
REMARK    1  A    between atoms: C_1  and  O_21
REMARK    2  A    between atoms: C_2  and  C_11
REMARK    3  A    between atoms: C_4  and  N_7
REMARK    4  A    between atoms: C_11  and  O_12
REMARK    5  A    between atoms: O_12  and  C_13
REMARK    6  A    between atoms: C_13  and  C_14
REMARK    7  A    between atoms: C_14  and  N_15
REMARK    8  A    between atoms: N_15  and  C_17
REMARK    9  A    between atoms: N_15  and  C_19
REMARK   10  A    between atoms: O_21  and  C_22
REMARK   11  A    between atoms: C_22  and  C_23
REMARK   12  A    between atoms: C_23  and  C_24
REMARK                            x       y       z     vdW  Elec       q    Type
REMARK                         _______ _______ _______ _____ _____    ______ ____
ROOT
ATOM      1  C   UNL     1      32.277 -23.004 -16.710  0.00  0.00    +0.151 C 
ATOM      2  C   UNL     1      33.181 -23.701 -14.581  0.00  0.00    +0.079 C 
ATOM      3  C   UNL     1      33.370 -23.368 -15.922  0.00  0.00    +0.045 C 
ATOM      4  C   UNL     1      30.997 -22.973 -16.157  0.00  0.00    +0.076 C 
ATOM      5  C   UNL     1      31.902 -23.672 -14.028  0.00  0.00    +0.008 C 
ATOM      6  C   UNL     1      30.809 -23.308 -14.816  0.00  0.00    +0.017 C 
ENDROOT
BRANCH   4   7
ATOM      7  N   UNL     1      29.882 -22.609 -16.944  0.00  0.00    -0.355 N 
ATOM      8  H   UNL     1      29.843 -22.871 -17.891  0.00  0.00    +0.142 HD
ATOM      9  H   UNL     1      29.147 -22.091 -16.544  0.00  0.00    +0.142 HD
ENDBRANCH   4   7
BRANCH   2  11
ATOM     10  O   UNL     1      34.246 -24.404 -12.567  0.00  0.00    -0.245 OA
ATOM     11  C   UNL     1      34.319 -24.081 -13.760  0.00  0.00    +0.341 C 
BRANCH  11  12
ATOM     12  O   UNL     1      35.488 -24.040 -14.469  0.00  0.00    -0.448 OA
BRANCH  12  13
ATOM     13  C   UNL     1      36.061 -25.296 -14.848  0.00  0.00    +0.186 C 
BRANCH  13  14
ATOM     14  C   UNL     1      36.899 -25.819 -13.692  0.00  0.00    -0.029 C 
BRANCH  14  15
ATOM     15  N   UNL     1      37.955 -24.878 -13.355  0.00  0.00    +0.389 N 
ATOM     16  H   UNL     1      37.859 -24.065 -13.963  0.00  0.00    -0.080 HD
BRANCH  15  17
ATOM     17  C   UNL     1      37.833 -24.437 -11.964  0.00  0.00    -0.077 C 
ATOM     18  C   UNL     1      37.503 -22.956 -11.884  0.00  0.00    -0.025 C 
ENDBRANCH  15  17
BRANCH  15  19
ATOM     19  C   UNL     1      39.274 -25.475 -13.582  0.00  0.00    -0.077 C 
ATOM     20  C   UNL     1      39.752 -25.228 -15.002  0.00  0.00    -0.025 C 
ENDBRANCH  15  19
ENDBRANCH  14  15
ENDBRANCH  13  14
ENDBRANCH  12  13
ENDBRANCH  11  12
ENDBRANCH   2  11
BRANCH   1  21
ATOM     21  O   UNL     1      32.483 -22.679 -18.026  0.00  0.00    -0.474 OA
BRANCH  21  22
ATOM     22  C   UNL     1      33.793 -22.885 -18.540  0.00  0.00    +0.205 C 
BRANCH  22  23
ATOM     23  C   UNL     1      34.187 -21.677 -19.377  0.00  0.00    +0.047 C 
BRANCH  23  24
ATOM     24  C   UNL     1      32.969 -20.856 -19.790  0.00  0.00    +0.004 C 
ATOM     25  C   UNL     1      33.342 -19.766 -20.782  0.00  0.00    +0.000 C 
ENDBRANCH  23  24
ENDBRANCH  22  23
ENDBRANCH  21  22
ENDBRANCH   1  21
TORSDOF 12
ENDMDL
MODEL 7
REMARK VINA RESULT:      -7.6      7.441     11.210
REMARK  Name = 4633
REMARK  12 active torsions:
REMARK  status: ('A' for Active; 'I' for Inactive)
REMARK    1  A    between atoms: C_1  and  O_21
REMARK    2  A    between atoms: C_2  and  C_11
REMARK    3  A    between atoms: C_4  and  N_7
REMARK    4  A    between atoms: C_11  and  O_12
REMARK    5  A    between atoms: O_12  and  C_13
REMARK    6  A    between atoms: C_13  and  C_14
REMARK    7  A    between atoms: C_14  and  N_15
REMARK    8  A    between atoms: N_15  and  C_17
REMARK    9  A    between atoms: N_15  and  C_19
REMARK   10  A    between atoms: O_21  and  C_22
REMARK   11  A    between atoms: C_22  and  C_23
REMARK   12  A    between atoms: C_23  and  C_24
REMARK                            x       y       z     vdW  Elec       q    Type
REMARK                         _______ _______ _______ _____ _____    ______ ____
ROOT
ATOM      1  C   UNL     1      33.109 -12.757 -23.120  0.00  0.00    +0.151 C 
ATOM      2  C   UNL     1      33.951 -15.021 -23.136  0.00  0.00    +0.079 C 
ATOM      3  C   UNL     1      33.901 -13.747 -23.701  0.00  0.00    +0.045 C 
ATOM      4  C   UNL     1      32.368 -13.040 -21.972  0.00  0.00    +0.076 C 
ATOM      5  C   UNL     1      33.209 -15.305 -21.990  0.00  0.00    +0.008 C 
ATOM      6  C   UNL     1      32.418 -14.314 -21.408  0.00  0.00    +0.017 C 
ENDROOT
BRANCH   4   7
ATOM      7  N   UNL     1      31.561 -12.048 -21.374  0.00  0.00    -0.355 N 
ATOM      8  H   UNL     1      31.273 -11.266 -21.899  0.00  0.00    +0.142 HD
ATOM      9  H   UNL     1      31.288 -12.138 -20.433  0.00  0.00    +0.142 HD
ENDBRANCH   4   7
BRANCH   2  11
ATOM     10  O   UNL     1      34.752 -16.353 -24.944  0.00  0.00    -0.245 OA
ATOM     11  C   UNL     1      34.776 -16.054 -23.743  0.00  0.00    +0.341 C 
BRANCH  11  12
ATOM     12  O   UNL     1      35.587 -16.656 -22.821  0.00  0.00    -0.448 OA
BRANCH  12  13
ATOM     13  C   UNL     1      35.496 -18.081 -22.712  0.00  0.00    +0.186 C 
BRANCH  13  14
ATOM     14  C   UNL     1      36.136 -18.513 -21.402  0.00  0.00    -0.029 C 
BRANCH  14  15
ATOM     15  N   UNL     1      35.185 -19.252 -20.584  0.00  0.00    +0.389 N 
ATOM     16  H   UNL     1      35.267 -18.914 -19.625  0.00  0.00    -0.080 HD
BRANCH  15  17
ATOM     17  C   UNL     1      33.815 -19.021 -21.046  0.00  0.00    -0.077 C 
ATOM     18  C   UNL     1      32.892 -20.147 -20.611  0.00  0.00    -0.025 C 
ENDBRANCH  15  17
BRANCH  15  19
ATOM     19  C   UNL     1      35.491 -20.685 -20.602  0.00  0.00    -0.077 C 
ATOM     20  C   UNL     1      36.386 -21.069 -19.437  0.00  0.00    -0.025 C 
ENDBRANCH  15  19
ENDBRANCH  14  15
ENDBRANCH  13  14
ENDBRANCH  12  13
ENDBRANCH  11  12
ENDBRANCH   2  11
BRANCH   1  21
ATOM     21  O   UNL     1      33.073 -11.511 -23.691  0.00  0.00    -0.474 OA
BRANCH  21  22
ATOM     22  C   UNL     1      33.978 -11.270 -24.760  0.00  0.00    +0.205 C 
BRANCH  22  23
ATOM     23  C   UNL     1      34.817 -10.044 -24.428  0.00  0.00    +0.047 C 
BRANCH  23  24
ATOM     24  C   UNL     1      33.969  -8.929 -23.823  0.00  0.00    +0.004 C 
ATOM     25  C   UNL     1      34.757  -7.635 -23.697  0.00  0.00    +0.000 C 
ENDBRANCH  23  24
ENDBRANCH  22  23
ENDBRANCH  21  22
ENDBRANCH   1  21
TORSDOF 12
ENDMDL
MODEL 8
REMARK VINA RESULT:      -7.6      1.491      2.282
REMARK  Name = 4633
REMARK  12 active torsions:
REMARK  status: ('A' for Active; 'I' for Inactive)
REMARK    1  A    between atoms: C_1  and  O_21
REMARK    2  A    between atoms: C_2  and  C_11
REMARK    3  A    between atoms: C_4  and  N_7
REMARK    4  A    between atoms: C_11  and  O_12
REMARK    5  A    between atoms: O_12  and  C_13
REMARK    6  A    between atoms: C_13  and  C_14
REMARK    7  A    between atoms: C_14  and  N_15
REMARK    8  A    between atoms: N_15  and  C_17
REMARK    9  A    between atoms: N_15  and  C_19
REMARK   10  A    between atoms: O_21  and  C_22
REMARK   11  A    between atoms: C_22  and  C_23
REMARK   12  A    between atoms: C_23  and  C_24
REMARK                            x       y       z     vdW  Elec       q    Type
REMARK                         _______ _______ _______ _____ _____    ______ ____
ROOT
ATOM      1  C   UNL     1      31.942 -22.939 -16.673  0.00  0.00    +0.151 C 
ATOM      2  C   UNL     1      32.875 -23.589 -14.541  0.00  0.00    +0.079 C 
ATOM      3  C   UNL     1      33.051 -23.236 -15.879  0.00  0.00    +0.045 C 
ATOM      4  C   UNL     1      30.659 -22.993 -16.128  0.00  0.00    +0.076 C 
ATOM      5  C   UNL     1      31.593 -23.644 -13.997  0.00  0.00    +0.008 C 
ATOM      6  C   UNL     1      30.485 -23.346 -14.790  0.00  0.00    +0.017 C 
ENDROOT
BRANCH   4   7
ATOM      7  N   UNL     1      29.529 -22.696 -16.920  0.00  0.00    -0.355 N 
ATOM      8  H   UNL     1      29.618 -22.626 -17.898  0.00  0.00    +0.142 HD
ATOM      9  H   UNL     1      28.652 -22.558 -16.494  0.00  0.00    +0.142 HD
ENDBRANCH   4   7
BRANCH   2  11
ATOM     10  O   UNL     1      33.983 -24.546 -12.659  0.00  0.00    -0.245 OA
ATOM     11  C   UNL     1      34.030 -23.900 -13.714  0.00  0.00    +0.341 C 
BRANCH  11  12
ATOM     12  O   UNL     1      35.183 -23.389 -14.246  0.00  0.00    -0.448 OA
BRANCH  12  13
ATOM     13  C   UNL     1      36.372 -23.521 -13.460  0.00  0.00    +0.186 C 
BRANCH  13  14
ATOM     14  C   UNL     1      37.525 -23.894 -14.378  0.00  0.00    -0.029 C 
BRANCH  14  15
ATOM     15  N   UNL     1      38.142 -25.140 -13.949  0.00  0.00    +0.389 N 
ATOM     16  H   UNL     1      38.548 -24.989 -13.025  0.00  0.00    -0.080 HD
BRANCH  15  17
ATOM     17  C   UNL     1      37.143 -26.206 -13.850  0.00  0.00    -0.077 C 
ATOM     18  C   UNL     1      36.811 -26.776 -15.219  0.00  0.00    -0.025 C 
ENDBRANCH  15  17
BRANCH  15  19
ATOM     19  C   UNL     1      39.212 -25.533 -14.870  0.00  0.00    -0.077 C 
ATOM     20  C   UNL     1      40.502 -25.821 -14.121  0.00  0.00    -0.025 C 
ENDBRANCH  15  19
ENDBRANCH  14  15
ENDBRANCH  13  14
ENDBRANCH  12  13
ENDBRANCH  11  12
ENDBRANCH   2  11
BRANCH   1  21
ATOM     21  O   UNL     1      32.135 -22.595 -17.986  0.00  0.00    -0.474 OA
BRANCH  21  22
ATOM     22  C   UNL     1      33.478 -22.572 -18.451  0.00  0.00    +0.205 C 
BRANCH  22  23
ATOM     23  C   UNL     1      33.601 -21.521 -19.545  0.00  0.00    +0.047 C 
BRANCH  23  24
ATOM     24  C   UNL     1      35.055 -21.128 -19.789  0.00  0.00    +0.004 C 
ATOM     25  C   UNL     1      35.977 -21.724 -18.737  0.00  0.00    +0.000 C 
ENDBRANCH  23  24
ENDBRANCH  22  23
ENDBRANCH  21  22
ENDBRANCH   1  21
TORSDOF 12
ENDMDL
MODEL 9
REMARK VINA RESULT:      -7.6      6.624     10.341
REMARK  Name = 4633
REMARK  12 active torsions:
REMARK  status: ('A' for Active; 'I' for Inactive)
REMARK    1  A    between atoms: C_1  and  O_21
REMARK    2  A    between atoms: C_2  and  C_11
REMARK    3  A    between atoms: C_4  and  N_7
REMARK    4  A    between atoms: C_11  and  O_12
REMARK    5  A    between atoms: O_12  and  C_13
REMARK    6  A    between atoms: C_13  and  C_14
REMARK    7  A    between atoms: C_14  and  N_15
REMARK    8  A    between atoms: N_15  and  C_17
REMARK    9  A    between atoms: N_15  and  C_19
REMARK   10  A    between atoms: O_21  and  C_22
REMARK   11  A    between atoms: C_22  and  C_23
REMARK   12  A    between atoms: C_23  and  C_24
REMARK                            x       y       z     vdW  Elec       q    Type
REMARK                         _______ _______ _______ _____ _____    ______ ____
ROOT
ATOM      1  C   UNL     1      32.872 -13.163 -22.758  0.00  0.00    +0.151 C 
ATOM      2  C   UNL     1      33.686 -14.996 -21.412  0.00  0.00    +0.079 C 
ATOM      3  C   UNL     1      33.696 -14.279 -22.608  0.00  0.00    +0.045 C 
ATOM      4  C   UNL     1      32.039 -12.765 -21.713  0.00  0.00    +0.076 C 
ATOM      5  C   UNL     1      32.852 -14.599 -20.367  0.00  0.00    +0.008 C 
ATOM      6  C   UNL     1      32.029 -13.483 -20.518  0.00  0.00    +0.017 C 
ENDROOT
BRANCH   4   7
ATOM      7  N   UNL     1      31.198 -11.638 -21.852  0.00  0.00    -0.355 N 
ATOM      8  H   UNL     1      31.133 -11.178 -22.720  0.00  0.00    +0.142 HD
ATOM      9  H   UNL     1      30.680 -11.313 -21.082  0.00  0.00    +0.142 HD
ENDBRANCH   4   7
BRANCH   2  11
ATOM     10  O   UNL     1      35.197 -16.416 -20.234  0.00  0.00    -0.245 OA
ATOM     11  C   UNL     1      34.544 -16.160 -21.255  0.00  0.00    +0.341 C 
BRANCH  11  12
ATOM     12  O   UNL     1      34.542 -16.942 -22.377  0.00  0.00    -0.448 OA
BRANCH  12  13
ATOM     13  C   UNL     1      35.599 -17.901 -22.500  0.00  0.00    +0.186 C 
BRANCH  13  14
ATOM     14  C   UNL     1      35.065 -19.269 -22.110  0.00  0.00    -0.029 C 
BRANCH  14  15
ATOM     15  N   UNL     1      35.217 -19.493 -20.680  0.00  0.00    +0.389 N 
ATOM     16  H   UNL     1      35.085 -18.599 -20.206  0.00  0.00    -0.080 HD
BRANCH  15  17
ATOM     17  C   UNL     1      34.208 -20.435 -20.192  0.00  0.00    -0.077 C 
ATOM     18  C   UNL     1      32.814 -20.028 -20.640  0.00  0.00    -0.025 C 
ENDBRANCH  15  17
BRANCH  15  19
ATOM     19  C   UNL     1      36.562 -19.988 -20.374  0.00  0.00    -0.077 C 
ATOM     20  C   UNL     1      36.502 -21.298 -19.607  0.00  0.00    -0.025 C 
ENDBRANCH  15  19
ENDBRANCH  14  15
ENDBRANCH  13  14
ENDBRANCH  12  13
ENDBRANCH  11  12
ENDBRANCH   2  11
BRANCH   1  21
ATOM     21  O   UNL     1      32.897 -12.471 -23.941  0.00  0.00    -0.474 OA
BRANCH  21  22
ATOM     22  C   UNL     1      33.970 -12.757 -24.829  0.00  0.00    +0.205 C 
BRANCH  22  23
ATOM     23  C   UNL     1      33.571 -12.334 -26.235  0.00  0.00    +0.047 C 
BRANCH  23  24
ATOM     24  C   UNL     1      33.433 -13.534 -27.167  0.00  0.00    +0.004 C 
ATOM     25  C   UNL     1      32.938 -14.764 -26.422  0.00  0.00    +0.000 C 
ENDBRANCH  23  24
ENDBRANCH  22  23
ENDBRANCH  21  22
ENDBRANCH   1  21
TORSDOF 12
ENDMDL
