MODEL 1
REMARK VINA RESULT:     -10.6      0.000      0.000
REMARK  Name = 16071605
REMARK  7 active torsions:
REMARK  status: ('A' for Active; 'I' for Inactive)
REMARK    1  A    between atoms: C_3  and  S_11
REMARK    2  A    between atoms: C_7  and  O_24
REMARK    3  A    between atoms: S_11  and  C_14
REMARK    4  A    between atoms: O_24  and  C_25
REMARK    5  A    between atoms: C_25  and  C_26
REMARK    6  A    between atoms: C_26  and  C_27
REMARK    7  A    between atoms: C_27  and  N_28
REMARK                            x       y       z     vdW  Elec       q    Type
REMARK                         _______ _______ _______ _____ _____    ______ ____
ROOT
ATOM      1  N   UNL     1      35.144 -17.936 -24.417  0.00  0.00    -0.260 N 
ATOM      2  N   UNL     1      34.574 -17.410 -25.519  0.00  0.00    -0.172 NA
ATOM      3  C   UNL     1      34.977 -17.183 -23.310  0.00  0.00    +0.186 A 
ATOM      4  C   UNL     1      34.265 -16.105 -23.685  0.00  0.00    +0.057 A 
ATOM      5  C   UNL     1      34.014 -16.262 -25.098  0.00  0.00    +0.104 A 
ATOM      6  C   UNL     1      33.858 -15.058 -22.869  0.00  0.00    +0.041 C 
ATOM      7  C   UNL     1      33.129 -14.102 -23.604  0.00  0.00    +0.139 C 
ATOM      8  C   UNL     1      33.282 -15.291 -25.806  0.00  0.00    +0.024 C 
ATOM      9  C   UNL     1      32.853 -14.212 -25.004  0.00  0.00    +0.039 C 
ATOM     10  H   UNL     1      35.635 -18.789 -24.420  0.00  0.00    +0.190 HD
ENDROOT
BRANCH   3  11
ATOM     11  S   UNL     1      35.665 -17.720 -21.746  0.00  0.00    +0.043 S 
ATOM     12  O   UNL     1      35.577 -16.594 -20.838  0.00  0.00    -0.163 OA
ATOM     13  O   UNL     1      36.938 -18.310 -22.110  0.00  0.00    -0.163 OA
BRANCH  11  14
ATOM     14  C   UNL     1      34.602 -18.976 -21.128  0.00  0.00    +0.112 C 
ATOM     15  C   UNL     1      35.060 -20.030 -20.320  0.00  0.00    +0.018 C 
ATOM     16  C   UNL     1      34.139 -21.003 -19.864  0.00  0.00    +0.001 C 
ATOM     17  C   UNL     1      33.257 -18.883 -21.481  0.00  0.00    +0.019 C 
ATOM     18  C   UNL     1      36.412 -20.141 -19.955  0.00  0.00    +0.001 C 
ATOM     19  C   UNL     1      32.787 -20.893 -20.230  0.00  0.00    +0.000 C 
ATOM     20  C   UNL     1      32.350 -19.839 -21.033  0.00  0.00    +0.001 C 
ATOM     21  C   UNL     1      34.596 -22.057 -19.056  0.00  0.00    +0.000 C 
ATOM     22  C   UNL     1      36.849 -21.194 -19.152  0.00  0.00    +0.000 C 
ATOM     23  C   UNL     1      35.942 -22.151 -18.704  0.00  0.00    +0.000 C 
ENDBRANCH  11  14
ENDBRANCH   3  11
BRANCH   7  24
ATOM     24  O   UNL     1      32.654 -13.001 -22.940  0.00  0.00    -0.476 OA
BRANCH  24  25
ATOM     25  C   UNL     1      32.228 -13.198 -21.597  0.00  0.00    +0.203 C 
BRANCH  25  26
ATOM     26  C   UNL     1      31.511 -11.943 -21.119  0.00  0.00    +0.025 C 
BRANCH  26  27
ATOM     27  C   UNL     1      31.314 -10.943 -22.254  0.00  0.00    -0.074 C 
BRANCH  27  28
ATOM     28  N   UNL     1      32.393  -9.962 -22.257  0.00  0.00    +0.384 N 
ATOM     29  C   UNL     1      32.795  -9.642 -23.628  0.00  0.00    -0.101 C 
ATOM     30  C   UNL     1      31.987  -8.746 -21.550  0.00  0.00    -0.101 C 
ATOM     31  H   UNL     1      33.193 -10.368 -21.772  0.00  0.00    -0.080 HD
ENDBRANCH  27  28
ENDBRANCH  26  27
ENDBRANCH  25  26
ENDBRANCH  24  25
ENDBRANCH   7  24
TORSDOF 7
ENDMDL
MODEL 2
REMARK VINA RESULT:     -10.4      4.070      6.765
REMARK  Name = 16071605
REMARK  7 active torsions:
REMARK  status: ('A' for Active; 'I' for Inactive)
REMARK    1  A    between atoms: C_3  and  S_11
REMARK    2  A    between atoms: C_7  and  O_24
REMARK    3  A    between atoms: S_11  and  C_14
REMARK    4  A    between atoms: O_24  and  C_25
REMARK    5  A    between atoms: C_25  and  C_26
REMARK    6  A    between atoms: C_26  and  C_27
REMARK    7  A    between atoms: C_27  and  N_28
REMARK                            x       y       z     vdW  Elec       q    Type
REMARK                         _______ _______ _______ _____ _____    ______ ____
ROOT
ATOM      1  N   UNL     1      36.153 -21.750 -18.304  0.00  0.00    -0.260 N 
ATOM      2  N   UNL     1      37.122 -20.908 -18.715  0.00  0.00    -0.172 NA
ATOM      3  C   UNL     1      35.032 -21.689 -19.052  0.00  0.00    +0.186 A 
ATOM      4  C   UNL     1      35.257 -20.765 -20.003  0.00  0.00    +0.057 A 
ATOM      5  C   UNL     1      36.596 -20.275 -19.778  0.00  0.00    +0.104 A 
ATOM      6  C   UNL     1      34.374 -20.371 -21.000  0.00  0.00    +0.041 C 
ATOM      7  C   UNL     1      34.950 -19.381 -21.821  0.00  0.00    +0.139 C 
ATOM      8  C   UNL     1      37.145 -19.285 -20.614  0.00  0.00    +0.024 C 
ATOM      9  C   UNL     1      36.271 -18.863 -21.638  0.00  0.00    +0.039 C 
ATOM     10  H   UNL     1      36.255 -22.353 -17.534  0.00  0.00    +0.190 HD
ENDROOT
BRANCH   3  11
ATOM     11  S   UNL     1      33.632 -22.735 -18.659  0.00  0.00    +0.043 S 
ATOM     12  O   UNL     1      33.819 -23.977 -19.382  0.00  0.00    -0.163 OA
ATOM     13  O   UNL     1      32.484 -21.881 -18.891  0.00  0.00    -0.163 OA
BRANCH  11  14
ATOM     14  C   UNL     1      33.740 -23.104 -16.944  0.00  0.00    +0.112 C 
ATOM     15  C   UNL     1      32.612 -23.182 -16.111  0.00  0.00    +0.018 C 
ATOM     16  C   UNL     1      32.784 -23.484 -14.739  0.00  0.00    +0.001 C 
ATOM     17  C   UNL     1      35.019 -23.320 -16.432  0.00  0.00    +0.019 C 
ATOM     18  C   UNL     1      31.316 -22.967 -16.608  0.00  0.00    +0.001 C 
ATOM     19  C   UNL     1      34.080 -23.699 -14.241  0.00  0.00    +0.000 C 
ATOM     20  C   UNL     1      35.189 -23.617 -15.083  0.00  0.00    +0.001 C 
ATOM     21  C   UNL     1      31.657 -23.563 -13.905  0.00  0.00    +0.000 C 
ATOM     22  C   UNL     1      30.207 -23.049 -15.766  0.00  0.00    +0.000 C 
ATOM     23  C   UNL     1      30.377 -23.346 -14.416  0.00  0.00    +0.000 C 
ENDBRANCH  11  14
ENDBRANCH   3  11
BRANCH   7  24
ATOM     24  O   UNL     1      34.202 -18.885 -22.856  0.00  0.00    -0.476 OA
BRANCH  24  25
ATOM     25  C   UNL     1      34.642 -19.199 -24.171  0.00  0.00    +0.203 C 
BRANCH  25  26
ATOM     26  C   UNL     1      34.344 -18.019 -25.086  0.00  0.00    +0.025 C 
BRANCH  26  27
ATOM     27  C   UNL     1      34.972 -16.731 -24.562  0.00  0.00    -0.074 C 
BRANCH  27  28
ATOM     28  N   UNL     1      33.987 -15.951 -23.823  0.00  0.00    +0.384 N 
ATOM     29  C   UNL     1      34.575 -15.402 -22.600  0.00  0.00    -0.101 C 
ATOM     30  C   UNL     1      33.451 -14.874 -24.657  0.00  0.00    -0.101 C 
ATOM     31  H   UNL     1      33.220 -16.572 -23.564  0.00  0.00    -0.080 HD
ENDBRANCH  27  28
ENDBRANCH  26  27
ENDBRANCH  25  26
ENDBRANCH  24  25
ENDBRANCH   7  24
TORSDOF 7
ENDMDL
MODEL 3
REMARK VINA RESULT:     -10.2      3.736      9.072
REMARK  Name = 16071605
REMARK  7 active torsions:
REMARK  status: ('A' for Active; 'I' for Inactive)
REMARK    1  A    between atoms: C_3  and  S_11
REMARK    2  A    between atoms: C_7  and  O_24
REMARK    3  A    between atoms: S_11  and  C_14
REMARK    4  A    between atoms: O_24  and  C_25
REMARK    5  A    between atoms: C_25  and  C_26
REMARK    6  A    between atoms: C_26  and  C_27
REMARK    7  A    between atoms: C_27  and  N_28
REMARK                            x       y       z     vdW  Elec       q    Type
REMARK                         _______ _______ _______ _____ _____    ______ ____
ROOT
ATOM      1  N   UNL     1      36.989 -19.165 -21.157  0.00  0.00    -0.260 N 
ATOM      2  N   UNL     1      37.535 -19.829 -20.119  0.00  0.00    -0.172 NA
ATOM      3  C   UNL     1      35.681 -19.439 -21.346  0.00  0.00    +0.186 A 
ATOM      4  C   UNL     1      35.336 -20.325 -20.395  0.00  0.00    +0.057 A 
ATOM      5  C   UNL     1      36.528 -20.566 -19.618  0.00  0.00    +0.104 A 
ATOM      6  C   UNL     1      34.081 -20.889 -20.206  0.00  0.00    +0.041 C 
ATOM      7  C   UNL     1      34.087 -21.776 -19.111  0.00  0.00    +0.139 C 
ATOM      8  C   UNL     1      36.505 -21.457 -18.529  0.00  0.00    +0.024 C 
ATOM      9  C   UNL     1      35.241 -22.048 -18.310  0.00  0.00    +0.039 C 
ATOM     10  H   UNL     1      37.495 -18.539 -21.722  0.00  0.00    +0.190 HD
ENDROOT
BRANCH   3  11
ATOM     11  S   UNL     1      34.781 -18.651 -22.679  0.00  0.00    +0.043 S 
ATOM     12  O   UNL     1      33.475 -19.276 -22.732  0.00  0.00    -0.163 OA
ATOM     13  O   UNL     1      35.701 -18.706 -23.799  0.00  0.00    -0.163 OA
BRANCH  11  14
ATOM     14  C   UNL     1      34.542 -16.975 -22.209  0.00  0.00    +0.112 C 
ATOM     15  C   UNL     1      34.163 -15.976 -23.121  0.00  0.00    +0.018 C 
ATOM     16  C   UNL     1      33.992 -14.648 -22.662  0.00  0.00    +0.001 C 
ATOM     17  C   UNL     1      34.750 -16.669 -20.864  0.00  0.00    +0.019 C 
ATOM     18  C   UNL     1      33.950 -16.265 -24.479  0.00  0.00    +0.001 C 
ATOM     19  C   UNL     1      34.205 -14.359 -21.304  0.00  0.00    +0.000 C 
ATOM     20  C   UNL     1      34.581 -15.364 -20.412  0.00  0.00    +0.001 C 
ATOM     21  C   UNL     1      33.612 -13.649 -23.573  0.00  0.00    +0.000 C 
ATOM     22  C   UNL     1      33.573 -15.261 -25.371  0.00  0.00    +0.000 C 
ATOM     23  C   UNL     1      33.405 -13.955 -24.918  0.00  0.00    +0.000 C 
ENDBRANCH  11  14
ENDBRANCH   3  11
BRANCH   7  24
ATOM     24  O   UNL     1      32.919 -22.417 -18.792  0.00  0.00    -0.476 OA
BRANCH  24  25
ATOM     25  C   UNL     1      32.911 -23.169 -17.585  0.00  0.00    +0.203 C 
BRANCH  25  26
ATOM     26  C   UNL     1      31.627 -22.865 -16.823  0.00  0.00    +0.025 C 
BRANCH  26  27
ATOM     27  C   UNL     1      31.637 -23.495 -15.434  0.00  0.00    -0.074 C 
BRANCH  27  28
ATOM     28  N   UNL     1      30.281 -23.827 -15.019  0.00  0.00    +0.384 N 
ATOM     29  C   UNL     1      29.301 -23.207 -15.912  0.00  0.00    -0.101 C 
ATOM     30  C   UNL     1      30.092 -25.278 -14.987  0.00  0.00    -0.101 C 
ATOM     31  H   UNL     1      30.137 -23.461 -14.077  0.00  0.00    -0.080 HD
ENDBRANCH  27  28
ENDBRANCH  26  27
ENDBRANCH  25  26
ENDBRANCH  24  25
ENDBRANCH   7  24
TORSDOF 7
ENDMDL
MODEL 4
REMARK VINA RESULT:      -9.9      6.002     10.491
REMARK  Name = 16071605
REMARK  7 active torsions:
REMARK  status: ('A' for Active; 'I' for Inactive)
REMARK    1  A    between atoms: C_3  and  S_11
REMARK    2  A    between atoms: C_7  and  O_24
REMARK    3  A    between atoms: S_11  and  C_14
REMARK    4  A    between atoms: O_24  and  C_25
REMARK    5  A    between atoms: C_25  and  C_26
REMARK    6  A    between atoms: C_26  and  C_27
REMARK    7  A    between atoms: C_27  and  N_28
REMARK                            x       y       z     vdW  Elec       q    Type
REMARK                         _______ _______ _______ _____ _____    ______ ____
ROOT
ATOM      1  N   UNL     1      35.770 -22.791 -16.783  0.00  0.00    -0.260 N 
ATOM      2  N   UNL     1      36.127 -23.039 -15.507  0.00  0.00    -0.172 NA
ATOM      3  C   UNL     1      34.457 -22.986 -17.025  0.00  0.00    +0.186 A 
ATOM      4  C   UNL     1      33.910 -23.383 -15.863  0.00  0.00    +0.057 A 
ATOM      5  C   UNL     1      34.985 -23.413 -14.902  0.00  0.00    +0.104 A 
ATOM      6  C   UNL     1      32.575 -23.698 -15.642  0.00  0.00    +0.041 C 
ATOM      7  C   UNL     1      32.362 -24.073 -14.301  0.00  0.00    +0.139 C 
ATOM      8  C   UNL     1      34.743 -23.792 -13.568  0.00  0.00    +0.024 C 
ATOM      9  C   UNL     1      33.394 -24.119 -13.311  0.00  0.00    +0.039 C 
ATOM     10  H   UNL     1      36.407 -22.494 -17.472  0.00  0.00    +0.190 HD
ENDROOT
BRANCH   3  11
ATOM     11  S   UNL     1      33.796 -22.706 -18.666  0.00  0.00    +0.043 S 
ATOM     12  O   UNL     1      32.497 -22.086 -18.496  0.00  0.00    -0.163 OA
ATOM     13  O   UNL     1      33.950 -23.988 -19.326  0.00  0.00    -0.163 OA
BRANCH  11  14
ATOM     14  C   UNL     1      34.843 -21.527 -19.442  0.00  0.00    +0.112 C 
ATOM     15  C   UNL     1      34.348 -20.405 -20.127  0.00  0.00    +0.018 C 
ATOM     16  C   UNL     1      35.259 -19.502 -20.726  0.00  0.00    +0.001 C 
ATOM     17  C   UNL     1      36.215 -21.756 -19.349  0.00  0.00    +0.019 C 
ATOM     18  C   UNL     1      32.969 -20.158 -20.231  0.00  0.00    +0.001 C 
ATOM     19  C   UNL     1      36.638 -19.748 -20.621  0.00  0.00    +0.000 C 
ATOM     20  C   UNL     1      37.112 -20.868 -19.937  0.00  0.00    +0.001 C 
ATOM     21  C   UNL     1      34.765 -18.380 -21.410  0.00  0.00    +0.000 C 
ATOM     22  C   UNL     1      32.495 -19.038 -20.915  0.00  0.00    +0.000 C 
ATOM     23  C   UNL     1      33.392 -18.151 -21.504  0.00  0.00    +0.000 C 
ENDBRANCH  11  14
ENDBRANCH   3  11
BRANCH   7  24
ATOM     24  O   UNL     1      31.091 -24.416 -13.920  0.00  0.00    -0.476 OA
BRANCH  24  25
ATOM     25  C   UNL     1      30.446 -25.429 -14.681  0.00  0.00    +0.203 C 
BRANCH  25  26
ATOM     26  C   UNL     1      28.979 -25.058 -14.853  0.00  0.00    +0.025 C 
BRANCH  26  27
ATOM     27  C   UNL     1      28.724 -24.391 -16.201  0.00  0.00    -0.074 C 
BRANCH  27  28
ATOM     28  N   UNL     1      27.995 -23.143 -16.019  0.00  0.00    +0.384 N 
ATOM     29  C   UNL     1      28.822 -22.159 -15.318  0.00  0.00    -0.101 C 
ATOM     30  C   UNL     1      27.556 -22.608 -17.309  0.00  0.00    -0.101 C 
ATOM     31  H   UNL     1      27.170 -23.336 -15.451  0.00  0.00    -0.080 HD
ENDBRANCH  27  28
ENDBRANCH  26  27
ENDBRANCH  25  26
ENDBRANCH  24  25
ENDBRANCH   7  24
TORSDOF 7
ENDMDL
MODEL 5
REMARK VINA RESULT:      -9.9      4.927     11.394
REMARK  Name = 16071605
REMARK  7 active torsions:
REMARK  status: ('A' for Active; 'I' for Inactive)
REMARK    1  A    between atoms: C_3  and  S_11
REMARK    2  A    between atoms: C_7  and  O_24
REMARK    3  A    between atoms: S_11  and  C_14
REMARK    4  A    between atoms: O_24  and  C_25
REMARK    5  A    between atoms: C_25  and  C_26
REMARK    6  A    between atoms: C_26  and  C_27
REMARK    7  A    between atoms: C_27  and  N_28
REMARK                            x       y       z     vdW  Elec       q    Type
REMARK                         _______ _______ _______ _____ _____    ______ ____
ROOT
ATOM      1  N   UNL     1      32.769  -7.408 -20.873  0.00  0.00    -0.260 N 
ATOM      2  N   UNL     1      32.161  -7.905 -19.777  0.00  0.00    -0.172 NA
ATOM      3  C   UNL     1      32.948  -8.319 -21.852  0.00  0.00    +0.186 A 
ATOM      4  C   UNL     1      32.441  -9.477 -21.394  0.00  0.00    +0.057 A 
ATOM      5  C   UNL     1      31.941  -9.200 -20.069  0.00  0.00    +0.104 A 
ATOM      6  C   UNL     1      32.408 -10.690 -22.069  0.00  0.00    +0.041 C 
ATOM      7  C   UNL     1      31.799 -11.688 -21.281  0.00  0.00    +0.139 C 
ATOM      8  C   UNL     1      31.338 -10.216 -19.304  0.00  0.00    +0.024 C 
ATOM      9  C   UNL     1      31.289 -11.464 -19.963  0.00  0.00    +0.039 C 
ATOM     10  H   UNL     1      33.053  -6.469 -20.951  0.00  0.00    +0.190 HD
ENDROOT
BRANCH   3  11
ATOM     11  S   UNL     1      33.740  -7.843 -23.387  0.00  0.00    +0.043 S 
ATOM     12  O   UNL     1      33.612  -8.967 -24.292  0.00  0.00    -0.163 OA
ATOM     13  O   UNL     1      35.035  -7.342 -22.969  0.00  0.00    -0.163 OA
BRANCH  11  14
ATOM     14  C   UNL     1      32.796  -6.520 -24.056  0.00  0.00    +0.112 C 
ATOM     15  C   UNL     1      33.234  -5.749 -25.145  0.00  0.00    +0.018 C 
ATOM     16  C   UNL     1      32.415  -4.699 -25.624  0.00  0.00    +0.001 C 
ATOM     17  C   UNL     1      31.569  -6.260 -23.448  0.00  0.00    +0.019 C 
ATOM     18  C   UNL     1      34.468  -5.996 -25.770  0.00  0.00    +0.001 C 
ATOM     19  C   UNL     1      31.181  -4.452 -25.000  0.00  0.00    +0.000 C 
ATOM     20  C   UNL     1      30.762  -5.228 -23.918  0.00  0.00    +0.001 C 
ATOM     21  C   UNL     1      32.852  -3.928 -26.713  0.00  0.00    +0.000 C 
ATOM     22  C   UNL     1      34.887  -5.220 -26.851  0.00  0.00    +0.000 C 
ATOM     23  C   UNL     1      34.080  -4.187 -27.321  0.00  0.00    +0.000 C 
ENDBRANCH  11  14
ENDBRANCH   3  11
BRANCH   7  24
ATOM     24  O   UNL     1      31.689 -12.949 -21.807  0.00  0.00    -0.476 OA
BRANCH  24  25
ATOM     25  C   UNL     1      32.521 -13.953 -21.239  0.00  0.00    +0.203 C 
BRANCH  25  26
ATOM     26  C   UNL     1      33.012 -14.872 -22.350  0.00  0.00    +0.025 C 
BRANCH  26  27
ATOM     27  C   UNL     1      33.923 -14.134 -23.326  0.00  0.00    -0.074 C 
BRANCH  27  28
ATOM     28  N   UNL     1      33.147 -13.598 -24.437  0.00  0.00    +0.384 N 
ATOM     29  C   UNL     1      33.767 -12.378 -24.959  0.00  0.00    -0.101 C 
ATOM     30  C   UNL     1      33.013 -14.594 -25.502  0.00  0.00    -0.101 C 
ATOM     31  H   UNL     1      32.216 -13.366 -24.092  0.00  0.00    -0.080 HD
ENDBRANCH  27  28
ENDBRANCH  26  27
ENDBRANCH  25  26
ENDBRANCH  24  25
ENDBRANCH   7  24
TORSDOF 7
ENDMDL
MODEL 6
REMARK VINA RESULT:      -9.7      2.223      9.110
REMARK  Name = 16071605
REMARK  7 active torsions:
REMARK  status: ('A' for Active; 'I' for Inactive)
REMARK    1  A    between atoms: C_3  and  S_11
REMARK    2  A    between atoms: C_7  and  O_24
REMARK    3  A    between atoms: S_11  and  C_14
REMARK    4  A    between atoms: O_24  and  C_25
REMARK    5  A    between atoms: C_25  and  C_26
REMARK    6  A    between atoms: C_26  and  C_27
REMARK    7  A    between atoms: C_27  and  N_28
REMARK                            x       y       z     vdW  Elec       q    Type
REMARK                         _______ _______ _______ _____ _____    ______ ____
ROOT
ATOM      1  N   UNL     1      32.770 -14.095 -25.478  0.00  0.00    -0.260 N 
ATOM      2  N   UNL     1      33.134 -15.169 -26.205  0.00  0.00    -0.172 NA
ATOM      3  C   UNL     1      33.176 -14.149 -24.192  0.00  0.00    +0.186 A 
ATOM      4  C   UNL     1      33.839 -15.310 -24.049  0.00  0.00    +0.057 A 
ATOM      5  C   UNL     1      33.806 -15.952 -25.342  0.00  0.00    +0.104 A 
ATOM      6  C   UNL     1      34.434 -15.786 -22.888  0.00  0.00    +0.041 C 
ATOM      7  C   UNL     1      35.040 -17.038 -23.110  0.00  0.00    +0.139 C 
ATOM      8  C   UNL     1      34.420 -17.204 -25.534  0.00  0.00    +0.024 C 
ATOM      9  C   UNL     1      35.035 -17.716 -24.371  0.00  0.00    +0.039 C 
ATOM     10  H   UNL     1      32.259 -13.341 -25.851  0.00  0.00    +0.190 HD
ENDROOT
BRANCH   3  11
ATOM     11  S   UNL     1      32.785 -12.808 -23.070  0.00  0.00    +0.043 S 
ATOM     12  O   UNL     1      33.417 -13.122 -21.804  0.00  0.00    -0.163 OA
ATOM     13  O   UNL     1      31.348 -12.661 -23.191  0.00  0.00    -0.163 OA
BRANCH  11  14
ATOM     14  C   UNL     1      33.570 -11.370 -23.705  0.00  0.00    +0.112 C 
ATOM     15  C   UNL     1      33.326 -10.083 -23.196  0.00  0.00    +0.018 C 
ATOM     16  C   UNL     1      33.998  -8.975 -23.765  0.00  0.00    +0.001 C 
ATOM     17  C   UNL     1      34.462 -11.560 -24.760  0.00  0.00    +0.019 C 
ATOM     18  C   UNL     1      32.430  -9.872 -22.135  0.00  0.00    +0.001 C 
ATOM     19  C   UNL     1      34.894  -9.186 -24.826  0.00  0.00    +0.000 C 
ATOM     20  C   UNL     1      35.124 -10.471 -25.319  0.00  0.00    +0.001 C 
ATOM     21  C   UNL     1      33.756  -7.689 -23.256  0.00  0.00    +0.000 C 
ATOM     22  C   UNL     1      32.201  -8.587 -21.642  0.00  0.00    +0.000 C 
ATOM     23  C   UNL     1      32.862  -7.497 -22.202  0.00  0.00    +0.000 C 
ENDBRANCH  11  14
ENDBRANCH   3  11
BRANCH   7  24
ATOM     24  O   UNL     1      35.673 -17.646 -22.058  0.00  0.00    -0.476 OA
BRANCH  24  25
ATOM     25  C   UNL     1      34.844 -18.175 -21.031  0.00  0.00    +0.203 C 
BRANCH  25  26
ATOM     26  C   UNL     1      34.899 -19.695 -21.087  0.00  0.00    +0.025 C 
BRANCH  26  27
ATOM     27  C   UNL     1      36.127 -20.239 -20.364  0.00  0.00    -0.074 C 
BRANCH  27  28
ATOM     28  N   UNL     1      35.809 -21.497 -19.701  0.00  0.00    +0.384 N 
ATOM     29  C   UNL     1      36.552 -21.620 -18.445  0.00  0.00    -0.101 C 
ATOM     30  C   UNL     1      34.370 -21.599 -19.452  0.00  0.00    -0.101 C 
ATOM     31  H   UNL     1      36.087 -22.261 -20.317  0.00  0.00    -0.080 HD
ENDBRANCH  27  28
ENDBRANCH  26  27
ENDBRANCH  25  26
ENDBRANCH  24  25
ENDBRANCH   7  24
TORSDOF 7
ENDMDL
MODEL 7
REMARK VINA RESULT:      -9.7      4.064     11.574
REMARK  Name = 16071605
REMARK  7 active torsions:
REMARK  status: ('A' for Active; 'I' for Inactive)
REMARK    1  A    between atoms: C_3  and  S_11
REMARK    2  A    between atoms: C_7  and  O_24
REMARK    3  A    between atoms: S_11  and  C_14
REMARK    4  A    between atoms: O_24  and  C_25
REMARK    5  A    between atoms: C_25  and  C_26
REMARK    6  A    between atoms: C_26  and  C_27
REMARK    7  A    between atoms: C_27  and  N_28
REMARK                            x       y       z     vdW  Elec       q    Type
REMARK                         _______ _______ _______ _____ _____    ______ ____
ROOT
ATOM      1  N   UNL     1      32.943  -7.342 -20.857  0.00  0.00    -0.260 N 
ATOM      2  N   UNL     1      32.351  -7.788 -19.732  0.00  0.00    -0.172 NA
ATOM      3  C   UNL     1      32.999  -8.263 -21.841  0.00  0.00    +0.186 A 
ATOM      4  C   UNL     1      32.420  -9.376 -21.356  0.00  0.00    +0.057 A 
ATOM      5  C   UNL     1      32.011  -9.060 -20.008  0.00  0.00    +0.104 A 
ATOM      6  C   UNL     1      32.254 -10.581 -22.024  0.00  0.00    +0.041 C 
ATOM      7  C   UNL     1      31.605 -11.526 -21.205  0.00  0.00    +0.139 C 
ATOM      8  C   UNL     1      31.364 -10.024 -19.213  0.00  0.00    +0.024 C 
ATOM      9  C   UNL     1      31.180 -11.262 -19.865  0.00  0.00    +0.039 C 
ATOM     10  H   UNL     1      33.300  -6.429 -20.952  0.00  0.00    +0.190 HD
ENDROOT
BRANCH   3  11
ATOM     11  S   UNL     1      33.751  -7.853 -23.414  0.00  0.00    +0.043 S 
ATOM     12  O   UNL     1      33.562  -8.998 -24.282  0.00  0.00    -0.163 OA
ATOM     13  O   UNL     1      35.072  -7.376 -23.054  0.00  0.00    -0.163 OA
BRANCH  11  14
ATOM     14  C   UNL     1      32.821  -6.523 -24.090  0.00  0.00    +0.112 C 
ATOM     15  C   UNL     1      33.271  -5.756 -25.177  0.00  0.00    +0.018 C 
ATOM     16  C   UNL     1      32.462  -4.701 -25.662  0.00  0.00    +0.001 C 
ATOM     17  C   UNL     1      31.592  -6.254 -23.490  0.00  0.00    +0.019 C 
ATOM     18  C   UNL     1      34.507  -6.012 -25.794  0.00  0.00    +0.001 C 
ATOM     19  C   UNL     1      31.227  -4.444 -25.045  0.00  0.00    +0.000 C 
ATOM     20  C   UNL     1      30.795  -5.217 -23.966  0.00  0.00    +0.001 C 
ATOM     21  C   UNL     1      32.911  -3.933 -26.749  0.00  0.00    +0.000 C 
ATOM     22  C   UNL     1      34.938  -5.240 -26.873  0.00  0.00    +0.000 C 
ATOM     23  C   UNL     1      34.141  -4.202 -27.349  0.00  0.00    +0.000 C 
ENDBRANCH  11  14
ENDBRANCH   3  11
BRANCH   7  24
ATOM     24  O   UNL     1      31.365 -12.773 -21.721  0.00  0.00    -0.476 OA
BRANCH  24  25
ATOM     25  C   UNL     1      32.478 -13.457 -22.285  0.00  0.00    +0.203 C 
BRANCH  25  26
ATOM     26  C   UNL     1      33.211 -14.201 -21.177  0.00  0.00    +0.025 C 
BRANCH  26  27
ATOM     27  C   UNL     1      33.349 -15.687 -21.496  0.00  0.00    -0.074 C 
BRANCH  27  28
ATOM     28  N   UNL     1      34.744 -16.022 -21.753  0.00  0.00    +0.384 N 
ATOM     29  C   UNL     1      35.091 -17.301 -21.131  0.00  0.00    -0.101 C 
ATOM     30  C   UNL     1      35.006 -16.070 -23.193  0.00  0.00    -0.101 C 
ATOM     31  H   UNL     1      35.327 -15.293 -21.342  0.00  0.00    -0.080 HD
ENDBRANCH  27  28
ENDBRANCH  26  27
ENDBRANCH  25  26
ENDBRANCH  24  25
ENDBRANCH   7  24
TORSDOF 7
ENDMDL
MODEL 8
REMARK VINA RESULT:      -9.7      3.870      5.912
REMARK  Name = 16071605
REMARK  7 active torsions:
REMARK  status: ('A' for Active; 'I' for Inactive)
REMARK    1  A    between atoms: C_3  and  S_11
REMARK    2  A    between atoms: C_7  and  O_24
REMARK    3  A    between atoms: S_11  and  C_14
REMARK    4  A    between atoms: O_24  and  C_25
REMARK    5  A    between atoms: C_25  and  C_26
REMARK    6  A    between atoms: C_26  and  C_27
REMARK    7  A    between atoms: C_27  and  N_28
REMARK                            x       y       z     vdW  Elec       q    Type
REMARK                         _______ _______ _______ _____ _____    ______ ____
ROOT
ATOM      1  N   UNL     1      36.328 -22.045 -19.315  0.00  0.00    -0.260 N 
ATOM      2  N   UNL     1      37.226 -21.191 -19.846  0.00  0.00    -0.172 NA
ATOM      3  C   UNL     1      35.048 -21.648 -19.469  0.00  0.00    +0.186 A 
ATOM      4  C   UNL     1      35.088 -20.477 -20.130  0.00  0.00    +0.057 A 
ATOM      5  C   UNL     1      36.484 -20.196 -20.365  0.00  0.00    +0.104 A 
ATOM      6  C   UNL     1      34.000 -19.702 -20.507  0.00  0.00    +0.041 C 
ATOM      7  C   UNL     1      34.419 -18.540 -21.184  0.00  0.00    +0.139 C 
ATOM      8  C   UNL     1      36.875 -19.028 -21.045  0.00  0.00    +0.024 C 
ATOM      9  C   UNL     1      35.789 -18.217 -21.442  0.00  0.00    +0.039 C 
ATOM     10  H   UNL     1      36.583 -22.879 -18.860  0.00  0.00    +0.190 HD
ENDROOT
BRANCH   3  11
ATOM     11  S   UNL     1      33.712 -22.654 -18.828  0.00  0.00    +0.043 S 
ATOM     12  O   UNL     1      33.783 -23.931 -19.508  0.00  0.00    -0.163 OA
ATOM     13  O   UNL     1      32.549 -21.795 -18.933  0.00  0.00    -0.163 OA
BRANCH  11  14
ATOM     14  C   UNL     1      34.065 -22.943 -17.130  0.00  0.00    +0.112 C 
ATOM     15  C   UNL     1      33.064 -23.206 -16.180  0.00  0.00    +0.018 C 
ATOM     16  C   UNL     1      33.431 -23.428 -14.831  0.00  0.00    +0.001 C 
ATOM     17  C   UNL     1      35.407 -22.899 -16.756  0.00  0.00    +0.019 C 
ATOM     18  C   UNL     1      31.707 -23.254 -16.538  0.00  0.00    +0.001 C 
ATOM     19  C   UNL     1      34.788 -23.380 -14.473  0.00  0.00    +0.000 C 
ATOM     20  C   UNL     1      35.769 -23.118 -15.430  0.00  0.00    +0.001 C 
ATOM     21  C   UNL     1      32.431 -23.691 -13.881  0.00  0.00    +0.000 C 
ATOM     22  C   UNL     1      30.726 -23.516 -15.581  0.00  0.00    +0.000 C 
ATOM     23  C   UNL     1      31.088 -23.734 -14.255  0.00  0.00    +0.000 C 
ENDBRANCH  11  14
ENDBRANCH   3  11
BRANCH   7  24
ATOM     24  O   UNL     1      33.460 -17.666 -21.624  0.00  0.00    -0.476 OA
BRANCH  24  25
ATOM     25  C   UNL     1      33.779 -16.281 -21.562  0.00  0.00    +0.203 C 
BRANCH  25  26
ATOM     26  C   UNL     1      32.614 -15.535 -20.925  0.00  0.00    +0.025 C 
BRANCH  26  27
ATOM     27  C   UNL     1      32.836 -14.026 -20.946  0.00  0.00    -0.074 C 
BRANCH  27  28
ATOM     28  N   UNL     1      31.968 -13.401 -21.936  0.00  0.00    +0.384 N 
ATOM     29  C   UNL     1      31.628 -12.035 -21.534  0.00  0.00    -0.101 C 
ATOM     30  C   UNL     1      32.607 -13.398 -23.254  0.00  0.00    -0.101 C 
ATOM     31  H   UNL     1      31.108 -13.945 -21.994  0.00  0.00    -0.080 HD
ENDBRANCH  27  28
ENDBRANCH  26  27
ENDBRANCH  25  26
ENDBRANCH  24  25
ENDBRANCH   7  24
TORSDOF 7
ENDMDL
MODEL 9
REMARK VINA RESULT:      -9.6      3.653      5.958
REMARK  Name = 16071605
REMARK  7 active torsions:
REMARK  status: ('A' for Active; 'I' for Inactive)
REMARK    1  A    between atoms: C_3  and  S_11
REMARK    2  A    between atoms: C_7  and  O_24
REMARK    3  A    between atoms: S_11  and  C_14
REMARK    4  A    between atoms: O_24  and  C_25
REMARK    5  A    between atoms: C_25  and  C_26
REMARK    6  A    between atoms: C_26  and  C_27
REMARK    7  A    between atoms: C_27  and  N_28
REMARK                            x       y       z     vdW  Elec       q    Type
REMARK                         _______ _______ _______ _____ _____    ______ ____
ROOT
ATOM      1  N   UNL     1      31.713 -12.722 -21.801  0.00  0.00    -0.260 N 
ATOM      2  N   UNL     1      31.228 -11.691 -21.081  0.00  0.00    -0.172 NA
ATOM      3  C   UNL     1      32.516 -12.343 -22.816  0.00  0.00    +0.186 A 
ATOM      4  C   UNL     1      32.572 -11.000 -22.777  0.00  0.00    +0.057 A 
ATOM      5  C   UNL     1      31.746 -10.596 -21.665  0.00  0.00    +0.104 A 
ATOM      6  C   UNL     1      33.285 -10.176 -23.638  0.00  0.00    +0.041 C 
ATOM      7  C   UNL     1      33.111  -8.820 -23.297  0.00  0.00    +0.139 C 
ATOM      8  C   UNL     1      31.590  -9.234 -21.347  0.00  0.00    +0.024 C 
ATOM      9  C   UNL     1      32.304  -8.369 -22.205  0.00  0.00    +0.039 C 
ATOM     10  H   UNL     1      31.502 -13.663 -21.603  0.00  0.00    +0.190 HD
ENDROOT
BRANCH   3  11
ATOM     11  S   UNL     1      33.256 -13.575 -23.886  0.00  0.00    +0.043 S 
ATOM     12  O   UNL     1      34.372 -12.937 -24.555  0.00  0.00    -0.163 OA
ATOM     13  O   UNL     1      32.131 -14.116 -24.623  0.00  0.00    -0.163 OA
BRANCH  11  14
ATOM     14  C   UNL     1      33.916 -14.824 -22.840  0.00  0.00    +0.112 C 
ATOM     15  C   UNL     1      34.299 -16.089 -23.315  0.00  0.00    +0.018 C 
ATOM     16  C   UNL     1      34.821 -17.041 -22.407  0.00  0.00    +0.001 C 
ATOM     17  C   UNL     1      34.045 -14.503 -21.490  0.00  0.00    +0.019 C 
ATOM     18  C   UNL     1      34.175 -16.431 -24.672  0.00  0.00    +0.001 C 
ATOM     19  C   UNL     1      34.945 -16.699 -21.051  0.00  0.00    +0.000 C 
ATOM     20  C   UNL     1      34.559 -15.437 -20.596  0.00  0.00    +0.001 C 
ATOM     21  C   UNL     1      35.204 -18.306 -22.882  0.00  0.00    +0.000 C 
ATOM     22  C   UNL     1      34.561 -17.693 -25.127  0.00  0.00    +0.000 C 
ATOM     23  C   UNL     1      35.074 -18.628 -24.232  0.00  0.00    +0.000 C 
ENDBRANCH  11  14
ENDBRANCH   3  11
BRANCH   7  24
ATOM     24  O   UNL     1      33.753  -7.875 -24.054  0.00  0.00    -0.476 OA
BRANCH  24  25
ATOM     25  C   UNL     1      33.456  -6.514 -23.766  0.00  0.00    +0.203 C 
BRANCH  25  26
ATOM     26  C   UNL     1      32.569  -5.959 -24.873  0.00  0.00    +0.025 C 
BRANCH  26  27
ATOM     27  C   UNL     1      31.233  -5.466 -24.327  0.00  0.00    -0.074 C 
BRANCH  27  28
ATOM     28  N   UNL     1      31.431  -4.753 -23.071  0.00  0.00    +0.384 N 
ATOM     29  C   UNL     1      31.302  -3.308 -23.272  0.00  0.00    -0.101 C 
ATOM     30  C   UNL     1      30.477  -5.212 -22.060  0.00  0.00    -0.101 C 
ATOM     31  H   UNL     1      32.375  -4.950 -22.739  0.00  0.00    -0.080 HD
ENDBRANCH  27  28
ENDBRANCH  26  27
ENDBRANCH  25  26
ENDBRANCH  24  25
ENDBRANCH   7  24
TORSDOF 7
ENDMDL
