MODEL 1
REMARK VINA RESULT:     -10.4      0.000      0.000
REMARK  Name = 46866319
REMARK  3 active torsions:
REMARK  status: ('A' for Active; 'I' for Inactive)
REMARK    1  A    between atoms: C_6  and  C_17
REMARK    2  A    between atoms: N_21  and  C_23
REMARK    3  A    between atoms: C_23  and  C_26
REMARK                            x       y       z     vdW  Elec       q    Type
REMARK                         _______ _______ _______ _____ _____    ______ ____
ROOT
ATOM      1  N   UNL     1      33.843 -23.006 -16.889  0.00  0.00    -0.376 NA
ATOM      2  N   UNL     1      34.351 -23.940 -14.758  0.00  0.00    -0.279 N 
ATOM      3  N   UNL     1      36.427 -23.549 -15.854  0.00  0.00    -0.252 NA
ATOM      4  N   UNL     1      37.746 -24.562 -13.596  0.00  0.00    -0.264 NA
ATOM      5  C   UNL     1      32.895 -22.593 -17.762  0.00  0.00    +0.181 C 
ATOM      6  C   UNL     1      31.118 -23.163 -16.289  0.00  0.00    -0.007 C 
ATOM      7  C   UNL     1      31.534 -22.649 -17.511  0.00  0.00    +0.044 C 
ATOM      8  C   UNL     1      32.062 -23.597 -15.365  0.00  0.00    +0.101 C 
ATOM      9  C   UNL     1      33.400 -23.499 -15.711  0.00  0.00    +0.167 C 
ATOM     10  C   UNL     1      35.754 -23.986 -14.771  0.00  0.00    +0.131 C 
ATOM     11  C   UNL     1      36.402 -24.484 -13.662  0.00  0.00    +0.186 C 
ATOM     12  C   UNL     1      37.771 -23.627 -15.787  0.00  0.00    +0.173 C 
ATOM     13  C   UNL     1      38.418 -24.125 -14.679  0.00  0.00    +0.094 C 
ATOM     14  H   UNL     1      33.951 -24.280 -13.926  0.00  0.00    +0.155 HD
ATOM     15  N   UNL     1      33.294 -22.085 -18.980  0.00  0.00    -0.306 N 
ATOM     16  H   UNL     1      32.600 -21.787 -19.612  0.00  0.00    +0.149 HD
ENDROOT
BRANCH   6  19
ATOM     17  N   UNL     1      27.607 -22.712 -15.803  0.00  0.00    -0.208 N 
ATOM     18  N   UNL     1      27.664 -23.943 -15.266  0.00  0.00    -0.176 NA
ATOM     19  C   UNL     1      29.718 -23.243 -15.980  0.00  0.00    +0.034 C 
ATOM     20  C   UNL     1      28.810 -22.248 -16.245  0.00  0.00    +0.085 C 
ATOM     21  C   UNL     1      28.956 -24.262 -15.376  0.00  0.00    +0.119 C 
ATOM     22  C   UNL     1      26.344 -22.015 -15.864  0.00  0.00    +0.140 C 
ENDBRANCH   6  19
BRANCH  15  23
ATOM     23  C   UNL     1      34.690 -21.966 -19.378  0.00  0.00    +0.094 C 
ATOM     24  C   UNL     1      35.075 -23.212 -20.190  0.00  0.00    +0.026 C 
BRANCH  23  26
ATOM     25  F   UNL     1      35.609 -17.127 -22.084  0.00  0.00    -0.204 F 
ATOM     26  C   UNL     1      34.934 -20.682 -20.097  0.00  0.00    -0.004 C 
ATOM     27  C   UNL     1      33.858 -19.935 -20.576  0.00  0.00    -0.000 C 
ATOM     28  C   UNL     1      36.239 -20.227 -20.290  0.00  0.00    -0.000 C 
ATOM     29  C   UNL     1      34.085 -18.734 -21.247  0.00  0.00    +0.029 C 
ATOM     30  C   UNL     1      36.466 -19.026 -20.961  0.00  0.00    +0.029 C 
ATOM     31  C   UNL     1      35.390 -18.280 -21.440  0.00  0.00    +0.140 C 
ENDBRANCH  23  26
ENDBRANCH  15  23
TORSDOF 3
ENDMDL
MODEL 2
REMARK VINA RESULT:     -10.1      3.104      7.862
REMARK  Name = 46866319
REMARK  3 active torsions:
REMARK  status: ('A' for Active; 'I' for Inactive)
REMARK    1  A    between atoms: C_6  and  C_17
REMARK    2  A    between atoms: N_21  and  C_23
REMARK    3  A    between atoms: C_23  and  C_26
REMARK                            x       y       z     vdW  Elec       q    Type
REMARK                         _______ _______ _______ _____ _____    ______ ____
ROOT
ATOM      1  N   UNL     1      33.615 -23.391 -16.697  0.00  0.00    -0.376 NA
ATOM      2  N   UNL     1      31.377 -22.877 -17.331  0.00  0.00    -0.279 N 
ATOM      3  N   UNL     1      31.246 -24.386 -15.496  0.00  0.00    -0.252 NA
ATOM      4  N   UNL     1      28.450 -24.253 -15.658  0.00  0.00    -0.264 NA
ATOM      5  C   UNL     1      34.937 -23.207 -16.913  0.00  0.00    +0.181 C 
ATOM      6  C   UNL     1      34.557 -21.720 -18.730  0.00  0.00    -0.007 C 
ATOM      7  C   UNL     1      35.454 -22.390 -17.906  0.00  0.00    +0.044 C 
ATOM      8  C   UNL     1      33.189 -21.884 -18.538  0.00  0.00    +0.101 C 
ATOM      9  C   UNL     1      32.774 -22.724 -17.517  0.00  0.00    +0.167 C 
ATOM     10  C   UNL     1      30.621 -23.627 -16.418  0.00  0.00    +0.131 C 
ATOM     11  C   UNL     1      29.247 -23.562 -16.497  0.00  0.00    +0.186 C 
ATOM     12  C   UNL     1      30.449 -25.076 -14.656  0.00  0.00    +0.173 C 
ATOM     13  C   UNL     1      29.076 -25.011 -14.736  0.00  0.00    +0.094 C 
ATOM     14  H   UNL     1      30.833 -22.356 -17.964  0.00  0.00    +0.155 HD
ATOM     15  N   UNL     1      35.839 -23.867 -16.106  0.00  0.00    -0.306 N 
ATOM     16  H   UNL     1      36.800 -23.731 -16.269  0.00  0.00    +0.149 HD
ENDROOT
BRANCH   6  19
ATOM     17  N   UNL     1      35.073 -19.534 -21.509  0.00  0.00    -0.208 N 
ATOM     18  N   UNL     1      36.370 -19.636 -21.169  0.00  0.00    -0.176 NA
ATOM     19  C   UNL     1      35.040 -20.862 -19.775  0.00  0.00    +0.034 C 
ATOM     20  C   UNL     1      34.236 -20.249 -20.704  0.00  0.00    +0.085 C 
ATOM     21  C   UNL     1      36.343 -20.449 -20.110  0.00  0.00    +0.119 C 
ATOM     22  C   UNL     1      34.689 -18.720 -22.637  0.00  0.00    +0.140 C 
ENDBRANCH   6  19
BRANCH  15  23
ATOM     23  C   UNL     1      35.440 -24.757 -15.024  0.00  0.00    +0.094 C 
ATOM     24  C   UNL     1      35.992 -26.161 -15.315  0.00  0.00    +0.026 C 
BRANCH  23  26
ATOM     25  F   UNL     1      37.010 -22.695 -10.037  0.00  0.00    -0.204 F 
ATOM     26  C   UNL     1      35.857 -24.210 -13.700  0.00  0.00    -0.004 C 
ATOM     27  C   UNL     1      36.999 -23.416 -13.602  0.00  0.00    -0.000 C 
ATOM     28  C   UNL     1      35.104 -24.493 -12.560  0.00  0.00    -0.000 C 
ATOM     29  C   UNL     1      37.389 -22.904 -12.365  0.00  0.00    +0.029 C 
ATOM     30  C   UNL     1      35.494 -23.981 -11.322  0.00  0.00    +0.029 C 
ATOM     31  C   UNL     1      36.636 -23.187 -11.225  0.00  0.00    +0.140 C 
ENDBRANCH  23  26
ENDBRANCH  15  23
TORSDOF 3
ENDMDL
MODEL 3
REMARK VINA RESULT:     -10.1      3.000      7.065
REMARK  Name = 46866319
REMARK  3 active torsions:
REMARK  status: ('A' for Active; 'I' for Inactive)
REMARK    1  A    between atoms: C_6  and  C_17
REMARK    2  A    between atoms: N_21  and  C_23
REMARK    3  A    between atoms: C_23  and  C_26
REMARK                            x       y       z     vdW  Elec       q    Type
REMARK                         _______ _______ _______ _____ _____    ______ ____
ROOT
ATOM      1  N   UNL     1      34.987 -22.650 -17.473  0.00  0.00    -0.376 NA
ATOM      2  N   UNL     1      37.325 -22.590 -17.019  0.00  0.00    -0.279 N 
ATOM      3  N   UNL     1      36.340 -24.013 -15.385  0.00  0.00    -0.252 NA
ATOM      4  N   UNL     1      38.887 -24.420 -14.285  0.00  0.00    -0.264 NA
ATOM      5  C   UNL     1      33.961 -22.236 -18.250  0.00  0.00    +0.181 C 
ATOM      6  C   UNL     1      35.379 -20.923 -19.634  0.00  0.00    -0.007 C 
ATOM      7  C   UNL     1      34.103 -21.382 -19.331  0.00  0.00    +0.044 C 
ATOM      8  C   UNL     1      36.460 -21.327 -18.858  0.00  0.00    +0.101 C 
ATOM      9  C   UNL     1      36.213 -22.183 -17.798  0.00  0.00    +0.167 C 
ATOM     10  C   UNL     1      37.440 -23.429 -15.900  0.00  0.00    +0.131 C 
ATOM     11  C   UNL     1      38.692 -23.630 -15.360  0.00  0.00    +0.186 C 
ATOM     12  C   UNL     1      36.536 -24.804 -14.312  0.00  0.00    +0.173 C 
ATOM     13  C   UNL     1      37.786 -25.003 -13.771  0.00  0.00    +0.094 C 
ATOM     14  H   UNL     1      38.181 -22.211 -17.322  0.00  0.00    +0.155 HD
ATOM     15  N   UNL     1      32.688 -22.682 -17.959  0.00  0.00    -0.306 N 
ATOM     16  H   UNL     1      31.944 -22.376 -18.527  0.00  0.00    +0.149 HD
ENDROOT
BRANCH   6  19
ATOM     17  N   UNL     1      35.271 -18.987 -22.636  0.00  0.00    -0.208 N 
ATOM     18  N   UNL     1      36.428 -18.476 -22.183  0.00  0.00    -0.176 NA
ATOM     19  C   UNL     1      35.581 -20.035 -20.744  0.00  0.00    +0.034 C 
ATOM     20  C   UNL     1      34.723 -19.925 -21.811  0.00  0.00    +0.085 C 
ATOM     21  C   UNL     1      36.613 -19.120 -21.028  0.00  0.00    +0.119 C 
ATOM     22  C   UNL     1      34.728 -18.529 -23.892  0.00  0.00    +0.140 C 
ENDBRANCH   6  19
BRANCH  15  23
ATOM     23  C   UNL     1      32.390 -23.582 -16.854  0.00  0.00    +0.094 C 
ATOM     24  C   UNL     1      33.367 -23.288 -15.705  0.00  0.00    +0.026 C 
BRANCH  23  26
ATOM     25  F   UNL     1      26.981 -23.228 -15.369  0.00  0.00    -0.204 F 
ATOM     26  C   UNL     1      30.954 -23.488 -16.460  0.00  0.00    -0.004 C 
ATOM     27  C   UNL     1      30.371 -24.504 -15.703  0.00  0.00    -0.000 C 
ATOM     28  C   UNL     1      30.195 -22.385 -16.849  0.00  0.00    -0.000 C 
ATOM     29  C   UNL     1      29.029 -24.417 -15.334  0.00  0.00    +0.029 C 
ATOM     30  C   UNL     1      28.852 -22.297 -16.480  0.00  0.00    +0.029 C 
ATOM     31  C   UNL     1      28.270 -23.313 -15.723  0.00  0.00    +0.140 C 
ENDBRANCH  23  26
ENDBRANCH  15  23
TORSDOF 3
ENDMDL
MODEL 4
REMARK VINA RESULT:     -10.0      1.505      6.353
REMARK  Name = 46866319
REMARK  3 active torsions:
REMARK  status: ('A' for Active; 'I' for Inactive)
REMARK    1  A    between atoms: C_6  and  C_17
REMARK    2  A    between atoms: N_21  and  C_23
REMARK    3  A    between atoms: C_23  and  C_26
REMARK                            x       y       z     vdW  Elec       q    Type
REMARK                         _______ _______ _______ _____ _____    ______ ____
ROOT
ATOM      1  N   UNL     1      33.532 -23.484 -16.313  0.00  0.00    -0.376 NA
ATOM      2  N   UNL     1      32.280 -24.449 -14.530  0.00  0.00    -0.279 N 
ATOM      3  N   UNL     1      30.712 -23.769 -16.186  0.00  0.00    -0.252 NA
ATOM      4  N   UNL     1      28.650 -24.734 -14.550  0.00  0.00    -0.264 NA
ATOM      5  C   UNL     1      34.744 -23.149 -16.810  0.00  0.00    +0.181 C 
ATOM      6  C   UNL     1      35.892 -23.979 -14.900  0.00  0.00    -0.007 C 
ATOM      7  C   UNL     1      35.941 -23.373 -16.150  0.00  0.00    +0.044 C 
ATOM      8  C   UNL     1      34.664 -24.339 -14.356  0.00  0.00    +0.101 C 
ATOM      9  C   UNL     1      33.524 -24.071 -15.095  0.00  0.00    +0.167 C 
ATOM     10  C   UNL     1      30.959 -24.333 -14.987  0.00  0.00    +0.131 C 
ATOM     11  C   UNL     1      29.945 -24.808 -14.183  0.00  0.00    +0.186 C 
ATOM     12  C   UNL     1      29.418 -23.696 -16.553  0.00  0.00    +0.173 C 
ATOM     13  C   UNL     1      28.405 -24.170 -15.749  0.00  0.00    +0.094 C 
ATOM     14  H   UNL     1      32.359 -24.873 -13.646  0.00  0.00    +0.155 HD
ATOM     15  N   UNL     1      34.807 -22.544 -18.048  0.00  0.00    -0.306 N 
ATOM     16  H   UNL     1      35.692 -22.300 -18.404  0.00  0.00    +0.149 HD
ENDROOT
BRANCH   6  19
ATOM     17  N   UNL     1      39.095 -24.981 -13.672  0.00  0.00    -0.208 N 
ATOM     18  N   UNL     1      38.739 -24.284 -12.580  0.00  0.00    -0.176 NA
ATOM     19  C   UNL     1      37.105 -24.233 -14.175  0.00  0.00    +0.034 C 
ATOM     20  C   UNL     1      38.150 -24.982 -14.656  0.00  0.00    +0.085 C 
ATOM     21  C   UNL     1      37.523 -23.830 -12.892  0.00  0.00    +0.119 C 
ATOM     22  C   UNL     1      40.378 -25.641 -13.715  0.00  0.00    +0.140 C 
ENDBRANCH   6  19
BRANCH  15  23
ATOM     23  C   UNL     1      33.631 -22.247 -18.854  0.00  0.00    +0.094 C 
ATOM     24  C   UNL     1      32.432 -22.049 -17.915  0.00  0.00    +0.026 C 
BRANCH  23  26
ATOM     25  F   UNL     1      34.575 -17.886 -22.270  0.00  0.00    -0.204 F 
ATOM     26  C   UNL     1      33.882 -21.090 -19.761  0.00  0.00    -0.004 C 
ATOM     27  C   UNL     1      32.811 -20.334 -20.239  0.00  0.00    -0.000 C 
ATOM     28  C   UNL     1      35.186 -20.764 -20.131  0.00  0.00    -0.000 C 
ATOM     29  C   UNL     1      33.045 -19.252 -21.086  0.00  0.00    +0.029 C 
ATOM     30  C   UNL     1      35.420 -19.681 -20.979  0.00  0.00    +0.029 C 
ATOM     31  C   UNL     1      34.349 -18.926 -21.456  0.00  0.00    +0.140 C 
ENDBRANCH  23  26
ENDBRANCH  15  23
TORSDOF 3
ENDMDL
MODEL 5
REMARK VINA RESULT:      -9.4      3.145      7.804
REMARK  Name = 46866319
REMARK  3 active torsions:
REMARK  status: ('A' for Active; 'I' for Inactive)
REMARK    1  A    between atoms: C_6  and  C_17
REMARK    2  A    between atoms: N_21  and  C_23
REMARK    3  A    between atoms: C_23  and  C_26
REMARK                            x       y       z     vdW  Elec       q    Type
REMARK                         _______ _______ _______ _____ _____    ______ ____
ROOT
ATOM      1  N   UNL     1      34.215 -22.897 -16.861  0.00  0.00    -0.376 NA
ATOM      2  N   UNL     1      31.908 -22.783 -17.445  0.00  0.00    -0.279 N 
ATOM      3  N   UNL     1      32.054 -24.081 -15.455  0.00  0.00    -0.252 NA
ATOM      4  N   UNL     1      29.265 -24.369 -15.505  0.00  0.00    -0.264 NA
ATOM      5  C   UNL     1      35.488 -22.550 -17.155  0.00  0.00    +0.181 C 
ATOM      6  C   UNL     1      34.840 -21.346 -19.101  0.00  0.00    -0.007 C 
ATOM      7  C   UNL     1      35.849 -21.784 -18.251  0.00  0.00    +0.044 C 
ATOM      8  C   UNL     1      33.518 -21.682 -18.831  0.00  0.00    +0.101 C 
ATOM      9  C   UNL     1      33.260 -22.453 -17.709  0.00  0.00    +0.167 C 
ATOM     10  C   UNL     1      31.297 -23.528 -16.424  0.00  0.00    +0.131 C 
ATOM     11  C   UNL     1      29.927 -23.669 -16.448  0.00  0.00    +0.186 C 
ATOM     12  C   UNL     1      31.392 -24.780 -14.512  0.00  0.00    +0.173 C 
ATOM     13  C   UNL     1      30.023 -24.922 -14.537  0.00  0.00    +0.094 C 
ATOM     14  H   UNL     1      31.275 -22.420 -18.104  0.00  0.00    +0.155 HD
ATOM     15  N   UNL     1      36.500 -22.981 -16.323  0.00  0.00    -0.306 N 
ATOM     16  H   UNL     1      37.426 -22.727 -16.543  0.00  0.00    +0.149 HD
ENDROOT
BRANCH   6  19
ATOM     17  N   UNL     1      34.967 -19.497 -22.155  0.00  0.00    -0.208 N 
ATOM     18  N   UNL     1      36.237 -19.252 -21.792  0.00  0.00    -0.176 NA
ATOM     19  C   UNL     1      35.161 -20.550 -20.251  0.00  0.00    +0.034 C 
ATOM     20  C   UNL     1      34.280 -20.270 -21.266  0.00  0.00    +0.085 C 
ATOM     21  C   UNL     1      36.350 -19.898 -20.628  0.00  0.00    +0.119 C 
ATOM     22  C   UNL     1      34.458 -18.954 -23.392  0.00  0.00    +0.140 C 
ENDBRANCH   6  19
BRANCH  15  23
ATOM     23  C   UNL     1      36.269 -23.792 -15.136  0.00  0.00    +0.094 C 
ATOM     24  C   UNL     1      35.118 -24.768 -15.426  0.00  0.00    +0.026 C 
BRANCH  23  26
ATOM     25  F   UNL     1      41.005 -26.309 -13.457  0.00  0.00    -0.204 F 
ATOM     26  C   UNL     1      37.525 -24.460 -14.690  0.00  0.00    -0.004 C 
ATOM     27  C   UNL     1      38.677 -24.371 -15.472  0.00  0.00    -0.000 C 
ATOM     28  C   UNL     1      37.549 -25.175 -13.493  0.00  0.00    -0.000 C 
ATOM     29  C   UNL     1      39.853 -24.995 -15.056  0.00  0.00    +0.029 C 
ATOM     30  C   UNL     1      38.725 -25.799 -13.076  0.00  0.00    +0.029 C 
ATOM     31  C   UNL     1      39.876 -25.709 -13.858  0.00  0.00    +0.140 C 
ENDBRANCH  23  26
ENDBRANCH  15  23
TORSDOF 3
ENDMDL
MODEL 6
REMARK VINA RESULT:      -8.9      3.010      6.465
REMARK  Name = 46866319
REMARK  3 active torsions:
REMARK  status: ('A' for Active; 'I' for Inactive)
REMARK    1  A    between atoms: C_6  and  C_17
REMARK    2  A    between atoms: N_21  and  C_23
REMARK    3  A    between atoms: C_23  and  C_26
REMARK                            x       y       z     vdW  Elec       q    Type
REMARK                         _______ _______ _______ _____ _____    ______ ____
ROOT
ATOM      1  N   UNL     1      34.677 -22.534 -17.353  0.00  0.00    -0.376 NA
ATOM      2  N   UNL     1      33.656 -21.367 -19.161  0.00  0.00    -0.279 N 
ATOM      3  N   UNL     1      36.001 -21.008 -19.345  0.00  0.00    -0.252 NA
ATOM      4  N   UNL     1      35.529 -19.458 -21.633  0.00  0.00    -0.264 NA
ATOM      5  C   UNL     1      34.520 -23.317 -16.262  0.00  0.00    +0.181 C 
ATOM      6  C   UNL     1      32.155 -23.379 -16.496  0.00  0.00    -0.007 C 
ATOM      7  C   UNL     1      33.294 -23.762 -15.797  0.00  0.00    +0.044 C 
ATOM      8  C   UNL     1      32.276 -22.575 -17.624  0.00  0.00    +0.101 C 
ATOM      9  C   UNL     1      33.548 -22.182 -18.007  0.00  0.00    +0.167 C 
ATOM     10  C   UNL     1      34.757 -20.800 -19.820  0.00  0.00    +0.131 C 
ATOM     11  C   UNL     1      34.525 -20.038 -20.945  0.00  0.00    +0.186 C 
ATOM     12  C   UNL     1      37.004 -20.429 -20.034  0.00  0.00    +0.173 C 
ATOM     13  C   UNL     1      36.772 -19.668 -21.157  0.00  0.00    +0.094 C 
ATOM     14  H   UNL     1      32.791 -21.160 -19.582  0.00  0.00    +0.155 HD
ATOM     15  N   UNL     1      35.641 -23.701 -15.556  0.00  0.00    -0.306 N 
ATOM     16  H   UNL     1      35.522 -24.270 -14.761  0.00  0.00    +0.149 HD
ENDROOT
BRANCH   6  19
ATOM     17  N   UNL     1      29.295 -24.958 -15.049  0.00  0.00    -0.208 N 
ATOM     18  N   UNL     1      28.609 -24.016 -15.719  0.00  0.00    -0.176 NA
ATOM     19  C   UNL     1      30.859 -23.813 -16.056  0.00  0.00    +0.034 C 
ATOM     20  C   UNL     1      30.646 -24.880 -15.218  0.00  0.00    +0.085 C 
ATOM     21  C   UNL     1      29.570 -23.320 -16.333  0.00  0.00    +0.119 C 
ATOM     22  C   UNL     1      28.586 -25.927 -14.248  0.00  0.00    +0.140 C 
ENDBRANCH   6  19
BRANCH  15  23
ATOM     23  C   UNL     1      36.994 -23.309 -15.928  0.00  0.00    +0.094 C 
ATOM     24  C   UNL     1      37.159 -21.806 -15.656  0.00  0.00    +0.026 C 
BRANCH  23  26
ATOM     25  F   UNL     1      40.812 -26.513 -13.332  0.00  0.00    -0.204 F 
ATOM     26  C   UNL     1      38.007 -24.159 -15.239  0.00  0.00    -0.004 C 
ATOM     27  C   UNL     1      39.295 -24.271 -15.762  0.00  0.00    -0.000 C 
ATOM     28  C   UNL     1      37.666 -24.843 -14.072  0.00  0.00    -0.000 C 
ATOM     29  C   UNL     1      40.243 -25.065 -15.118  0.00  0.00    +0.029 C 
ATOM     30  C   UNL     1      38.614 -25.638 -13.428  0.00  0.00    +0.029 C 
ATOM     31  C   UNL     1      39.902 -25.749 -13.951  0.00  0.00    +0.140 C 
ENDBRANCH  23  26
ENDBRANCH  15  23
TORSDOF 3
ENDMDL
MODEL 7
REMARK VINA RESULT:      -8.0      1.598      6.144
REMARK  Name = 46866319
REMARK  3 active torsions:
REMARK  status: ('A' for Active; 'I' for Inactive)
REMARK    1  A    between atoms: C_6  and  C_17
REMARK    2  A    between atoms: N_21  and  C_23
REMARK    3  A    between atoms: C_23  and  C_26
REMARK                            x       y       z     vdW  Elec       q    Type
REMARK                         _______ _______ _______ _____ _____    ______ ____
ROOT
ATOM      1  N   UNL     1      32.503 -23.165 -16.267  0.00  0.00    -0.376 NA
ATOM      2  N   UNL     1      30.676 -23.560 -14.790  0.00  0.00    -0.279 N 
ATOM      3  N   UNL     1      29.749 -22.818 -16.853  0.00  0.00    -0.252 NA
ATOM      4  N   UNL     1      27.193 -23.061 -15.727  0.00  0.00    -0.264 NA
ATOM      5  C   UNL     1      33.842 -23.176 -16.461  0.00  0.00    +0.181 C 
ATOM      6  C   UNL     1      34.278 -23.936 -14.250  0.00  0.00    -0.007 C 
ATOM      7  C   UNL     1      34.761 -23.549 -15.495  0.00  0.00    +0.044 C 
ATOM      8  C   UNL     1      32.908 -23.938 -14.014  0.00  0.00    +0.101 C 
ATOM      9  C   UNL     1      32.070 -23.547 -15.045  0.00  0.00    +0.167 C 
ATOM     10  C   UNL     1      29.566 -23.235 -15.585  0.00  0.00    +0.131 C 
ATOM     11  C   UNL     1      28.309 -23.355 -15.032  0.00  0.00    +0.186 C 
ATOM     12  C   UNL     1      28.633 -22.525 -17.548  0.00  0.00    +0.173 C 
ATOM     13  C   UNL     1      27.378 -22.644 -16.996  0.00  0.00    +0.094 C 
ATOM     14  H   UNL     1      30.442 -23.854 -13.881  0.00  0.00    +0.155 HD
ATOM     15  N   UNL     1      34.336 -22.791 -17.690  0.00  0.00    -0.306 N 
ATOM     16  H   UNL     1      35.311 -22.799 -17.825  0.00  0.00    +0.149 HD
ENDROOT
BRANCH   6  19
ATOM     17  N   UNL     1      36.283 -24.359 -11.323  0.00  0.00    -0.208 N 
ATOM     18  N   UNL     1      36.781 -25.417 -11.987  0.00  0.00    -0.176 NA
ATOM     19  C   UNL     1      35.189 -24.331 -13.214  0.00  0.00    +0.034 C 
ATOM     20  C   UNL     1      35.326 -23.676 -12.015  0.00  0.00    +0.085 C 
ATOM     21  C   UNL     1      36.109 -25.394 -13.141  0.00  0.00    +0.119 C 
ATOM     22  C   UNL     1      36.773 -24.046 -10.002  0.00  0.00    +0.140 C 
ENDBRANCH   6  19
BRANCH  15  23
ATOM     23  C   UNL     1      33.487 -22.374 -18.798  0.00  0.00    +0.094 C 
ATOM     24  C   UNL     1      32.136 -21.913 -18.232  0.00  0.00    +0.026 C 
BRANCH  23  26
ATOM     25  F   UNL     1      36.058 -18.506 -21.963  0.00  0.00    -0.204 F 
ATOM     26  C   UNL     1      34.169 -21.347 -19.637  0.00  0.00    -0.004 C 
ATOM     27  C   UNL     1      35.562 -21.307 -19.695  0.00  0.00    -0.000 C 
ATOM     28  C   UNL     1      33.414 -20.427 -20.364  0.00  0.00    -0.000 C 
ATOM     29  C   UNL     1      36.201 -20.348 -20.481  0.00  0.00    +0.029 C 
ATOM     30  C   UNL     1      34.053 -19.467 -21.150  0.00  0.00    +0.029 C 
ATOM     31  C   UNL     1      35.446 -19.428 -21.208  0.00  0.00    +0.140 C 
ENDBRANCH  23  26
ENDBRANCH  15  23
TORSDOF 3
ENDMDL
MODEL 8
REMARK VINA RESULT:      -7.9      3.264      8.352
REMARK  Name = 46866319
REMARK  3 active torsions:
REMARK  status: ('A' for Active; 'I' for Inactive)
REMARK    1  A    between atoms: C_6  and  C_17
REMARK    2  A    between atoms: N_21  and  C_23
REMARK    3  A    between atoms: C_23  and  C_26
REMARK                            x       y       z     vdW  Elec       q    Type
REMARK                         _______ _______ _______ _____ _____    ______ ____
ROOT
ATOM      1  N   UNL     1      35.190 -22.527 -16.972  0.00  0.00    -0.376 NA
ATOM      2  N   UNL     1      36.841 -21.542 -18.379  0.00  0.00    -0.279 N 
ATOM      3  N   UNL     1      34.721 -20.918 -19.260  0.00  0.00    -0.252 NA
ATOM      4  N   UNL     1      36.043 -19.494 -21.282  0.00  0.00    -0.264 NA
ATOM      5  C   UNL     1      34.916 -23.286 -15.886  0.00  0.00    +0.181 C 
ATOM      6  C   UNL     1      37.217 -23.639 -15.401  0.00  0.00    -0.007 C 
ATOM      7  C   UNL     1      35.883 -23.858 -15.077  0.00  0.00    +0.044 C 
ATOM      8  C   UNL     1      37.538 -22.863 -16.509  0.00  0.00    +0.101 C 
ATOM      9  C   UNL     1      36.498 -22.335 -17.255  0.00  0.00    +0.167 C 
ATOM     10  C   UNL     1      36.066 -20.867 -19.334  0.00  0.00    +0.131 C 
ATOM     11  C   UNL     1      36.715 -20.167 -20.327  0.00  0.00    +0.186 C 
ATOM     12  C   UNL     1      34.049 -20.244 -20.214  0.00  0.00    +0.173 C 
ATOM     13  C   UNL     1      34.698 -19.545 -21.207  0.00  0.00    +0.094 C 
ATOM     14  H   UNL     1      37.811 -21.447 -18.515  0.00  0.00    +0.155 HD
ATOM     15  N   UNL     1      33.597 -23.515 -15.555  0.00  0.00    -0.306 N 
ATOM     16  H   UNL     1      33.403 -24.070 -14.765  0.00  0.00    +0.149 HD
ENDROOT
BRANCH   6  19
ATOM     17  N   UNL     1      39.972 -25.420 -13.984  0.00  0.00    -0.208 N 
ATOM     18  N   UNL     1      39.656 -24.741 -12.868  0.00  0.00    -0.176 NA
ATOM     19  C   UNL     1      38.258 -24.210 -14.594  0.00  0.00    +0.034 C 
ATOM     20  C   UNL     1      39.164 -25.138 -15.046  0.00  0.00    +0.085 C 
ATOM     21  C   UNL     1      38.609 -24.004 -13.246  0.00  0.00    +0.119 C 
ATOM     22  C   UNL     1      41.079 -26.346 -13.972  0.00  0.00    +0.140 C 
ENDBRANCH   6  19
BRANCH  15  23
ATOM     23  C   UNL     1      32.477 -22.977 -16.315  0.00  0.00    +0.094 C 
ATOM     24  C   UNL     1      32.786 -23.124 -17.812  0.00  0.00    +0.026 C 
BRANCH  23  26
ATOM     25  F   UNL     1      27.642 -25.380 -14.755  0.00  0.00    -0.204 F 
ATOM     26  C   UNL     1      31.194 -23.614 -15.900  0.00  0.00    -0.004 C 
ATOM     27  C   UNL     1      29.981 -23.109 -16.369  0.00  0.00    -0.000 C 
ATOM     28  C   UNL     1      31.206 -24.715 -15.044  0.00  0.00    -0.000 C 
ATOM     29  C   UNL     1      28.781 -23.705 -15.983  0.00  0.00    +0.029 C 
ATOM     30  C   UNL     1      30.006 -25.311 -14.657  0.00  0.00    +0.029 C 
ATOM     31  C   UNL     1      28.794 -24.806 -15.127  0.00  0.00    +0.140 C 
ENDBRANCH  23  26
ENDBRANCH  15  23
TORSDOF 3
ENDMDL
