MODEL 1
REMARK VINA RESULT:      -8.5      0.000      0.000
REMARK  Name = 10424768
REMARK  9 active torsions:
REMARK  status: ('A' for Active; 'I' for Inactive)
REMARK    1  A    between atoms: C_1  and  C_3
REMARK    2  A    between atoms: C_1  and  C_14
REMARK    3  A    between atoms: C_7  and  O_12
REMARK    4  A    between atoms: C_14  and  N_15
REMARK    5  A    between atoms: C_14  and  C_22
REMARK    6  A    between atoms: N_15  and  C_18
REMARK    7  A    between atoms: C_18  and  C_19
REMARK    8  A    between atoms: C_22  and  O_23
REMARK    9  A    between atoms: O_23  and  C_24
REMARK                            x       y       z     vdW  Elec       q    Type
REMARK                         _______ _______ _______ _____ _____    ______ ____
ROOT
ATOM      1  C   UNL     1      32.300 -13.105 -23.064  0.00  0.00    +0.016 C 
ENDROOT
BRANCH   1   3
ATOM      2  N   UNL     1      35.005 -17.238 -23.376  0.00  0.00    -0.241 NA
ATOM      3  C   UNL     1      33.106 -14.216 -22.466  0.00  0.00    -0.022 C 
ATOM      4  C   UNL     1      33.684 -15.226 -23.254  0.00  0.00    +0.017 C 
ATOM      5  C   UNL     1      33.271 -14.219 -21.083  0.00  0.00    -0.001 C 
ATOM      6  C   UNL     1      34.438 -16.255 -22.651  0.00  0.00    +0.115 C 
ATOM      7  C   UNL     1      34.586 -16.235 -21.267  0.00  0.00    +0.151 C 
ATOM      8  C   UNL     1      34.011 -15.231 -20.484  0.00  0.00    +0.038 C 
ATOM      9  C   UNL     1      33.535 -15.247 -24.647  0.00  0.00    +0.003 C 
ATOM     10  C   UNL     1      34.118 -16.258 -25.396  0.00  0.00    +0.021 C 
ATOM     11  C   UNL     1      34.836 -17.222 -24.719  0.00  0.00    +0.099 C 
BRANCH   7  12
ATOM     12  O   UNL     1      35.307 -17.212 -20.640  0.00  0.00    -0.504 OA
ATOM     13  H   UNL     1      35.865 -16.993 -19.919  0.00  0.00    +0.292 HD
ENDBRANCH   7  12
ENDBRANCH   1   3
BRANCH   1  14
ATOM     14  C   UNL     1      32.870 -11.705 -22.770  0.00  0.00    +0.046 C 
BRANCH  14  15
ATOM     15  N   UNL     1      31.784 -10.776 -22.455  0.00  0.00    +0.400 N 
ATOM     16  H   UNL     1      31.304 -10.517 -23.318  0.00  0.00    -0.082 HD
ATOM     17  H   UNL     1      32.179  -9.947 -22.009  0.00  0.00    -0.082 HD
BRANCH  15  18
ATOM     18  C   UNL     1      30.831 -11.389 -21.544  0.00  0.00    -0.001 C 
BRANCH  18  19
ATOM     19  C   UNL     1      31.184 -11.107 -20.149  0.00  0.00    -0.102 C 
ATOM     20  C   UNL     1      31.480 -10.875 -19.008  0.00  0.00    -0.016 C 
ENDBRANCH  18  19
ENDBRANCH  15  18
ENDBRANCH  14  15
BRANCH  14  22
ATOM     21  O   UNL     1      34.104 -11.821 -24.869  0.00  0.00    -0.252 OA
ATOM     22  C   UNL     1      33.590 -11.146 -23.985  0.00  0.00    +0.297 C 
BRANCH  22  23
ATOM     23  O   UNL     1      33.545  -9.781 -23.951  0.00  0.00    -0.450 OA
BRANCH  23  24
ATOM     24  C   UNL     1      34.796  -9.115 -24.155  0.00  0.00    +0.208 C 
ATOM     25  C   UNL     1      34.756  -7.768 -23.466  0.00  0.00    +0.051 C 
ENDBRANCH  23  24
ENDBRANCH  22  23
ENDBRANCH  14  22
ENDBRANCH   1  14
TORSDOF 9
ENDMDL
MODEL 2
REMARK VINA RESULT:      -8.1      3.674      6.416
REMARK  Name = 10424768
REMARK  9 active torsions:
REMARK  status: ('A' for Active; 'I' for Inactive)
REMARK    1  A    between atoms: C_1  and  C_3
REMARK    2  A    between atoms: C_1  and  C_14
REMARK    3  A    between atoms: C_7  and  O_12
REMARK    4  A    between atoms: C_14  and  N_15
REMARK    5  A    between atoms: C_14  and  C_22
REMARK    6  A    between atoms: N_15  and  C_18
REMARK    7  A    between atoms: C_18  and  C_19
REMARK    8  A    between atoms: C_22  and  O_23
REMARK    9  A    between atoms: O_23  and  C_24
REMARK                            x       y       z     vdW  Elec       q    Type
REMARK                         _______ _______ _______ _____ _____    ______ ____
ROOT
ATOM      1  C   UNL     1      35.555 -18.225 -22.205  0.00  0.00    +0.016 C 
ENDROOT
BRANCH   1   3
ATOM      2  N   UNL     1      35.222 -21.812 -18.812  0.00  0.00    -0.241 NA
ATOM      3  C   UNL     1      34.784 -19.202 -21.374  0.00  0.00    -0.022 C 
ATOM      4  C   UNL     1      35.413 -20.065 -20.461  0.00  0.00    +0.017 C 
ATOM      5  C   UNL     1      33.401 -19.230 -21.531  0.00  0.00    -0.001 C 
ATOM      6  C   UNL     1      34.650 -20.971 -19.695  0.00  0.00    +0.115 C 
ATOM      7  C   UNL     1      33.270 -20.979 -19.873  0.00  0.00    +0.151 C 
ATOM      8  C   UNL     1      32.644 -20.121 -20.780  0.00  0.00    +0.038 C 
ATOM      9  C   UNL     1      36.804 -20.057 -20.282  0.00  0.00    +0.003 C 
ATOM     10  C   UNL     1      37.394 -20.923 -19.373  0.00  0.00    +0.021 C 
ATOM     11  C   UNL     1      36.567 -21.773 -18.669  0.00  0.00    +0.099 C 
BRANCH   7  12
ATOM     12  O   UNL     1      32.490 -21.840 -19.152  0.00  0.00    -0.504 OA
ATOM     13  H   UNL     1      32.670 -21.987 -18.244  0.00  0.00    +0.292 HD
ENDBRANCH   7  12
ENDBRANCH   1   3
BRANCH   1  14
ATOM     14  C   UNL     1      34.710 -17.035 -22.697  0.00  0.00    +0.046 C 
BRANCH  14  15
ATOM     15  N   UNL     1      35.300 -16.466 -23.910  0.00  0.00    +0.400 N 
ATOM     16  H   UNL     1      36.272 -16.769 -23.983  0.00  0.00    -0.082 HD
ATOM     17  H   UNL     1      35.251 -15.449 -23.854  0.00  0.00    -0.082 HD
BRANCH  15  18
ATOM     18  C   UNL     1      34.573 -16.906 -25.090  0.00  0.00    -0.001 C 
BRANCH  18  19
ATOM     19  C   UNL     1      33.721 -15.832 -25.609  0.00  0.00    -0.102 C 
ATOM     20  C   UNL     1      33.023 -14.955 -26.041  0.00  0.00    -0.016 C 
ENDBRANCH  18  19
ENDBRANCH  15  18
ENDBRANCH  14  15
BRANCH  14  22
ATOM     21  O   UNL     1      35.062 -16.037 -20.501  0.00  0.00    -0.252 OA
ATOM     22  C   UNL     1      34.681 -15.925 -21.660  0.00  0.00    +0.297 C 
BRANCH  22  23
ATOM     23  O   UNL     1      34.193 -14.784 -22.230  0.00  0.00    -0.450 OA
BRANCH  23  24
ATOM     24  C   UNL     1      32.774 -14.612 -22.155  0.00  0.00    +0.208 C 
ATOM     25  C   UNL     1      32.457 -13.583 -21.091  0.00  0.00    +0.051 C 
ENDBRANCH  23  24
ENDBRANCH  22  23
ENDBRANCH  14  22
ENDBRANCH   1  14
TORSDOF 9
ENDMDL
MODEL 3
REMARK VINA RESULT:      -8.1      4.405      8.813
REMARK  Name = 10424768
REMARK  9 active torsions:
REMARK  status: ('A' for Active; 'I' for Inactive)
REMARK    1  A    between atoms: C_1  and  C_3
REMARK    2  A    between atoms: C_1  and  C_14
REMARK    3  A    between atoms: C_7  and  O_12
REMARK    4  A    between atoms: C_14  and  N_15
REMARK    5  A    between atoms: C_14  and  C_22
REMARK    6  A    between atoms: N_15  and  C_18
REMARK    7  A    between atoms: C_18  and  C_19
REMARK    8  A    between atoms: C_22  and  O_23
REMARK    9  A    between atoms: O_23  and  C_24
REMARK                            x       y       z     vdW  Elec       q    Type
REMARK                         _______ _______ _______ _____ _____    ______ ____
ROOT
ATOM      1  C   UNL     1      34.404 -19.534 -20.775  0.00  0.00    +0.016 C 
ENDROOT
BRANCH   1   3
ATOM      2  N   UNL     1      34.743 -15.306 -23.325  0.00  0.00    -0.241 NA
ATOM      3  C   UNL     1      34.546 -18.754 -22.045  0.00  0.00    -0.022 C 
ATOM      4  C   UNL     1      34.575 -17.349 -22.058  0.00  0.00    +0.017 C 
ATOM      5  C   UNL     1      34.652 -19.472 -23.233  0.00  0.00    -0.001 C 
ATOM      6  C   UNL     1      34.711 -16.651 -23.277  0.00  0.00    +0.115 C 
ATOM      7  C   UNL     1      34.814 -17.394 -24.449  0.00  0.00    +0.151 C 
ATOM      8  C   UNL     1      34.785 -18.790 -24.436  0.00  0.00    +0.038 C 
ATOM      9  C   UNL     1      34.471 -16.601 -20.877  0.00  0.00    +0.003 C 
ATOM     10  C   UNL     1      34.503 -15.215 -20.924  0.00  0.00    +0.021 C 
ATOM     11  C   UNL     1      34.639 -14.621 -22.162  0.00  0.00    +0.099 C 
BRANCH   7  12
ATOM     12  O   UNL     1      34.947 -16.760 -25.653  0.00  0.00    -0.504 OA
ATOM     13  H   UNL     1      34.429 -16.004 -25.845  0.00  0.00    +0.292 HD
ENDBRANCH   7  12
ENDBRANCH   1   3
BRANCH   1  14
ATOM     14  C   UNL     1      35.321 -20.770 -20.707  0.00  0.00    +0.046 C 
BRANCH  14  15
ATOM     15  N   UNL     1      34.582 -21.915 -20.172  0.00  0.00    +0.400 N 
ATOM     16  H   UNL     1      35.189 -22.442 -19.544  0.00  0.00    -0.082 HD
ATOM     17  H   UNL     1      34.282 -22.505 -20.949  0.00  0.00    -0.082 HD
BRANCH  15  18
ATOM     18  C   UNL     1      33.407 -21.471 -19.440  0.00  0.00    -0.001 C 
BRANCH  18  19
ATOM     19  C   UNL     1      33.123 -22.367 -18.314  0.00  0.00    -0.102 C 
ATOM     20  C   UNL     1      32.897 -23.098 -17.389  0.00  0.00    -0.016 C 
ENDBRANCH  18  19
ENDBRANCH  15  18
ENDBRANCH  14  15
BRANCH  14  22
ATOM     21  O   UNL     1      37.180 -19.511 -19.757  0.00  0.00    -0.252 OA
ATOM     22  C   UNL     1      36.492 -20.526 -19.772  0.00  0.00    +0.297 C 
BRANCH  22  23
ATOM     23  O   UNL     1      36.637 -21.597 -18.937  0.00  0.00    -0.450 OA
BRANCH  23  24
ATOM     24  C   UNL     1      36.998 -21.286 -17.587  0.00  0.00    +0.208 C 
ATOM     25  C   UNL     1      36.484 -22.378 -16.675  0.00  0.00    +0.051 C 
ENDBRANCH  23  24
ENDBRANCH  22  23
ENDBRANCH  14  22
ENDBRANCH   1  14
TORSDOF 9
ENDMDL
MODEL 4
REMARK VINA RESULT:      -8.0      3.342      7.805
REMARK  Name = 10424768
REMARK  9 active torsions:
REMARK  status: ('A' for Active; 'I' for Inactive)
REMARK    1  A    between atoms: C_1  and  C_3
REMARK    2  A    between atoms: C_1  and  C_14
REMARK    3  A    between atoms: C_7  and  O_12
REMARK    4  A    between atoms: C_14  and  N_15
REMARK    5  A    between atoms: C_14  and  C_22
REMARK    6  A    between atoms: N_15  and  C_18
REMARK    7  A    between atoms: C_18  and  C_19
REMARK    8  A    between atoms: C_22  and  O_23
REMARK    9  A    between atoms: O_23  and  C_24
REMARK                            x       y       z     vdW  Elec       q    Type
REMARK                         _______ _______ _______ _____ _____    ______ ____
ROOT
ATOM      1  C   UNL     1      35.141 -17.101 -21.522  0.00  0.00    +0.016 C 
ENDROOT
BRANCH   1   3
ATOM      2  N   UNL     1      32.770 -13.918 -24.478  0.00  0.00    -0.241 NA
ATOM      3  C   UNL     1      34.674 -16.625 -22.862  0.00  0.00    -0.022 C 
ATOM      4  C   UNL     1      33.917 -15.451 -23.015  0.00  0.00    +0.017 C 
ATOM      5  C   UNL     1      35.018 -17.391 -23.973  0.00  0.00    -0.001 C 
ATOM      6  C   UNL     1      33.496 -15.037 -24.296  0.00  0.00    +0.115 C 
ATOM      7  C   UNL     1      33.854 -15.822 -25.389  0.00  0.00    +0.151 C 
ATOM      8  C   UNL     1      34.606 -16.988 -25.237  0.00  0.00    +0.038 C 
ATOM      9  C   UNL     1      33.557 -14.661 -21.915  0.00  0.00    +0.003 C 
ATOM     10  C   UNL     1      32.809 -13.508 -22.099  0.00  0.00    +0.021 C 
ATOM     11  C   UNL     1      32.443 -13.183 -23.389  0.00  0.00    +0.099 C 
BRANCH   7  12
ATOM     12  O   UNL     1      33.468 -15.459 -26.649  0.00  0.00    -0.504 OA
ATOM     13  H   UNL     1      33.458 -16.095 -27.338  0.00  0.00    +0.292 HD
ENDBRANCH   7  12
ENDBRANCH   1   3
BRANCH   1  14
ATOM     14  C   UNL     1      35.167 -18.635 -21.388  0.00  0.00    +0.046 C 
BRANCH  14  15
ATOM     15  N   UNL     1      34.230 -19.065 -20.348  0.00  0.00    +0.400 N 
ATOM     16  H   UNL     1      33.644 -18.274 -20.078  0.00  0.00    -0.082 HD
ATOM     17  H   UNL     1      34.763 -19.399 -19.545  0.00  0.00    -0.082 HD
BRANCH  15  18
ATOM     18  C   UNL     1      33.384 -20.143 -20.832  0.00  0.00    -0.001 C 
BRANCH  18  19
ATOM     19  C   UNL     1      33.250 -21.197 -19.822  0.00  0.00    -0.102 C 
ATOM     20  C   UNL     1      33.139 -22.064 -18.999  0.00  0.00    -0.016 C 
ENDBRANCH  18  19
ENDBRANCH  15  18
ENDBRANCH  14  15
BRANCH  14  22
ATOM     21  O   UNL     1      37.574 -18.951 -21.610  0.00  0.00    -0.252 OA
ATOM     22  C   UNL     1      36.544 -19.120 -20.969  0.00  0.00    +0.297 C 
BRANCH  22  23
ATOM     23  O   UNL     1      36.455 -19.745 -19.757  0.00  0.00    -0.450 OA
BRANCH  23  24
ATOM     24  C   UNL     1      36.868 -21.115 -19.735  0.00  0.00    +0.208 C 
ATOM     25  C   UNL     1      36.671 -21.667 -18.340  0.00  0.00    +0.051 C 
ENDBRANCH  23  24
ENDBRANCH  22  23
ENDBRANCH  14  22
ENDBRANCH   1  14
TORSDOF 9
ENDMDL
MODEL 5
REMARK VINA RESULT:      -7.8      1.449      6.946
REMARK  Name = 10424768
REMARK  9 active torsions:
REMARK  status: ('A' for Active; 'I' for Inactive)
REMARK    1  A    between atoms: C_1  and  C_3
REMARK    2  A    between atoms: C_1  and  C_14
REMARK    3  A    between atoms: C_7  and  O_12
REMARK    4  A    between atoms: C_14  and  N_15
REMARK    5  A    between atoms: C_14  and  C_22
REMARK    6  A    between atoms: N_15  and  C_18
REMARK    7  A    between atoms: C_18  and  C_19
REMARK    8  A    between atoms: C_22  and  O_23
REMARK    9  A    between atoms: O_23  and  C_24
REMARK                            x       y       z     vdW  Elec       q    Type
REMARK                         _______ _______ _______ _____ _____    ______ ____
ROOT
ATOM      1  C   UNL     1      33.212 -14.476 -23.425  0.00  0.00    +0.016 C 
ENDROOT
BRANCH   1   3
ATOM      2  N   UNL     1      32.034  -9.914 -21.913  0.00  0.00    -0.241 NA
ATOM      3  C   UNL     1      33.227 -12.986 -23.558  0.00  0.00    -0.022 C 
ATOM      4  C   UNL     1      32.593 -12.147 -22.626  0.00  0.00    +0.017 C 
ATOM      5  C   UNL     1      33.901 -12.444 -24.650  0.00  0.00    -0.001 C 
ATOM      6  C   UNL     1      32.631 -10.746 -22.787  0.00  0.00    +0.115 C 
ATOM      7  C   UNL     1      33.310 -10.231 -23.888  0.00  0.00    +0.151 C 
ATOM      8  C   UNL     1      33.941 -11.065 -24.814  0.00  0.00    +0.038 C 
ATOM      9  C   UNL     1      31.908 -12.665 -21.518  0.00  0.00    +0.003 C 
ATOM     10  C   UNL     1      31.292 -11.810 -20.617  0.00  0.00    +0.021 C 
ATOM     11  C   UNL     1      31.383 -10.455 -20.857  0.00  0.00    +0.099 C 
BRANCH   7  12
ATOM     12  O   UNL     1      33.373  -8.880 -24.084  0.00  0.00    -0.504 OA
ATOM     13  H   UNL     1      33.160  -8.294 -23.385  0.00  0.00    +0.292 HD
ENDBRANCH   7  12
ENDBRANCH   1   3
BRANCH   1  14
ATOM     14  C   UNL     1      34.445 -15.041 -22.696  0.00  0.00    +0.046 C 
BRANCH  14  15
ATOM     15  N   UNL     1      35.240 -15.862 -23.612  0.00  0.00    +0.400 N 
ATOM     16  H   UNL     1      35.637 -16.648 -23.097  0.00  0.00    -0.082 HD
ATOM     17  H   UNL     1      35.984 -15.286 -24.006  0.00  0.00    -0.082 HD
BRANCH  15  18
ATOM     18  C   UNL     1      34.414 -16.368 -24.695  0.00  0.00    -0.001 C 
BRANCH  18  19
ATOM     19  C   UNL     1      34.469 -17.832 -24.756  0.00  0.00    -0.102 C 
ATOM     20  C   UNL     1      34.514 -19.031 -24.812  0.00  0.00    -0.016 C 
ENDBRANCH  18  19
ENDBRANCH  15  18
ENDBRANCH  14  15
BRANCH  14  22
ATOM     21  O   UNL     1      32.888 -16.047 -21.113  0.00  0.00    -0.252 OA
ATOM     22  C   UNL     1      34.030 -15.942 -21.545  0.00  0.00    +0.297 C 
BRANCH  22  23
ATOM     23  O   UNL     1      35.119 -16.632 -21.093  0.00  0.00    -0.450 OA
BRANCH  23  24
ATOM     24  C   UNL     1      34.973 -18.055 -21.046  0.00  0.00    +0.208 C 
ATOM     25  C   UNL     1      36.265 -18.698 -21.502  0.00  0.00    +0.051 C 
ENDBRANCH  23  24
ENDBRANCH  22  23
ENDBRANCH  14  22
ENDBRANCH   1  14
TORSDOF 9
ENDMDL
MODEL 6
REMARK VINA RESULT:      -7.8      1.771      3.859
REMARK  Name = 10424768
REMARK  9 active torsions:
REMARK  status: ('A' for Active; 'I' for Inactive)
REMARK    1  A    between atoms: C_1  and  C_3
REMARK    2  A    between atoms: C_1  and  C_14
REMARK    3  A    between atoms: C_7  and  O_12
REMARK    4  A    between atoms: C_14  and  N_15
REMARK    5  A    between atoms: C_14  and  C_22
REMARK    6  A    between atoms: N_15  and  C_18
REMARK    7  A    between atoms: C_18  and  C_19
REMARK    8  A    between atoms: C_22  and  O_23
REMARK    9  A    between atoms: O_23  and  C_24
REMARK                            x       y       z     vdW  Elec       q    Type
REMARK                         _______ _______ _______ _____ _____    ______ ____
ROOT
ATOM      1  C   UNL     1      32.624 -13.090 -22.596  0.00  0.00    +0.016 C 
ENDROOT
BRANCH   1   3
ATOM      2  N   UNL     1      35.096 -17.336 -23.186  0.00  0.00    -0.241 NA
ATOM      3  C   UNL     1      33.182 -14.200 -23.432  0.00  0.00    -0.022 C 
ATOM      4  C   UNL     1      33.897 -15.270 -22.869  0.00  0.00    +0.017 C 
ATOM      5  C   UNL     1      32.966 -14.141 -24.806  0.00  0.00    -0.001 C 
ATOM      6  C   UNL     1      34.407 -16.297 -23.692  0.00  0.00    +0.115 C 
ATOM      7  C   UNL     1      34.177 -16.213 -25.063  0.00  0.00    +0.151 C 
ATOM      8  C   UNL     1      33.466 -15.150 -25.621  0.00  0.00    +0.038 C 
ATOM      9  C   UNL     1      34.129 -15.355 -21.489  0.00  0.00    +0.003 C 
ATOM     10  C   UNL     1      34.839 -16.424 -20.966  0.00  0.00    +0.021 C 
ATOM     11  C   UNL     1      35.298 -17.380 -21.848  0.00  0.00    +0.099 C 
BRANCH   7  12
ATOM     12  O   UNL     1      34.652 -17.185 -25.898  0.00  0.00    -0.504 OA
ATOM     13  H   UNL     1      34.600 -17.072 -26.827  0.00  0.00    +0.292 HD
ENDBRANCH   7  12
ENDBRANCH   1   3
BRANCH   1  14
ATOM     14  C   UNL     1      32.693 -11.711 -23.280  0.00  0.00    +0.046 C 
BRANCH  14  15
ATOM     15  N   UNL     1      34.070 -11.215 -23.274  0.00  0.00    +0.400 N 
ATOM     16  H   UNL     1      34.712 -12.009 -23.291  0.00  0.00    -0.082 HD
ATOM     17  H   UNL     1      34.216 -10.663 -22.429  0.00  0.00    -0.082 HD
BRANCH  15  18
ATOM     18  C   UNL     1      34.318 -10.375 -24.433  0.00  0.00    -0.001 C 
BRANCH  18  19
ATOM     19  C   UNL     1      34.601  -8.994 -24.027  0.00  0.00    -0.102 C 
ATOM     20  C   UNL     1      34.838  -7.864 -23.698  0.00  0.00    -0.016 C 
ENDBRANCH  18  19
ENDBRANCH  15  18
ENDBRANCH  14  15
BRANCH  14  22
ATOM     21  O   UNL     1      31.433  -9.643 -23.002  0.00  0.00    -0.252 OA
ATOM     22  C   UNL     1      31.854 -10.692 -22.529  0.00  0.00    +0.297 C 
BRANCH  22  23
ATOM     23  O   UNL     1      31.620 -11.142 -21.260  0.00  0.00    -0.450 OA
BRANCH  23  24
ATOM     24  C   UNL     1      31.628 -10.143 -20.237  0.00  0.00    +0.208 C 
ATOM     25  C   UNL     1      31.406 -10.807 -18.895  0.00  0.00    +0.051 C 
ENDBRANCH  23  24
ENDBRANCH  22  23
ENDBRANCH  14  22
ENDBRANCH   1  14
TORSDOF 9
ENDMDL
MODEL 7
REMARK VINA RESULT:      -7.7      1.045      2.393
REMARK  Name = 10424768
REMARK  9 active torsions:
REMARK  status: ('A' for Active; 'I' for Inactive)
REMARK    1  A    between atoms: C_1  and  C_3
REMARK    2  A    between atoms: C_1  and  C_14
REMARK    3  A    between atoms: C_7  and  O_12
REMARK    4  A    between atoms: C_14  and  N_15
REMARK    5  A    between atoms: C_14  and  C_22
REMARK    6  A    between atoms: N_15  and  C_18
REMARK    7  A    between atoms: C_18  and  C_19
REMARK    8  A    between atoms: C_22  and  O_23
REMARK    9  A    between atoms: O_23  and  C_24
REMARK                            x       y       z     vdW  Elec       q    Type
REMARK                         _______ _______ _______ _____ _____    ______ ____
ROOT
ATOM      1  C   UNL     1      32.278 -13.034 -23.653  0.00  0.00    +0.016 C 
ENDROOT
BRANCH   1   3
ATOM      2  N   UNL     1      35.035 -16.819 -22.052  0.00  0.00    -0.241 NA
ATOM      3  C   UNL     1      33.088 -14.273 -23.868  0.00  0.00    -0.022 C 
ATOM      4  C   UNL     1      33.690 -14.966 -22.803  0.00  0.00    +0.017 C 
ATOM      5  C   UNL     1      33.231 -14.731 -25.176  0.00  0.00    -0.001 C 
ATOM      6  C   UNL     1      34.445 -16.132 -23.049  0.00  0.00    +0.115 C 
ATOM      7  C   UNL     1      34.572 -16.566 -24.365  0.00  0.00    +0.151 C 
ATOM      8  C   UNL     1      33.974 -15.878 -25.423  0.00  0.00    +0.038 C 
ATOM      9  C   UNL     1      33.562 -14.529 -21.478  0.00  0.00    +0.003 C 
ATOM     10  C   UNL     1      34.169 -15.234 -20.449  0.00  0.00    +0.021 C 
ATOM     11  C   UNL     1      34.888 -16.363 -20.786  0.00  0.00    +0.099 C 
BRANCH   7  12
ATOM     12  O   UNL     1      35.295 -17.691 -24.650  0.00  0.00    -0.504 OA
ATOM     13  H   UNL     1      35.904 -17.689 -25.362  0.00  0.00    +0.292 HD
ENDBRANCH   7  12
ENDBRANCH   1   3
BRANCH   1  14
ATOM     14  C   UNL     1      33.104 -11.840 -23.138  0.00  0.00    +0.046 C 
BRANCH  14  15
ATOM     15  N   UNL     1      32.244 -10.916 -22.397  0.00  0.00    +0.400 N 
ATOM     16  H   UNL     1      31.741 -10.324 -23.059  0.00  0.00    -0.082 HD
ATOM     17  H   UNL     1      32.827 -10.343 -21.786  0.00  0.00    -0.082 HD
BRANCH  15  18
ATOM     18  C   UNL     1      31.286 -11.645 -21.583  0.00  0.00    -0.001 C 
BRANCH  18  19
ATOM     19  C   UNL     1      31.358 -11.220 -20.182  0.00  0.00    -0.102 C 
ATOM     20  C   UNL     1      31.413 -10.867 -19.035  0.00  0.00    -0.016 C 
ENDBRANCH  18  19
ENDBRANCH  15  18
ENDBRANCH  14  15
BRANCH  14  22
ATOM     21  O   UNL     1      34.144 -11.550 -25.324  0.00  0.00    -0.252 OA
ATOM     22  C   UNL     1      33.703 -11.056 -24.293  0.00  0.00    +0.297 C 
BRANCH  22  23
ATOM     23  O   UNL     1      33.644  -9.720 -24.013  0.00  0.00    -0.450 OA
BRANCH  23  24
ATOM     24  C   UNL     1      34.861  -8.993 -24.207  0.00  0.00    +0.208 C 
ATOM     25  C   UNL     1      34.781  -7.685 -23.449  0.00  0.00    +0.051 C 
ENDBRANCH  23  24
ENDBRANCH  22  23
ENDBRANCH  14  22
ENDBRANCH   1  14
TORSDOF 9
ENDMDL
MODEL 8
REMARK VINA RESULT:      -7.6      2.136      4.302
REMARK  Name = 10424768
REMARK  9 active torsions:
REMARK  status: ('A' for Active; 'I' for Inactive)
REMARK    1  A    between atoms: C_1  and  C_3
REMARK    2  A    between atoms: C_1  and  C_14
REMARK    3  A    between atoms: C_7  and  O_12
REMARK    4  A    between atoms: C_14  and  N_15
REMARK    5  A    between atoms: C_14  and  C_22
REMARK    6  A    between atoms: N_15  and  C_18
REMARK    7  A    between atoms: C_18  and  C_19
REMARK    8  A    between atoms: C_22  and  O_23
REMARK    9  A    between atoms: O_23  and  C_24
REMARK                            x       y       z     vdW  Elec       q    Type
REMARK                         _______ _______ _______ _____ _____    ______ ____
ROOT
ATOM      1  C   UNL     1      34.422 -14.362 -23.020  0.00  0.00    +0.016 C 
ENDROOT
BRANCH   1   3
ATOM      2  N   UNL     1      35.080 -19.259 -22.735  0.00  0.00    -0.241 NA
ATOM      3  C   UNL     1      34.433 -15.739 -23.606  0.00  0.00    -0.022 C 
ATOM      4  C   UNL     1      34.767 -16.872 -22.845  0.00  0.00    +0.017 C 
ATOM      5  C   UNL     1      34.095 -15.868 -24.951  0.00  0.00    -0.001 C 
ATOM      6  C   UNL     1      34.765 -18.153 -23.436  0.00  0.00    +0.115 C 
ATOM      7  C   UNL     1      34.424 -18.253 -24.782  0.00  0.00    +0.151 C 
ATOM      8  C   UNL     1      34.092 -17.128 -25.538  0.00  0.00    +0.038 C 
ATOM      9  C   UNL     1      35.111 -16.771 -21.490  0.00  0.00    +0.003 C 
ATOM     10  C   UNL     1      35.436 -17.908 -20.766  0.00  0.00    +0.021 C 
ATOM     11  C   UNL     1      35.406 -19.118 -21.429  0.00  0.00    +0.099 C 
BRANCH   7  12
ATOM     12  O   UNL     1      34.408 -19.474 -25.396  0.00  0.00    -0.504 OA
ATOM     13  H   UNL     1      34.093 -19.553 -26.275  0.00  0.00    +0.292 HD
ENDBRANCH   7  12
ENDBRANCH   1   3
BRANCH   1  14
ATOM     14  C   UNL     1      33.042 -13.681 -23.076  0.00  0.00    +0.046 C 
BRANCH  14  15
ATOM     15  N   UNL     1      33.188 -12.283 -23.486  0.00  0.00    +0.400 N 
ATOM     16  H   UNL     1      33.826 -11.811 -22.845  0.00  0.00    -0.082 HD
ATOM     17  H   UNL     1      32.271 -11.837 -23.462  0.00  0.00    -0.082 HD
BRANCH  15  18
ATOM     18  C   UNL     1      33.716 -12.197 -24.837  0.00  0.00    -0.001 C 
BRANCH  18  19
ATOM     19  C   UNL     1      34.537 -10.993 -25.002  0.00  0.00    -0.102 C 
ATOM     20  C   UNL     1      35.212 -10.009 -25.143  0.00  0.00    -0.016 C 
ENDBRANCH  18  19
ENDBRANCH  15  18
ENDBRANCH  14  15
BRANCH  14  22
ATOM     21  O   UNL     1      32.474 -14.571 -20.878  0.00  0.00    -0.252 OA
ATOM     22  C   UNL     1      32.386 -13.672 -21.706  0.00  0.00    +0.297 C 
BRANCH  22  23
ATOM     23  O   UNL     1      31.712 -12.496 -21.533  0.00  0.00    -0.450 OA
BRANCH  23  24
ATOM     24  C   UNL     1      31.694 -11.982 -20.198  0.00  0.00    +0.208 C 
ATOM     25  C   UNL     1      31.372 -10.504 -20.242  0.00  0.00    +0.051 C 
ENDBRANCH  23  24
ENDBRANCH  22  23
ENDBRANCH  14  22
ENDBRANCH   1  14
TORSDOF 9
ENDMDL
MODEL 9
REMARK VINA RESULT:      -7.5      1.916      6.638
REMARK  Name = 10424768
REMARK  9 active torsions:
REMARK  status: ('A' for Active; 'I' for Inactive)
REMARK    1  A    between atoms: C_1  and  C_3
REMARK    2  A    between atoms: C_1  and  C_14
REMARK    3  A    between atoms: C_7  and  O_12
REMARK    4  A    between atoms: C_14  and  N_15
REMARK    5  A    between atoms: C_14  and  C_22
REMARK    6  A    between atoms: N_15  and  C_18
REMARK    7  A    between atoms: C_18  and  C_19
REMARK    8  A    between atoms: C_22  and  O_23
REMARK    9  A    between atoms: O_23  and  C_24
REMARK                            x       y       z     vdW  Elec       q    Type
REMARK                         _______ _______ _______ _____ _____    ______ ____
ROOT
ATOM      1  C   UNL     1      32.478 -13.653 -22.909  0.00  0.00    +0.016 C 
ENDROOT
BRANCH   1   3
ATOM      2  N   UNL     1      33.522  -8.834 -23.327  0.00  0.00    -0.241 NA
ATOM      3  C   UNL     1      32.321 -12.219 -22.512  0.00  0.00    -0.022 C 
ATOM      4  C   UNL     1      33.033 -11.187 -23.146  0.00  0.00    +0.017 C 
ATOM      5  C   UNL     1      31.433 -11.931 -21.479  0.00  0.00    -0.001 C 
ATOM      6  C   UNL     1      32.856  -9.846 -22.741  0.00  0.00    +0.115 C 
ATOM      7  C   UNL     1      31.962  -9.587 -21.706  0.00  0.00    +0.151 C 
ATOM      8  C   UNL     1      31.255 -10.613 -21.076  0.00  0.00    +0.038 C 
ATOM      9  C   UNL     1      33.933 -11.447 -24.188  0.00  0.00    +0.003 C 
ATOM     10  C   UNL     1      34.621 -10.406 -24.793  0.00  0.00    +0.021 C 
ATOM     11  C   UNL     1      34.382  -9.128 -24.330  0.00  0.00    +0.099 C 
BRANCH   7  12
ATOM     12  O   UNL     1      31.759  -8.304 -21.281  0.00  0.00    -0.504 OA
ATOM     13  H   UNL     1      31.029  -8.104 -20.728  0.00  0.00    +0.292 HD
ENDBRANCH   7  12
ENDBRANCH   1   3
BRANCH   1  14
ATOM     14  C   UNL     1      33.680 -14.349 -22.241  0.00  0.00    +0.046 C 
BRANCH  14  15
ATOM     15  N   UNL     1      34.586 -14.877 -23.262  0.00  0.00    +0.400 N 
ATOM     16  H   UNL     1      35.093 -15.676 -22.879  0.00  0.00    -0.082 HD
ATOM     17  H   UNL     1      35.240 -14.142 -23.532  0.00  0.00    -0.082 HD
BRANCH  15  18
ATOM     18  C   UNL     1      33.845 -15.301 -24.438  0.00  0.00    -0.001 C 
BRANCH  18  19
ATOM     19  C   UNL     1      34.224 -16.661 -24.833  0.00  0.00    -0.102 C 
ATOM     20  C   UNL     1      34.534 -17.778 -25.151  0.00  0.00    -0.016 C 
ENDBRANCH  18  19
ENDBRANCH  15  18
ENDBRANCH  14  15
BRANCH  14  22
ATOM     21  O   UNL     1      32.061 -15.774 -21.105  0.00  0.00    -0.252 OA
ATOM     22  C   UNL     1      33.224 -15.531 -21.402  0.00  0.00    +0.297 C 
BRANCH  22  23
ATOM     23  O   UNL     1      34.308 -16.289 -21.060  0.00  0.00    -0.450 OA
BRANCH  23  24
ATOM     24  C   UNL     1      34.156 -17.701 -21.237  0.00  0.00    +0.208 C 
ATOM     25  C   UNL     1      35.525 -18.347 -21.240  0.00  0.00    +0.051 C 
ENDBRANCH  23  24
ENDBRANCH  22  23
ENDBRANCH  14  22
ENDBRANCH   1  14
TORSDOF 9
ENDMDL
