MODEL 1
REMARK VINA RESULT:      -6.6      0.000      0.000
REMARK  Name = 448673
REMARK  10 active torsions:
REMARK  status: ('A' for Active; 'I' for Inactive)
REMARK    1  A    between atoms: P_1  and  O_3
REMARK    2  A    between atoms: P_1  and  O_5
REMARK    3  A    between atoms: P_1  and  O_11
REMARK    4  A    between atoms: O_5  and  C_6
REMARK    5  A    between atoms: C_6  and  C_7
REMARK    6  A    between atoms: C_7  and  C_8
REMARK    7  A    between atoms: C_8  and  C_9
REMARK    8  A    between atoms: O_11  and  P_12
REMARK    9  A    between atoms: P_12  and  O_14
REMARK   10  A    between atoms: P_12  and  O_16
REMARK                            x       y       z     vdW  Elec       q    Type
REMARK                         _______ _______ _______ _____ _____    ______ ____
ROOT
ATOM      1  P   UNL     1      37.211 -26.030 -14.424  0.00  0.00    +0.484 P 
ATOM      2  O   UNL     1      36.760 -25.677 -13.036  0.00  0.00    -0.227 OA
ENDROOT
BRANCH   1   3
ATOM      3  O   UNL     1      36.270 -27.111 -15.176  0.00  0.00    -0.302 OA
ATOM      4  H   UNL     1      35.398 -26.720 -15.341  0.00  0.00    +0.222 HD
ENDBRANCH   1   3
BRANCH   1   5
ATOM      5  O   UNL     1      37.288 -24.780 -15.445  0.00  0.00    -0.273 OA
BRANCH   5   6
ATOM      6  C   UNL     1      36.774 -23.514 -15.055  0.00  0.00    +0.154 C 
BRANCH   6   7
ATOM      7  C   UNL     1      37.194 -22.473 -16.083  0.00  0.00    +0.033 C 
BRANCH   7   8
ATOM      8  C   UNL     1      36.102 -22.238 -17.125  0.00  0.00    +0.003 C 
BRANCH   8   9
ATOM      9  C   UNL     1      36.661 -21.554 -18.372  0.00  0.00    +0.000 C 
ATOM     10  C   UNL     1      35.591 -21.378 -19.438  0.00  0.00    +0.000 C 
ENDBRANCH   8   9
ENDBRANCH   7   8
ENDBRANCH   6   7
ENDBRANCH   5   6
ENDBRANCH   1   5
BRANCH   1  11
ATOM     11  O   UNL     1      38.678 -26.705 -14.492  0.00  0.00    -0.186 OA
BRANCH  11  12
ATOM     12  P   UNL     1      40.146 -26.040 -14.624  0.00  0.00    +0.481 P 
ATOM     13  O   UNL     1      41.262 -26.869 -14.062  0.00  0.00    -0.227 OA
BRANCH  12  14
ATOM     14  O   UNL     1      39.952 -24.589 -13.939  0.00  0.00    -0.302 OA
ATOM     15  H   UNL     1      40.381 -24.581 -13.069  0.00  0.00    +0.222 HD
ENDBRANCH  12  14
BRANCH  12  16
ATOM     16  O   UNL     1      40.261 -25.700 -16.200  0.00  0.00    -0.302 OA
ATOM     17  H   UNL     1      39.386 -25.461 -16.544  0.00  0.00    +0.222 HD
ENDBRANCH  12  16
ENDBRANCH  11  12
ENDBRANCH   1  11
TORSDOF 10
ENDMDL
MODEL 2
REMARK VINA RESULT:      -6.5      1.837      3.166
REMARK  Name = 448673
REMARK  10 active torsions:
REMARK  status: ('A' for Active; 'I' for Inactive)
REMARK    1  A    between atoms: P_1  and  O_3
REMARK    2  A    between atoms: P_1  and  O_5
REMARK    3  A    between atoms: P_1  and  O_11
REMARK    4  A    between atoms: O_5  and  C_6
REMARK    5  A    between atoms: C_6  and  C_7
REMARK    6  A    between atoms: C_7  and  C_8
REMARK    7  A    between atoms: C_8  and  C_9
REMARK    8  A    between atoms: O_11  and  P_12
REMARK    9  A    between atoms: P_12  and  O_14
REMARK   10  A    between atoms: P_12  and  O_16
REMARK                            x       y       z     vdW  Elec       q    Type
REMARK                         _______ _______ _______ _____ _____    ______ ____
ROOT
ATOM      1  P   UNL     1      36.509 -23.426 -15.318  0.00  0.00    +0.484 P 
ATOM      2  O   UNL     1      37.848 -23.065 -14.742  0.00  0.00    -0.227 OA
ENDROOT
BRANCH   1   3
ATOM      3  O   UNL     1      35.249 -22.802 -14.517  0.00  0.00    -0.302 OA
ATOM      4  H   UNL     1      35.338 -21.836 -14.478  0.00  0.00    +0.222 HD
ENDBRANCH   1   3
BRANCH   1   5
ATOM      5  O   UNL     1      36.287 -22.959 -16.849  0.00  0.00    -0.273 OA
BRANCH   5   6
ATOM      6  C   UNL     1      36.737 -21.679 -17.272  0.00  0.00    +0.154 C 
BRANCH   6   7
ATOM      7  C   UNL     1      36.527 -21.555 -18.774  0.00  0.00    +0.033 C 
BRANCH   7   8
ATOM      8  C   UNL     1      35.054 -21.699 -19.151  0.00  0.00    +0.003 C 
BRANCH   8   9
ATOM      9  C   UNL     1      34.633 -20.641 -20.170  0.00  0.00    +0.000 C 
ATOM     10  C   UNL     1      33.125 -20.448 -20.184  0.00  0.00    +0.000 C 
ENDBRANCH   8   9
ENDBRANCH   7   8
ENDBRANCH   6   7
ENDBRANCH   5   6
ENDBRANCH   1   5
BRANCH   1  11
ATOM     11  O   UNL     1      36.196 -25.011 -15.324  0.00  0.00    -0.186 OA
BRANCH  11  12
ATOM     12  P   UNL     1      37.158 -26.283 -15.056  0.00  0.00    +0.481 P 
ATOM     13  O   UNL     1      37.086 -26.840 -13.665  0.00  0.00    -0.227 OA
BRANCH  12  14
ATOM     14  O   UNL     1      38.612 -25.744 -15.510  0.00  0.00    -0.302 OA
ATOM     15  H   UNL     1      38.864 -26.158 -16.350  0.00  0.00    +0.222 HD
ENDBRANCH  12  14
BRANCH  12  16
ATOM     16  O   UNL     1      36.752 -27.312 -16.235  0.00  0.00    -0.302 OA
ATOM     17  H   UNL     1      37.517 -27.458 -16.813  0.00  0.00    +0.222 HD
ENDBRANCH  12  16
ENDBRANCH  11  12
ENDBRANCH   1  11
TORSDOF 10
ENDMDL
MODEL 3
REMARK VINA RESULT:      -6.4      1.949      2.305
REMARK  Name = 448673
REMARK  10 active torsions:
REMARK  status: ('A' for Active; 'I' for Inactive)
REMARK    1  A    between atoms: P_1  and  O_3
REMARK    2  A    between atoms: P_1  and  O_5
REMARK    3  A    between atoms: P_1  and  O_11
REMARK    4  A    between atoms: O_5  and  C_6
REMARK    5  A    between atoms: C_6  and  C_7
REMARK    6  A    between atoms: C_7  and  C_8
REMARK    7  A    between atoms: C_8  and  C_9
REMARK    8  A    between atoms: O_11  and  P_12
REMARK    9  A    between atoms: P_12  and  O_14
REMARK   10  A    between atoms: P_12  and  O_16
REMARK                            x       y       z     vdW  Elec       q    Type
REMARK                         _______ _______ _______ _____ _____    ______ ____
ROOT
ATOM      1  P   UNL     1      37.585 -25.087 -12.560  0.00  0.00    +0.484 P 
ATOM      2  O   UNL     1      37.608 -24.403 -11.224  0.00  0.00    -0.227 OA
ENDROOT
BRANCH   1   3
ATOM      3  O   UNL     1      36.834 -26.521 -12.562  0.00  0.00    -0.302 OA
ATOM      4  H   UNL     1      37.290 -27.123 -13.172  0.00  0.00    +0.222 HD
ENDBRANCH   1   3
BRANCH   1   5
ATOM      5  O   UNL     1      36.856 -24.248 -13.734  0.00  0.00    -0.273 OA
BRANCH   5   6
ATOM      6  C   UNL     1      35.439 -24.153 -13.762  0.00  0.00    +0.154 C 
BRANCH   6   7
ATOM      7  C   UNL     1      34.954 -24.438 -15.176  0.00  0.00    +0.033 C 
BRANCH   7   8
ATOM      8  C   UNL     1      34.639 -23.150 -15.934  0.00  0.00    +0.003 C 
BRANCH   8   9
ATOM      9  C   UNL     1      33.425 -23.324 -16.847  0.00  0.00    +0.000 C 
ATOM     10  C   UNL     1      33.681 -22.747 -18.230  0.00  0.00    +0.000 C 
ENDBRANCH   8   9
ENDBRANCH   7   8
ENDBRANCH   6   7
ENDBRANCH   5   6
ENDBRANCH   1   5
BRANCH   1  11
ATOM     11  O   UNL     1      39.047 -25.434 -13.153  0.00  0.00    -0.186 OA
BRANCH  11  12
ATOM     12  P   UNL     1      39.538 -25.720 -14.667  0.00  0.00    +0.481 P 
ATOM     13  O   UNL     1      40.844 -26.448 -14.776  0.00  0.00    -0.227 OA
BRANCH  12  14
ATOM     14  O   UNL     1      39.507 -24.252 -15.344  0.00  0.00    -0.302 OA
ATOM     15  H   UNL     1      39.237 -24.329 -16.272  0.00  0.00    +0.222 HD
ENDBRANCH  12  14
BRANCH  12  16
ATOM     16  O   UNL     1      38.269 -26.468 -15.334  0.00  0.00    -0.302 OA
ATOM     17  H   UNL     1      37.756 -26.913 -14.642  0.00  0.00    +0.222 HD
ENDBRANCH  12  16
ENDBRANCH  11  12
ENDBRANCH   1  11
TORSDOF 10
ENDMDL
MODEL 4
REMARK VINA RESULT:      -6.4      1.532      1.827
REMARK  Name = 448673
REMARK  10 active torsions:
REMARK  status: ('A' for Active; 'I' for Inactive)
REMARK    1  A    between atoms: P_1  and  O_3
REMARK    2  A    between atoms: P_1  and  O_5
REMARK    3  A    between atoms: P_1  and  O_11
REMARK    4  A    between atoms: O_5  and  C_6
REMARK    5  A    between atoms: C_6  and  C_7
REMARK    6  A    between atoms: C_7  and  C_8
REMARK    7  A    between atoms: C_8  and  C_9
REMARK    8  A    between atoms: O_11  and  P_12
REMARK    9  A    between atoms: P_12  and  O_14
REMARK   10  A    between atoms: P_12  and  O_16
REMARK                            x       y       z     vdW  Elec       q    Type
REMARK                         _______ _______ _______ _____ _____    ______ ____
ROOT
ATOM      1  P   UNL     1      37.179 -26.039 -14.379  0.00  0.00    +0.484 P 
ATOM      2  O   UNL     1      36.825 -25.640 -12.976  0.00  0.00    -0.227 OA
ENDROOT
BRANCH   1   3
ATOM      3  O   UNL     1      36.214 -27.172 -15.014  0.00  0.00    -0.302 OA
ATOM      4  H   UNL     1      36.753 -27.829 -15.482  0.00  0.00    +0.222 HD
ENDBRANCH   1   3
BRANCH   1   5
ATOM      5  O   UNL     1      37.144 -24.830 -15.452  0.00  0.00    -0.273 OA
BRANCH   5   6
ATOM      6  C   UNL     1      36.864 -23.506 -15.018  0.00  0.00    +0.154 C 
BRANCH   6   7
ATOM      7  C   UNL     1      35.848 -22.882 -15.965  0.00  0.00    +0.033 C 
BRANCH   7   8
ATOM      8  C   UNL     1      34.435 -23.395 -15.694  0.00  0.00    +0.003 C 
BRANCH   8   9
ATOM      9  C   UNL     1      33.563 -23.313 -16.947  0.00  0.00    +0.000 C 
ATOM     10  C   UNL     1      32.088 -23.214 -16.594  0.00  0.00    +0.000 C 
ENDBRANCH   8   9
ENDBRANCH   7   8
ENDBRANCH   6   7
ENDBRANCH   5   6
ENDBRANCH   1   5
BRANCH   1  11
ATOM     11  O   UNL     1      38.655 -26.679 -14.534  0.00  0.00    -0.186 OA
BRANCH  11  12
ATOM     12  P   UNL     1      40.113 -25.982 -14.593  0.00  0.00    +0.481 P 
ATOM     13  O   UNL     1      41.235 -26.832 -14.076  0.00  0.00    -0.227 OA
BRANCH  12  14
ATOM     14  O   UNL     1      39.884 -24.588 -13.808  0.00  0.00    -0.302 OA
ATOM     15  H   UNL     1      39.245 -24.721 -13.090  0.00  0.00    +0.222 HD
ENDBRANCH  12  14
BRANCH  12  16
ATOM     16  O   UNL     1      40.245 -25.527 -16.139  0.00  0.00    -0.302 OA
ATOM     17  H   UNL     1      39.687 -26.095 -16.692  0.00  0.00    +0.222 HD
ENDBRANCH  12  16
ENDBRANCH  11  12
ENDBRANCH   1  11
TORSDOF 10
ENDMDL
MODEL 5
REMARK VINA RESULT:      -6.3      2.792      3.502
REMARK  Name = 448673
REMARK  10 active torsions:
REMARK  status: ('A' for Active; 'I' for Inactive)
REMARK    1  A    between atoms: P_1  and  O_3
REMARK    2  A    between atoms: P_1  and  O_5
REMARK    3  A    between atoms: P_1  and  O_11
REMARK    4  A    between atoms: O_5  and  C_6
REMARK    5  A    between atoms: C_6  and  C_7
REMARK    6  A    between atoms: C_7  and  C_8
REMARK    7  A    between atoms: C_8  and  C_9
REMARK    8  A    between atoms: O_11  and  P_12
REMARK    9  A    between atoms: P_12  and  O_14
REMARK   10  A    between atoms: P_12  and  O_16
REMARK                            x       y       z     vdW  Elec       q    Type
REMARK                         _______ _______ _______ _____ _____    ______ ____
ROOT
ATOM      1  P   UNL     1      37.522 -25.092 -12.595  0.00  0.00    +0.484 P 
ATOM      2  O   UNL     1      37.471 -24.490 -11.221  0.00  0.00    -0.227 OA
ENDROOT
BRANCH   1   3
ATOM      3  O   UNL     1      36.893 -26.580 -12.694  0.00  0.00    -0.302 OA
ATOM      4  H   UNL     1      36.166 -26.666 -12.058  0.00  0.00    +0.222 HD
ENDBRANCH   1   3
BRANCH   1   5
ATOM      5  O   UNL     1      36.743 -24.247 -13.731  0.00  0.00    -0.273 OA
BRANCH   5   6
ATOM      6  C   UNL     1      35.566 -24.776 -14.324  0.00  0.00    +0.154 C 
BRANCH   6   7
ATOM      7  C   UNL     1      34.353 -24.116 -13.684  0.00  0.00    +0.033 C 
BRANCH   7   8
ATOM      8  C   UNL     1      33.428 -23.499 -14.731  0.00  0.00    +0.003 C 
BRANCH   8   9
ATOM      9  C   UNL     1      31.962 -23.596 -14.305  0.00  0.00    +0.000 C 
ATOM     10  C   UNL     1      31.630 -24.976 -13.760  0.00  0.00    +0.000 C 
ENDBRANCH   8   9
ENDBRANCH   7   8
ENDBRANCH   6   7
ENDBRANCH   5   6
ENDBRANCH   1   5
BRANCH   1  11
ATOM     11  O   UNL     1      39.017 -25.282 -13.179  0.00  0.00    -0.186 OA
BRANCH  11  12
ATOM     12  P   UNL     1      39.543 -25.510 -14.691  0.00  0.00    +0.481 P 
ATOM     13  O   UNL     1      40.958 -25.998 -14.795  0.00  0.00    -0.227 OA
BRANCH  12  14
ATOM     14  O   UNL     1      39.251 -24.086 -15.398  0.00  0.00    -0.302 OA
ATOM     15  H   UNL     1      39.485 -24.136 -16.338  0.00  0.00    +0.222 HD
ENDBRANCH  12  14
BRANCH  12  16
ATOM     16  O   UNL     1      38.425 -26.486 -15.332  0.00  0.00    -0.302 OA
ATOM     17  H   UNL     1      38.371 -26.330 -16.288  0.00  0.00    +0.222 HD
ENDBRANCH  12  16
ENDBRANCH  11  12
ENDBRANCH   1  11
TORSDOF 10
ENDMDL
MODEL 6
REMARK VINA RESULT:      -6.2      2.075      3.495
REMARK  Name = 448673
REMARK  10 active torsions:
REMARK  status: ('A' for Active; 'I' for Inactive)
REMARK    1  A    between atoms: P_1  and  O_3
REMARK    2  A    between atoms: P_1  and  O_5
REMARK    3  A    between atoms: P_1  and  O_11
REMARK    4  A    between atoms: O_5  and  C_6
REMARK    5  A    between atoms: C_6  and  C_7
REMARK    6  A    between atoms: C_7  and  C_8
REMARK    7  A    between atoms: C_8  and  C_9
REMARK    8  A    between atoms: O_11  and  P_12
REMARK    9  A    between atoms: P_12  and  O_14
REMARK   10  A    between atoms: P_12  and  O_16
REMARK                            x       y       z     vdW  Elec       q    Type
REMARK                         _______ _______ _______ _____ _____    ______ ____
ROOT
ATOM      1  P   UNL     1      37.553 -24.160 -14.816  0.00  0.00    +0.484 P 
ATOM      2  O   UNL     1      36.689 -25.231 -15.416  0.00  0.00    -0.227 OA
ENDROOT
BRANCH   1   3
ATOM      3  O   UNL     1      39.061 -24.114 -15.402  0.00  0.00    -0.302 OA
ATOM      4  H   UNL     1      39.635 -23.643 -14.778  0.00  0.00    +0.222 HD
ENDBRANCH   1   3
BRANCH   1   5
ATOM      5  O   UNL     1      36.996 -22.655 -15.015  0.00  0.00    -0.273 OA
BRANCH   5   6
ATOM      6  C   UNL     1      37.324 -21.928 -16.191  0.00  0.00    +0.154 C 
BRANCH   6   7
ATOM      7  C   UNL     1      36.228 -22.146 -17.225  0.00  0.00    +0.033 C 
BRANCH   7   8
ATOM      8  C   UNL     1      36.609 -21.556 -18.581  0.00  0.00    +0.003 C 
BRANCH   8   9
ATOM      9  C   UNL     1      35.388 -21.417 -19.490  0.00  0.00    +0.000 C 
ATOM     10  C   UNL     1      35.588 -20.324 -20.529  0.00  0.00    +0.000 C 
ENDBRANCH   8   9
ENDBRANCH   7   8
ENDBRANCH   6   7
ENDBRANCH   5   6
ENDBRANCH   1   5
BRANCH   1  11
ATOM     11  O   UNL     1      37.779 -24.305 -13.223  0.00  0.00    -0.186 OA
BRANCH  11  12
ATOM     12  P   UNL     1      37.103 -23.522 -11.980  0.00  0.00    +0.481 P 
ATOM     13  O   UNL     1      37.157 -24.255 -10.673  0.00  0.00    -0.227 OA
BRANCH  12  14
ATOM     14  O   UNL     1      35.618 -23.187 -12.523  0.00  0.00    -0.302 OA
ATOM     15  H   UNL     1      35.156 -24.013 -12.733  0.00  0.00    +0.222 HD
ENDBRANCH  12  14
BRANCH  12  16
ATOM     16  O   UNL     1      37.844 -22.085 -11.999  0.00  0.00    -0.302 OA
ATOM     17  H   UNL     1      37.732 -21.652 -11.139  0.00  0.00    +0.222 HD
ENDBRANCH  12  16
ENDBRANCH  11  12
ENDBRANCH   1  11
TORSDOF 10
ENDMDL
MODEL 7
REMARK VINA RESULT:      -6.1      3.365      4.751
REMARK  Name = 448673
REMARK  10 active torsions:
REMARK  status: ('A' for Active; 'I' for Inactive)
REMARK    1  A    between atoms: P_1  and  O_3
REMARK    2  A    between atoms: P_1  and  O_5
REMARK    3  A    between atoms: P_1  and  O_11
REMARK    4  A    between atoms: O_5  and  C_6
REMARK    5  A    between atoms: C_6  and  C_7
REMARK    6  A    between atoms: C_7  and  C_8
REMARK    7  A    between atoms: C_8  and  C_9
REMARK    8  A    between atoms: O_11  and  P_12
REMARK    9  A    between atoms: P_12  and  O_14
REMARK   10  A    between atoms: P_12  and  O_16
REMARK                            x       y       z     vdW  Elec       q    Type
REMARK                         _______ _______ _______ _____ _____    ______ ____
ROOT
ATOM      1  P   UNL     1      36.078 -25.378 -14.965  0.00  0.00    +0.484 P 
ATOM      2  O   UNL     1      36.166 -26.689 -15.691  0.00  0.00    -0.227 OA
ENDROOT
BRANCH   1   3
ATOM      3  O   UNL     1      36.863 -24.161 -15.689  0.00  0.00    -0.302 OA
ATOM      4  H   UNL     1      36.442 -23.320 -15.452  0.00  0.00    +0.222 HD
ENDBRANCH   1   3
BRANCH   1   5
ATOM      5  O   UNL     1      34.575 -24.823 -14.757  0.00  0.00    -0.273 OA
BRANCH   5   6
ATOM      6  C   UNL     1      34.092 -23.764 -15.573  0.00  0.00    +0.154 C 
BRANCH   6   7
ATOM      7  C   UNL     1      32.788 -23.244 -14.984  0.00  0.00    +0.033 C 
BRANCH   7   8
ATOM      8  C   UNL     1      31.666 -23.235 -16.021  0.00  0.00    +0.003 C 
BRANCH   8   9
ATOM      9  C   UNL     1      30.573 -24.244 -15.667  0.00  0.00    +0.000 C 
ATOM     10  C   UNL     1      30.731 -24.761 -14.246  0.00  0.00    +0.000 C 
ENDBRANCH   8   9
ENDBRANCH   7   8
ENDBRANCH   6   7
ENDBRANCH   5   6
ENDBRANCH   1   5
BRANCH   1  11
ATOM     11  O   UNL     1      36.715 -25.399 -13.480  0.00  0.00    -0.186 OA
BRANCH  11  12
ATOM     12  P   UNL     1      36.395 -24.498 -12.176  0.00  0.00    +0.481 P 
ATOM     13  O   UNL     1      37.465 -24.513 -11.126  0.00  0.00    -0.227 OA
BRANCH  12  14
ATOM     14  O   UNL     1      34.952 -25.048 -11.698  0.00  0.00    -0.302 OA
ATOM     15  H   UNL     1      34.530 -24.392 -11.121  0.00  0.00    +0.222 HD
ENDBRANCH  12  14
BRANCH  12  16
ATOM     16  O   UNL     1      36.056 -23.046 -12.800  0.00  0.00    -0.302 OA
ATOM     17  H   UNL     1      35.132 -23.028 -13.094  0.00  0.00    +0.222 HD
ENDBRANCH  12  16
ENDBRANCH  11  12
ENDBRANCH   1  11
TORSDOF 10
ENDMDL
MODEL 8
REMARK VINA RESULT:      -6.0     10.774     12.440
REMARK  Name = 448673
REMARK  10 active torsions:
REMARK  status: ('A' for Active; 'I' for Inactive)
REMARK    1  A    between atoms: P_1  and  O_3
REMARK    2  A    between atoms: P_1  and  O_5
REMARK    3  A    between atoms: P_1  and  O_11
REMARK    4  A    between atoms: O_5  and  C_6
REMARK    5  A    between atoms: C_6  and  C_7
REMARK    6  A    between atoms: C_7  and  C_8
REMARK    7  A    between atoms: C_8  and  C_9
REMARK    8  A    between atoms: O_11  and  P_12
REMARK    9  A    between atoms: P_12  and  O_14
REMARK   10  A    between atoms: P_12  and  O_16
REMARK                            x       y       z     vdW  Elec       q    Type
REMARK                         _______ _______ _______ _____ _____    ______ ____
ROOT
ATOM      1  P   UNL     1      34.480 -15.911 -21.919  0.00  0.00    +0.484 P 
ATOM      2  O   UNL     1      34.957 -15.086 -20.759  0.00  0.00    -0.227 OA
ENDROOT
BRANCH   1   3
ATOM      3  O   UNL     1      35.566 -16.083 -23.106  0.00  0.00    -0.302 OA
ATOM      4  H   UNL     1      35.951 -16.973 -23.064  0.00  0.00    +0.222 HD
ENDBRANCH   1   3
BRANCH   1   5
ATOM      5  O   UNL     1      34.052 -17.423 -21.539  0.00  0.00    -0.273 OA
BRANCH   5   6
ATOM      6  C   UNL     1      34.630 -18.518 -22.235  0.00  0.00    +0.154 C 
BRANCH   6   7
ATOM      7  C   UNL     1      34.660 -19.728 -21.312  0.00  0.00    +0.033 C 
BRANCH   7   8
ATOM      8  C   UNL     1      33.296 -19.986 -20.676  0.00  0.00    +0.003 C 
BRANCH   8   9
ATOM      9  C   UNL     1      33.351 -21.160 -19.698  0.00  0.00    +0.000 C 
ATOM     10  C   UNL     1      34.783 -21.577 -19.408  0.00  0.00    +0.000 C 
ENDBRANCH   8   9
ENDBRANCH   7   8
ENDBRANCH   6   7
ENDBRANCH   5   6
ENDBRANCH   1   5
BRANCH   1  11
ATOM     11  O   UNL     1      33.192 -15.301 -22.681  0.00  0.00    -0.186 OA
BRANCH  11  12
ATOM     12  P   UNL     1      33.026 -13.970 -23.583  0.00  0.00    +0.481 P 
ATOM     13  O   UNL     1      32.775 -14.227 -25.039  0.00  0.00    -0.227 OA
BRANCH  12  14
ATOM     14  O   UNL     1      34.368 -13.133 -23.251  0.00  0.00    -0.302 OA
ATOM     15  H   UNL     1      34.682 -13.363 -22.363  0.00  0.00    +0.222 HD
ENDBRANCH  12  14
BRANCH  12  16
ATOM     16  O   UNL     1      31.867 -13.142 -22.817  0.00  0.00    -0.302 OA
ATOM     17  H   UNL     1      31.516 -12.457 -23.406  0.00  0.00    +0.222 HD
ENDBRANCH  12  16
ENDBRANCH  11  12
ENDBRANCH   1  11
TORSDOF 10
ENDMDL
MODEL 9
REMARK VINA RESULT:      -5.9      1.297      1.987
REMARK  Name = 448673
REMARK  10 active torsions:
REMARK  status: ('A' for Active; 'I' for Inactive)
REMARK    1  A    between atoms: P_1  and  O_3
REMARK    2  A    between atoms: P_1  and  O_5
REMARK    3  A    between atoms: P_1  and  O_11
REMARK    4  A    between atoms: O_5  and  C_6
REMARK    5  A    between atoms: C_6  and  C_7
REMARK    6  A    between atoms: C_7  and  C_8
REMARK    7  A    between atoms: C_8  and  C_9
REMARK    8  A    between atoms: O_11  and  P_12
REMARK    9  A    between atoms: P_12  and  O_14
REMARK   10  A    between atoms: P_12  and  O_16
REMARK                            x       y       z     vdW  Elec       q    Type
REMARK                         _______ _______ _______ _____ _____    ______ ____
ROOT
ATOM      1  P   UNL     1      36.461 -24.765 -14.955  0.00  0.00    +0.484 P 
ATOM      2  O   UNL     1      35.702 -24.704 -13.662  0.00  0.00    -0.227 OA
ENDROOT
BRANCH   1   3
ATOM      3  O   UNL     1      36.279 -26.151 -15.771  0.00  0.00    -0.302 OA
ATOM      4  H   UNL     1      36.818 -26.123 -16.577  0.00  0.00    +0.222 HD
ENDBRANCH   1   3
BRANCH   1   5
ATOM      5  O   UNL     1      36.069 -23.614 -16.021  0.00  0.00    -0.273 OA
BRANCH   5   6
ATOM      6  C   UNL     1      36.833 -22.418 -16.085  0.00  0.00    +0.154 C 
BRANCH   6   7
ATOM      7  C   UNL     1      36.699 -21.822 -17.479  0.00  0.00    +0.033 C 
BRANCH   7   8
ATOM      8  C   UNL     1      35.343 -22.147 -18.103  0.00  0.00    +0.003 C 
BRANCH   8   9
ATOM      9  C   UNL     1      35.305 -21.763 -19.582  0.00  0.00    +0.000 C 
ATOM     10  C   UNL     1      36.436 -20.813 -19.941  0.00  0.00    +0.000 C 
ENDBRANCH   8   9
ENDBRANCH   7   8
ENDBRANCH   6   7
ENDBRANCH   5   6
ENDBRANCH   1   5
BRANCH   1  11
ATOM     11  O   UNL     1      38.064 -24.639 -14.790  0.00  0.00    -0.186 OA
BRANCH  11  12
ATOM     12  P   UNL     1      39.117 -25.538 -13.956  0.00  0.00    +0.481 P 
ATOM     13  O   UNL     1      40.494 -24.952 -13.850  0.00  0.00    -0.227 OA
BRANCH  12  14
ATOM     14  O   UNL     1      39.034 -26.975 -14.690  0.00  0.00    -0.302 OA
ATOM     15  H   UNL     1      39.368 -26.896 -15.597  0.00  0.00    +0.222 HD
ENDBRANCH  12  14
BRANCH  12  16
ATOM     16  O   UNL     1      38.361 -25.788 -12.549  0.00  0.00    -0.302 OA
ATOM     17  H   UNL     1      38.841 -25.334 -11.839  0.00  0.00    +0.222 HD
ENDBRANCH  12  16
ENDBRANCH  11  12
ENDBRANCH   1  11
TORSDOF 10
ENDMDL
