MODEL 1
REMARK VINA RESULT:      -6.4      0.000      0.000
REMARK  Name = 5192
REMARK  11 active torsions:
REMARK  status: ('A' for Active; 'I' for Inactive)
REMARK    1  A    between atoms: C_1  and  C_2
REMARK    2  A    between atoms: C_1  and  C_10
REMARK    3  A    between atoms: C_2  and  C_3
REMARK    4  A    between atoms: C_3  and  C_4
REMARK    5  A    between atoms: C_4  and  C_5
REMARK    6  A    between atoms: C_5  and  C_7
REMARK    7  A    between atoms: C_7  and  O_8
REMARK    8  A    between atoms: C_10  and  C_11
REMARK    9  A    between atoms: C_11  and  C_12
REMARK   10  A    between atoms: C_12  and  C_14
REMARK   11  A    between atoms: C_14  and  O_15
REMARK                            x       y       z     vdW  Elec       q    Type
REMARK                         _______ _______ _______ _____ _____    ______ ____
ROOT
ATOM      1  C   UNL     1      35.660 -18.534 -22.660  0.00  0.00    +0.000 C 
ENDROOT
BRANCH   1   2
ATOM      2  C   UNL     1      35.146 -19.177 -21.367  0.00  0.00    +0.000 C 
BRANCH   2   3
ATOM      3  C   UNL     1      33.646 -19.019 -21.098  0.00  0.00    +0.001 C 
BRANCH   3   4
ATOM      4  C   UNL     1      33.026 -20.221 -20.379  0.00  0.00    +0.012 C 
BRANCH   4   5
ATOM      5  C   UNL     1      34.082 -21.157 -19.791  0.00  0.00    +0.109 C 
BRANCH   5   7
ATOM      6  O   UNL     1      32.545 -22.360 -18.331  0.00  0.00    -0.250 OA
ATOM      7  C   UNL     1      33.488 -22.371 -19.110  0.00  0.00    +0.314 C 
BRANCH   7   8
ATOM      8  O   UNL     1      34.122 -23.511 -19.488  0.00  0.00    -0.480 OA
ATOM      9  H   UNL     1      33.654 -24.323 -19.512  0.00  0.00    +0.295 HD
ENDBRANCH   7   8
ENDBRANCH   5   7
ENDBRANCH   4   5
ENDBRANCH   3   4
ENDBRANCH   2   3
ENDBRANCH   1   2
BRANCH   1  10
ATOM     10  C   UNL     1      34.927 -19.022 -23.911  0.00  0.00    +0.001 C 
BRANCH  10  11
ATOM     11  C   UNL     1      34.550 -17.891 -24.875  0.00  0.00    +0.012 C 
BRANCH  11  12
ATOM     12  C   UNL     1      34.577 -16.492 -24.264  0.00  0.00    +0.109 C 
BRANCH  12  14
ATOM     13  O   UNL     1      33.228 -14.506 -24.563  0.00  0.00    -0.250 OA
ATOM     14  C   UNL     1      33.750 -15.503 -25.040  0.00  0.00    +0.314 C 
BRANCH  14  15
ATOM     15  O   UNL     1      33.652 -15.860 -26.344  0.00  0.00    -0.480 OA
ATOM     16  H   UNL     1      33.132 -16.600 -26.590  0.00  0.00    +0.295 HD
ENDBRANCH  14  15
ENDBRANCH  12  14
ENDBRANCH  11  12
ENDBRANCH  10  11
ENDBRANCH   1  10
TORSDOF 11
ENDMDL
MODEL 2
REMARK VINA RESULT:      -6.3      3.810      5.383
REMARK  Name = 5192
REMARK  11 active torsions:
REMARK  status: ('A' for Active; 'I' for Inactive)
REMARK    1  A    between atoms: C_1  and  C_2
REMARK    2  A    between atoms: C_1  and  C_10
REMARK    3  A    between atoms: C_2  and  C_3
REMARK    4  A    between atoms: C_3  and  C_4
REMARK    5  A    between atoms: C_4  and  C_5
REMARK    6  A    between atoms: C_5  and  C_7
REMARK    7  A    between atoms: C_7  and  O_8
REMARK    8  A    between atoms: C_10  and  C_11
REMARK    9  A    between atoms: C_11  and  C_12
REMARK   10  A    between atoms: C_12  and  C_14
REMARK   11  A    between atoms: C_14  and  O_15
REMARK                            x       y       z     vdW  Elec       q    Type
REMARK                         _______ _______ _______ _____ _____    ______ ____
ROOT
ATOM      1  C   UNL     1      33.913 -17.277 -21.179  0.00  0.00    +0.000 C 
ENDROOT
BRANCH   1   2
ATOM      2  C   UNL     1      34.710 -18.586 -21.183  0.00  0.00    +0.000 C 
BRANCH   2   3
ATOM      3  C   UNL     1      34.679 -19.378 -22.494  0.00  0.00    +0.001 C 
BRANCH   3   4
ATOM      4  C   UNL     1      35.470 -18.713 -23.626  0.00  0.00    +0.012 C 
BRANCH   4   5
ATOM      5  C   UNL     1      34.567 -18.223 -24.759  0.00  0.00    +0.109 C 
BRANCH   5   7
ATOM      6  O   UNL     1      34.190 -16.140 -25.965  0.00  0.00    -0.250 OA
ATOM      7  C   UNL     1      34.720 -16.745 -25.044  0.00  0.00    +0.314 C 
BRANCH   7   8
ATOM      8  O   UNL     1      35.516 -16.142 -24.123  0.00  0.00    -0.480 OA
ATOM      9  H   UNL     1      35.133 -15.704 -23.388  0.00  0.00    +0.295 HD
ENDBRANCH   7   8
ENDBRANCH   5   7
ENDBRANCH   4   5
ENDBRANCH   3   4
ENDBRANCH   2   3
ENDBRANCH   1   2
BRANCH   1  10
ATOM     10  C   UNL     1      34.732 -16.072 -20.709  0.00  0.00    +0.001 C 
BRANCH  10  11
ATOM     11  C   UNL     1      33.919 -14.775 -20.638  0.00  0.00    +0.012 C 
BRANCH  11  12
ATOM     12  C   UNL     1      32.685 -14.741 -21.537  0.00  0.00    +0.109 C 
BRANCH  12  14
ATOM     13  O   UNL     1      33.795 -13.764 -23.453  0.00  0.00    -0.250 OA
ATOM     14  C   UNL     1      32.836 -13.792 -22.696  0.00  0.00    +0.314 C 
BRANCH  14  15
ATOM     15  O   UNL     1      31.769 -12.962 -22.793  0.00  0.00    -0.480 OA
ATOM     16  H   UNL     1      31.324 -12.864 -23.612  0.00  0.00    +0.295 HD
ENDBRANCH  14  15
ENDBRANCH  12  14
ENDBRANCH  11  12
ENDBRANCH  10  11
ENDBRANCH   1  10
TORSDOF 11
ENDMDL
MODEL 3
REMARK VINA RESULT:      -6.3      0.947      7.366
REMARK  Name = 5192
REMARK  11 active torsions:
REMARK  status: ('A' for Active; 'I' for Inactive)
REMARK    1  A    between atoms: C_1  and  C_2
REMARK    2  A    between atoms: C_1  and  C_10
REMARK    3  A    between atoms: C_2  and  C_3
REMARK    4  A    between atoms: C_3  and  C_4
REMARK    5  A    between atoms: C_4  and  C_5
REMARK    6  A    between atoms: C_5  and  C_7
REMARK    7  A    between atoms: C_7  and  O_8
REMARK    8  A    between atoms: C_10  and  C_11
REMARK    9  A    between atoms: C_11  and  C_12
REMARK   10  A    between atoms: C_12  and  C_14
REMARK   11  A    between atoms: C_14  and  O_15
REMARK                            x       y       z     vdW  Elec       q    Type
REMARK                         _______ _______ _______ _____ _____    ______ ____
ROOT
ATOM      1  C   UNL     1      34.371 -18.106 -21.513  0.00  0.00    +0.000 C 
ENDROOT
BRANCH   1   2
ATOM      2  C   UNL     1      35.470 -18.323 -22.560  0.00  0.00    +0.000 C 
BRANCH   2   3
ATOM      3  C   UNL     1      35.055 -19.121 -23.801  0.00  0.00    +0.001 C 
BRANCH   3   4
ATOM      4  C   UNL     1      34.183 -18.321 -24.775  0.00  0.00    +0.012 C 
BRANCH   4   5
ATOM      5  C   UNL     1      34.836 -17.005 -25.197  0.00  0.00    +0.109 C 
BRANCH   5   7
ATOM      6  O   UNL     1      33.359 -15.633 -26.565  0.00  0.00    -0.250 OA
ATOM      7  C   UNL     1      33.835 -15.905 -25.472  0.00  0.00    +0.314 C 
BRANCH   7   8
ATOM      8  O   UNL     1      33.494 -15.248 -24.333  0.00  0.00    -0.480 OA
ATOM      9  H   UNL     1      34.161 -14.871 -23.792  0.00  0.00    +0.295 HD
ENDBRANCH   7   8
ENDBRANCH   5   7
ENDBRANCH   4   5
ENDBRANCH   3   4
ENDBRANCH   2   3
ENDBRANCH   1   2
BRANCH   1  10
ATOM     10  C   UNL     1      33.589 -19.379 -21.184  0.00  0.00    +0.001 C 
BRANCH  10  11
ATOM     11  C   UNL     1      34.393 -20.392 -20.361  0.00  0.00    +0.012 C 
BRANCH  11  12
ATOM     12  C   UNL     1      33.549 -21.382 -19.562  0.00  0.00    +0.109 C 
BRANCH  12  14
ATOM     13  O   UNL     1      35.325 -22.355 -18.237  0.00  0.00    -0.250 OA
ATOM     14  C   UNL     1      34.366 -22.505 -18.979  0.00  0.00    +0.314 C 
BRANCH  14  15
ATOM     15  O   UNL     1      33.904 -23.712 -19.387  0.00  0.00    -0.480 OA
ATOM     16  H   UNL     1      33.549 -24.314 -18.763  0.00  0.00    +0.295 HD
ENDBRANCH  14  15
ENDBRANCH  12  14
ENDBRANCH  11  12
ENDBRANCH  10  11
ENDBRANCH   1  10
TORSDOF 11
ENDMDL
MODEL 4
REMARK VINA RESULT:      -6.2      1.442      2.104
REMARK  Name = 5192
REMARK  11 active torsions:
REMARK  status: ('A' for Active; 'I' for Inactive)
REMARK    1  A    between atoms: C_1  and  C_2
REMARK    2  A    between atoms: C_1  and  C_10
REMARK    3  A    between atoms: C_2  and  C_3
REMARK    4  A    between atoms: C_3  and  C_4
REMARK    5  A    between atoms: C_4  and  C_5
REMARK    6  A    between atoms: C_5  and  C_7
REMARK    7  A    between atoms: C_7  and  O_8
REMARK    8  A    between atoms: C_10  and  C_11
REMARK    9  A    between atoms: C_11  and  C_12
REMARK   10  A    between atoms: C_12  and  C_14
REMARK   11  A    between atoms: C_14  and  O_15
REMARK                            x       y       z     vdW  Elec       q    Type
REMARK                         _______ _______ _______ _____ _____    ______ ____
ROOT
ATOM      1  C   UNL     1      34.539 -16.739 -20.992  0.00  0.00    +0.000 C 
ENDROOT
BRANCH   1   2
ATOM      2  C   UNL     1      35.281 -17.843 -21.754  0.00  0.00    +0.000 C 
BRANCH   2   3
ATOM      3  C   UNL     1      34.457 -19.093 -22.079  0.00  0.00    +0.001 C 
BRANCH   3   4
ATOM      4  C   UNL     1      33.905 -19.799 -20.836  0.00  0.00    +0.012 C 
BRANCH   4   5
ATOM      5  C   UNL     1      34.930 -20.731 -20.190  0.00  0.00    +0.109 C 
BRANCH   5   7
ATOM      6  O   UNL     1      34.881 -22.559 -18.580  0.00  0.00    -0.250 OA
ATOM      7  C   UNL     1      34.298 -21.841 -19.380  0.00  0.00    +0.314 C 
BRANCH   7   8
ATOM      8  O   UNL     1      32.967 -21.941 -19.630  0.00  0.00    -0.480 OA
ATOM      9  H   UNL     1      32.571 -21.400 -20.286  0.00  0.00    +0.295 HD
ENDBRANCH   7   8
ENDBRANCH   5   7
ENDBRANCH   4   5
ENDBRANCH   3   4
ENDBRANCH   2   3
ENDBRANCH   1   2
BRANCH   1  10
ATOM     10  C   UNL     1      34.444 -15.426 -21.771  0.00  0.00    +0.001 C 
BRANCH  10  11
ATOM     11  C   UNL     1      34.844 -15.561 -23.244  0.00  0.00    +0.012 C 
BRANCH  11  12
ATOM     12  C   UNL     1      33.721 -15.288 -24.241  0.00  0.00    +0.109 C 
BRANCH  12  14
ATOM     13  O   UNL     1      34.180 -17.272 -25.549  0.00  0.00    -0.250 OA
ATOM     14  C   UNL     1      33.857 -16.094 -25.505  0.00  0.00    +0.314 C 
BRANCH  14  15
ATOM     15  O   UNL     1      33.578 -15.343 -26.599  0.00  0.00    -0.480 OA
ATOM     16  H   UNL     1      32.772 -14.869 -26.650  0.00  0.00    +0.295 HD
ENDBRANCH  14  15
ENDBRANCH  12  14
ENDBRANCH  11  12
ENDBRANCH  10  11
ENDBRANCH   1  10
TORSDOF 11
ENDMDL
MODEL 5
REMARK VINA RESULT:      -6.1      1.186      1.665
REMARK  Name = 5192
REMARK  11 active torsions:
REMARK  status: ('A' for Active; 'I' for Inactive)
REMARK    1  A    between atoms: C_1  and  C_2
REMARK    2  A    between atoms: C_1  and  C_10
REMARK    3  A    between atoms: C_2  and  C_3
REMARK    4  A    between atoms: C_3  and  C_4
REMARK    5  A    between atoms: C_4  and  C_5
REMARK    6  A    between atoms: C_5  and  C_7
REMARK    7  A    between atoms: C_7  and  O_8
REMARK    8  A    between atoms: C_10  and  C_11
REMARK    9  A    between atoms: C_11  and  C_12
REMARK   10  A    between atoms: C_12  and  C_14
REMARK   11  A    between atoms: C_14  and  O_15
REMARK                            x       y       z     vdW  Elec       q    Type
REMARK                         _______ _______ _______ _____ _____    ______ ____
ROOT
ATOM      1  C   UNL     1      35.967 -18.628 -21.091  0.00  0.00    +0.000 C 
ENDROOT
BRANCH   1   2
ATOM      2  C   UNL     1      35.139 -19.918 -21.065  0.00  0.00    +0.000 C 
BRANCH   2   3
ATOM      3  C   UNL     1      33.651 -19.744 -20.740  0.00  0.00    +0.001 C 
BRANCH   3   4
ATOM      4  C   UNL     1      33.027 -20.974 -20.071  0.00  0.00    +0.012 C 
BRANCH   4   5
ATOM      5  C   UNL     1      34.064 -21.837 -19.353  0.00  0.00    +0.109 C 
BRANCH   5   7
ATOM      6  O   UNL     1      34.071 -23.542 -17.612  0.00  0.00    -0.250 OA
ATOM      7  C   UNL     1      33.469 -22.699 -18.262  0.00  0.00    +0.314 C 
BRANCH   7   8
ATOM      8  O   UNL     1      32.157 -22.407 -18.061  0.00  0.00    -0.480 OA
ATOM      9  H   UNL     1      31.901 -21.537 -17.823  0.00  0.00    +0.295 HD
ENDBRANCH   7   8
ENDBRANCH   5   7
ENDBRANCH   4   5
ENDBRANCH   3   4
ENDBRANCH   2   3
ENDBRANCH   1   2
BRANCH   1  10
ATOM     10  C   UNL     1      35.251 -17.464 -21.780  0.00  0.00    +0.001 C 
BRANCH  10  11
ATOM     11  C   UNL     1      35.330 -17.521 -23.310  0.00  0.00    +0.012 C 
BRANCH  11  12
ATOM     12  C   UNL     1      34.821 -16.271 -24.025  0.00  0.00    +0.109 C 
BRANCH  12  14
ATOM     13  O   UNL     1      33.853 -15.738 -26.177  0.00  0.00    -0.250 OA
ATOM     14  C   UNL     1      34.198 -16.578 -25.360  0.00  0.00    +0.314 C 
BRANCH  14  15
ATOM     15  O   UNL     1      34.062 -17.915 -25.543  0.00  0.00    -0.480 OA
ATOM     16  H   UNL     1      34.547 -18.348 -26.218  0.00  0.00    +0.295 HD
ENDBRANCH  14  15
ENDBRANCH  12  14
ENDBRANCH  11  12
ENDBRANCH  10  11
ENDBRANCH   1  10
TORSDOF 11
ENDMDL
MODEL 6
REMARK VINA RESULT:      -6.1      1.726      7.933
REMARK  Name = 5192
REMARK  11 active torsions:
REMARK  status: ('A' for Active; 'I' for Inactive)
REMARK    1  A    between atoms: C_1  and  C_2
REMARK    2  A    between atoms: C_1  and  C_10
REMARK    3  A    between atoms: C_2  and  C_3
REMARK    4  A    between atoms: C_3  and  C_4
REMARK    5  A    between atoms: C_4  and  C_5
REMARK    6  A    between atoms: C_5  and  C_7
REMARK    7  A    between atoms: C_7  and  O_8
REMARK    8  A    between atoms: C_10  and  C_11
REMARK    9  A    between atoms: C_11  and  C_12
REMARK   10  A    between atoms: C_12  and  C_14
REMARK   11  A    between atoms: C_14  and  O_15
REMARK                            x       y       z     vdW  Elec       q    Type
REMARK                         _______ _______ _______ _____ _____    ______ ____
ROOT
ATOM      1  C   UNL     1      33.243 -20.493 -20.255  0.00  0.00    +0.000 C 
ENDROOT
BRANCH   1   2
ATOM      2  C   UNL     1      33.761 -19.440 -21.240  0.00  0.00    +0.000 C 
BRANCH   2   3
ATOM      3  C   UNL     1      35.259 -19.128 -21.153  0.00  0.00    +0.001 C 
BRANCH   3   4
ATOM      4  C   UNL     1      35.807 -18.421 -22.396  0.00  0.00    +0.012 C 
BRANCH   4   5
ATOM      5  C   UNL     1      34.814 -18.431 -23.559  0.00  0.00    +0.109 C 
BRANCH   5   7
ATOM      6  O   UNL     1      34.655 -17.238 -25.678  0.00  0.00    -0.250 OA
ATOM      7  C   UNL     1      34.991 -17.262 -24.502  0.00  0.00    +0.314 C 
BRANCH   7   8
ATOM      8  O   UNL     1      35.560 -16.200 -23.874  0.00  0.00    -0.480 OA
ATOM      9  H   UNL     1      36.312 -15.783 -24.247  0.00  0.00    +0.295 HD
ENDBRANCH   7   8
ENDBRANCH   5   7
ENDBRANCH   4   5
ENDBRANCH   3   4
ENDBRANCH   2   3
ENDBRANCH   1   2
BRANCH   1  10
ATOM     10  C   UNL     1      34.360 -21.313 -19.605  0.00  0.00    +0.001 C 
BRANCH  10  11
ATOM     11  C   UNL     1      33.920 -22.724 -19.197  0.00  0.00    +0.012 C 
BRANCH  11  12
ATOM     12  C   UNL     1      33.211 -22.809 -17.847  0.00  0.00    +0.109 C 
BRANCH  12  14
ATOM     13  O   UNL     1      35.354 -23.137 -16.770  0.00  0.00    -0.250 OA
ATOM     14  C   UNL     1      34.135 -23.218 -16.730  0.00  0.00    +0.314 C 
BRANCH  14  15
ATOM     15  O   UNL     1      33.441 -23.695 -15.668  0.00  0.00    -0.480 OA
ATOM     16  H   UNL     1      33.129 -23.107 -15.008  0.00  0.00    +0.295 HD
ENDBRANCH  14  15
ENDBRANCH  12  14
ENDBRANCH  11  12
ENDBRANCH  10  11
ENDBRANCH   1  10
TORSDOF 11
ENDMDL
MODEL 7
REMARK VINA RESULT:      -6.1      1.423      7.178
REMARK  Name = 5192
REMARK  11 active torsions:
REMARK  status: ('A' for Active; 'I' for Inactive)
REMARK    1  A    between atoms: C_1  and  C_2
REMARK    2  A    between atoms: C_1  and  C_10
REMARK    3  A    between atoms: C_2  and  C_3
REMARK    4  A    between atoms: C_3  and  C_4
REMARK    5  A    between atoms: C_4  and  C_5
REMARK    6  A    between atoms: C_5  and  C_7
REMARK    7  A    between atoms: C_7  and  O_8
REMARK    8  A    between atoms: C_10  and  C_11
REMARK    9  A    between atoms: C_11  and  C_12
REMARK   10  A    between atoms: C_12  and  C_14
REMARK   11  A    between atoms: C_14  and  O_15
REMARK                            x       y       z     vdW  Elec       q    Type
REMARK                         _______ _______ _______ _____ _____    ______ ____
ROOT
ATOM      1  C   UNL     1      35.666 -18.162 -21.779  0.00  0.00    +0.000 C 
ENDROOT
BRANCH   1   2
ATOM      2  C   UNL     1      34.372 -17.480 -21.319  0.00  0.00    +0.000 C 
BRANCH   2   3
ATOM      3  C   UNL     1      34.207 -16.017 -21.742  0.00  0.00    +0.001 C 
BRANCH   3   4
ATOM      4  C   UNL     1      34.845 -15.700 -23.100  0.00  0.00    +0.012 C 
BRANCH   4   5
ATOM      5  C   UNL     1      33.802 -15.406 -24.179  0.00  0.00    +0.109 C 
BRANCH   5   7
ATOM      6  O   UNL     1      34.559 -17.301 -25.512  0.00  0.00    -0.250 OA
ATOM      7  C   UNL     1      34.016 -16.207 -25.445  0.00  0.00    +0.314 C 
BRANCH   7   8
ATOM      8  O   UNL     1      33.501 -15.568 -26.528  0.00  0.00    -0.480 OA
ATOM      9  H   UNL     1      33.969 -15.570 -27.339  0.00  0.00    +0.295 HD
ENDBRANCH   7   8
ENDBRANCH   5   7
ENDBRANCH   4   5
ENDBRANCH   3   4
ENDBRANCH   2   3
ENDBRANCH   1   2
BRANCH   1  10
ATOM     10  C   UNL     1      36.020 -19.403 -20.956  0.00  0.00    +0.001 C 
BRANCH  10  11
ATOM     11  C   UNL     1      34.793 -20.188 -20.480  0.00  0.00    +0.012 C 
BRANCH  11  12
ATOM     12  C   UNL     1      35.110 -21.465 -19.705  0.00  0.00    +0.109 C 
BRANCH  12  14
ATOM     13  O   UNL     1      33.830 -23.425 -19.091  0.00  0.00    -0.250 OA
ATOM     14  C   UNL     1      33.873 -22.221 -19.300  0.00  0.00    +0.314 C 
BRANCH  14  15
ATOM     15  O   UNL     1      32.803 -21.395 -19.198  0.00  0.00    -0.480 OA
ATOM     16  H   UNL     1      32.677 -20.711 -19.827  0.00  0.00    +0.295 HD
ENDBRANCH  14  15
ENDBRANCH  12  14
ENDBRANCH  11  12
ENDBRANCH  10  11
ENDBRANCH   1  10
TORSDOF 11
ENDMDL
MODEL 8
REMARK VINA RESULT:      -6.1      8.389     10.506
REMARK  Name = 5192
REMARK  11 active torsions:
REMARK  status: ('A' for Active; 'I' for Inactive)
REMARK    1  A    between atoms: C_1  and  C_2
REMARK    2  A    between atoms: C_1  and  C_10
REMARK    3  A    between atoms: C_2  and  C_3
REMARK    4  A    between atoms: C_3  and  C_4
REMARK    5  A    between atoms: C_4  and  C_5
REMARK    6  A    between atoms: C_5  and  C_7
REMARK    7  A    between atoms: C_7  and  O_8
REMARK    8  A    between atoms: C_10  and  C_11
REMARK    9  A    between atoms: C_11  and  C_12
REMARK   10  A    between atoms: C_12  and  C_14
REMARK   11  A    between atoms: C_14  and  O_15
REMARK                            x       y       z     vdW  Elec       q    Type
REMARK                         _______ _______ _______ _____ _____    ______ ____
ROOT
ATOM      1  C   UNL     1      33.880 -23.369 -16.338  0.00  0.00    +0.000 C 
ENDROOT
BRANCH   1   2
ATOM      2  C   UNL     1      32.348 -23.333 -16.358  0.00  0.00    +0.000 C 
BRANCH   2   3
ATOM      3  C   UNL     1      31.671 -23.133 -14.997  0.00  0.00    +0.001 C 
BRANCH   3   4
ATOM      4  C   UNL     1      30.198 -22.723 -15.104  0.00  0.00    +0.012 C 
BRANCH   4   5
ATOM      5  C   UNL     1      29.370 -23.729 -15.903  0.00  0.00    +0.109 C 
BRANCH   5   7
ATOM      6  O   UNL     1      28.074 -21.879 -16.816  0.00  0.00    -0.250 OA
ATOM      7  C   UNL     1      28.321 -23.076 -16.776  0.00  0.00    +0.314 C 
BRANCH   7   8
ATOM      8  O   UNL     1      27.680 -23.991 -17.549  0.00  0.00    -0.480 OA
ATOM      9  H   UNL     1      27.090 -24.605 -17.157  0.00  0.00    +0.295 HD
ENDBRANCH   7   8
ENDBRANCH   5   7
ENDBRANCH   4   5
ENDBRANCH   3   4
ENDBRANCH   2   3
ENDBRANCH   1   2
BRANCH   1  10
ATOM     10  C   UNL     1      34.452 -24.099 -15.121  0.00  0.00    +0.001 C 
BRANCH  10  11
ATOM     11  C   UNL     1      35.943 -24.429 -15.255  0.00  0.00    +0.012 C 
BRANCH  11  12
ATOM     12  C   UNL     1      36.424 -25.585 -14.383  0.00  0.00    +0.109 C 
BRANCH  12  14
ATOM     13  O   UNL     1      36.568 -27.175 -16.202  0.00  0.00    -0.250 OA
ATOM     14  C   UNL     1      37.047 -26.698 -15.184  0.00  0.00    +0.314 C 
BRANCH  14  15
ATOM     15  O   UNL     1      38.212 -27.111 -14.628  0.00  0.00    -0.480 OA
ATOM     16  H   UNL     1      38.770 -27.703 -15.094  0.00  0.00    +0.295 HD
ENDBRANCH  14  15
ENDBRANCH  12  14
ENDBRANCH  11  12
ENDBRANCH  10  11
ENDBRANCH   1  10
TORSDOF 11
ENDMDL
MODEL 9
REMARK VINA RESULT:      -6.0      2.499      7.408
REMARK  Name = 5192
REMARK  11 active torsions:
REMARK  status: ('A' for Active; 'I' for Inactive)
REMARK    1  A    between atoms: C_1  and  C_2
REMARK    2  A    between atoms: C_1  and  C_10
REMARK    3  A    between atoms: C_2  and  C_3
REMARK    4  A    between atoms: C_3  and  C_4
REMARK    5  A    between atoms: C_4  and  C_5
REMARK    6  A    between atoms: C_5  and  C_7
REMARK    7  A    between atoms: C_7  and  O_8
REMARK    8  A    between atoms: C_10  and  C_11
REMARK    9  A    between atoms: C_11  and  C_12
REMARK   10  A    between atoms: C_12  and  C_14
REMARK   11  A    between atoms: C_14  and  O_15
REMARK                            x       y       z     vdW  Elec       q    Type
REMARK                         _______ _______ _______ _____ _____    ______ ____
ROOT
ATOM      1  C   UNL     1      33.126 -20.494 -19.860  0.00  0.00    +0.000 C 
ENDROOT
BRANCH   1   2
ATOM      2  C   UNL     1      33.556 -19.633 -21.053  0.00  0.00    +0.000 C 
BRANCH   2   3
ATOM      3  C   UNL     1      35.029 -19.750 -21.459  0.00  0.00    +0.001 C 
BRANCH   3   4
ATOM      4  C   UNL     1      35.655 -18.414 -21.873  0.00  0.00    +0.012 C 
BRANCH   4   5
ATOM      5  C   UNL     1      34.859 -17.214 -21.359  0.00  0.00    +0.109 C 
BRANCH   5   7
ATOM      6  O   UNL     1      34.167 -15.038 -22.211  0.00  0.00    -0.250 OA
ATOM      7  C   UNL     1      34.835 -16.056 -22.332  0.00  0.00    +0.314 C 
BRANCH   7   8
ATOM      8  O   UNL     1      35.680 -16.267 -23.375  0.00  0.00    -0.480 OA
ATOM      9  H   UNL     1      36.600 -16.354 -23.222  0.00  0.00    +0.295 HD
ENDBRANCH   7   8
ENDBRANCH   5   7
ENDBRANCH   4   5
ENDBRANCH   3   4
ENDBRANCH   2   3
ENDBRANCH   1   2
BRANCH   1  10
ATOM     10  C   UNL     1      33.739 -21.897 -19.875  0.00  0.00    +0.001 C 
BRANCH  10  11
ATOM     11  C   UNL     1      34.563 -22.214 -18.622  0.00  0.00    +0.012 C 
BRANCH  11  12
ATOM     12  C   UNL     1      36.019 -21.757 -18.680  0.00  0.00    +0.109 C 
BRANCH  12  14
ATOM     13  O   UNL     1      36.708 -22.817 -16.617  0.00  0.00    -0.250 OA
ATOM     14  C   UNL     1      36.707 -21.834 -17.343  0.00  0.00    +0.314 C 
BRANCH  14  15
ATOM     15  O   UNL     1      37.325 -20.666 -17.040  0.00  0.00    -0.480 OA
ATOM     16  H   UNL     1      37.457 -20.019 -17.705  0.00  0.00    +0.295 HD
ENDBRANCH  14  15
ENDBRANCH  12  14
ENDBRANCH  11  12
ENDBRANCH  10  11
ENDBRANCH   1  10
TORSDOF 11
ENDMDL
