MODEL 1
REMARK VINA RESULT:      -5.7      0.000      0.000
REMARK  Name = 439230
REMARK  7 active torsions:
REMARK  status: ('A' for Active; 'I' for Inactive)
REMARK    1  A    between atoms: C_1  and  O_3
REMARK    2  A    between atoms: C_1  and  C_5
REMARK    3  A    between atoms: C_1  and  C_9
REMARK    4  A    between atoms: C_5  and  C_6
REMARK    5  A    between atoms: C_6  and  O_7
REMARK    6  A    between atoms: C_9  and  C_11
REMARK    7  A    between atoms: C_11  and  O_12
REMARK                            x       y       z     vdW  Elec       q    Type
REMARK                         _______ _______ _______ _____ _____    ______ ____
ROOT
ATOM      1  C   UNL     1      37.979 -25.914 -14.000  0.00  0.00    +0.101 C 
ATOM      2  C   UNL     1      37.272 -26.125 -12.655  0.00  0.00    +0.030 C 
ENDROOT
BRANCH   1   3
ATOM      3  O   UNL     1      38.103 -27.207 -14.608  0.00  0.00    -0.386 OA
ATOM      4  H   UNL     1      37.797 -27.162 -15.528  0.00  0.00    +0.210 HD
ENDBRANCH   1   3
BRANCH   1   5
ATOM      5  C   UNL     1      37.140 -25.031 -14.945  0.00  0.00    +0.059 C 
BRANCH   5   6
ATOM      6  C   UNL     1      37.498 -23.550 -14.953  0.00  0.00    +0.140 C 
BRANCH   6   7
ATOM      7  O   UNL     1      38.427 -23.315 -16.006  0.00  0.00    -0.382 OA
ATOM      8  H   UNL     1      37.954 -23.283 -16.852  0.00  0.00    +0.210 HD
ENDBRANCH   6   7
ENDBRANCH   5   6
ENDBRANCH   1   5
BRANCH   1   9
ATOM      9  C   UNL     1      39.400 -25.382 -13.746  0.00  0.00    +0.136 C 
BRANCH   9  11
ATOM     10  O   UNL     1      41.310 -26.818 -14.125  0.00  0.00    -0.250 OA
ATOM     11  C   UNL     1      40.464 -26.059 -14.580  0.00  0.00    +0.316 C 
BRANCH  11  12
ATOM     12  O   UNL     1      40.386 -25.735 -15.895  0.00  0.00    -0.480 OA
ATOM     13  H   UNL     1      41.159 -25.485 -16.362  0.00  0.00    +0.295 HD
ENDBRANCH  11  12
ENDBRANCH   9  11
ENDBRANCH   1   9
TORSDOF 7
ENDMDL
MODEL 2
REMARK VINA RESULT:      -5.5      1.954      2.403
REMARK  Name = 439230
REMARK  7 active torsions:
REMARK  status: ('A' for Active; 'I' for Inactive)
REMARK    1  A    between atoms: C_1  and  O_3
REMARK    2  A    between atoms: C_1  and  C_5
REMARK    3  A    between atoms: C_1  and  C_9
REMARK    4  A    between atoms: C_5  and  C_6
REMARK    5  A    between atoms: C_6  and  O_7
REMARK    6  A    between atoms: C_9  and  C_11
REMARK    7  A    between atoms: C_11  and  O_12
REMARK                            x       y       z     vdW  Elec       q    Type
REMARK                         _______ _______ _______ _____ _____    ______ ____
ROOT
ATOM      1  C   UNL     1      37.807 -24.976 -14.012  0.00  0.00    +0.101 C 
ATOM      2  C   UNL     1      36.634 -25.451 -14.879  0.00  0.00    +0.030 C 
ENDROOT
BRANCH   1   3
ATOM      3  O   UNL     1      38.253 -23.731 -14.566  0.00  0.00    -0.386 OA
ATOM      4  H   UNL     1      37.579 -23.050 -14.415  0.00  0.00    +0.210 HD
ENDBRANCH   1   3
BRANCH   1   5
ATOM      5  C   UNL     1      37.361 -24.708 -12.560  0.00  0.00    +0.059 C 
BRANCH   5   6
ATOM      6  C   UNL     1      37.442 -23.257 -12.103  0.00  0.00    +0.140 C 
BRANCH   6   7
ATOM      7  O   UNL     1      38.776 -22.986 -11.689  0.00  0.00    -0.382 OA
ATOM      8  H   UNL     1      38.917 -22.027 -11.660  0.00  0.00    +0.210 HD
ENDBRANCH   6   7
ENDBRANCH   5   6
ENDBRANCH   1   5
BRANCH   1   9
ATOM      9  C   UNL     1      38.966 -25.981 -14.133  0.00  0.00    +0.136 C 
BRANCH   9  11
ATOM     10  O   UNL     1      40.995 -24.671 -14.267  0.00  0.00    -0.250 OA
ATOM     11  C   UNL     1      40.193 -25.418 -14.813  0.00  0.00    +0.316 C 
BRANCH  11  12
ATOM     12  O   UNL     1      40.315 -25.828 -16.101  0.00  0.00    -0.480 OA
ATOM     13  H   UNL     1      41.151 -25.797 -16.524  0.00  0.00    +0.295 HD
ENDBRANCH  11  12
ENDBRANCH   9  11
ENDBRANCH   1   9
TORSDOF 7
ENDMDL
MODEL 3
REMARK VINA RESULT:      -5.5      1.527      3.351
REMARK  Name = 439230
REMARK  7 active torsions:
REMARK  status: ('A' for Active; 'I' for Inactive)
REMARK    1  A    between atoms: C_1  and  O_3
REMARK    2  A    between atoms: C_1  and  C_5
REMARK    3  A    between atoms: C_1  and  C_9
REMARK    4  A    between atoms: C_5  and  C_6
REMARK    5  A    between atoms: C_6  and  O_7
REMARK    6  A    between atoms: C_9  and  C_11
REMARK    7  A    between atoms: C_11  and  O_12
REMARK                            x       y       z     vdW  Elec       q    Type
REMARK                         _______ _______ _______ _____ _____    ______ ____
ROOT
ATOM      1  C   UNL     1      38.353 -25.120 -13.567  0.00  0.00    +0.101 C 
ATOM      2  C   UNL     1      38.165 -24.403 -12.224  0.00  0.00    +0.030 C 
ENDROOT
BRANCH   1   3
ATOM      3  O   UNL     1      38.197 -24.127 -14.589  0.00  0.00    -0.386 OA
ATOM      4  H   UNL     1      37.265 -24.081 -14.856  0.00  0.00    +0.210 HD
ENDBRANCH   1   3
BRANCH   1   5
ATOM      5  C   UNL     1      39.773 -25.707 -13.697  0.00  0.00    +0.059 C 
BRANCH   5   6
ATOM      6  C   UNL     1      40.593 -25.193 -14.874  0.00  0.00    +0.140 C 
BRANCH   6   7
ATOM      7  O   UNL     1      40.190 -25.894 -16.046  0.00  0.00    -0.382 OA
ATOM      8  H   UNL     1      40.662 -25.536 -16.814  0.00  0.00    +0.210 HD
ENDBRANCH   6   7
ENDBRANCH   5   6
ENDBRANCH   1   5
BRANCH   1   9
ATOM      9  C   UNL     1      37.230 -26.155 -13.749  0.00  0.00    +0.136 C 
BRANCH   9  11
ATOM     10  O   UNL     1      35.620 -25.550 -15.451  0.00  0.00    -0.250 OA
ATOM     11  C   UNL     1      36.630 -26.167 -15.137  0.00  0.00    +0.316 C 
BRANCH  11  12
ATOM     12  O   UNL     1      37.330 -26.939 -16.006  0.00  0.00    -0.480 OA
ATOM     13  H   UNL     1      36.927 -27.232 -16.800  0.00  0.00    +0.295 HD
ENDBRANCH  11  12
ENDBRANCH   9  11
ENDBRANCH   1   9
TORSDOF 7
ENDMDL
MODEL 4
REMARK VINA RESULT:      -5.2      2.122      3.435
REMARK  Name = 439230
REMARK  7 active torsions:
REMARK  status: ('A' for Active; 'I' for Inactive)
REMARK    1  A    between atoms: C_1  and  O_3
REMARK    2  A    between atoms: C_1  and  C_5
REMARK    3  A    between atoms: C_1  and  C_9
REMARK    4  A    between atoms: C_5  and  C_6
REMARK    5  A    between atoms: C_6  and  O_7
REMARK    6  A    between atoms: C_9  and  C_11
REMARK    7  A    between atoms: C_11  and  O_12
REMARK                            x       y       z     vdW  Elec       q    Type
REMARK                         _______ _______ _______ _____ _____    ______ ____
ROOT
ATOM      1  C   UNL     1      37.274 -23.980 -14.347  0.00  0.00    +0.101 C 
ATOM      2  C   UNL     1      37.484 -23.095 -15.582  0.00  0.00    +0.030 C 
ENDROOT
BRANCH   1   3
ATOM      3  O   UNL     1      38.573 -24.228 -13.792  0.00  0.00    -0.386 OA
ATOM      4  H   UNL     1      38.563 -25.069 -13.309  0.00  0.00    +0.210 HD
ENDBRANCH   1   3
BRANCH   1   5
ATOM      5  C   UNL     1      36.437 -23.256 -13.273  0.00  0.00    +0.059 C 
BRANCH   5   6
ATOM      6  C   UNL     1      37.057 -23.199 -11.882  0.00  0.00    +0.140 C 
BRANCH   6   7
ATOM      7  O   UNL     1      37.962 -22.101 -11.836  0.00  0.00    -0.382 OA
ATOM      8  H   UNL     1      37.532 -21.313 -12.202  0.00  0.00    +0.210 HD
ENDBRANCH   6   7
ENDBRANCH   5   6
ENDBRANCH   1   5
BRANCH   1   9
ATOM      9  C   UNL     1      36.691 -25.334 -14.786  0.00  0.00    +0.136 C 
BRANCH   9  11
ATOM     10  O   UNL     1      38.231 -27.195 -14.669  0.00  0.00    -0.250 OA
ATOM     11  C   UNL     1      37.356 -26.526 -14.136  0.00  0.00    +0.316 C 
BRANCH  11  12
ATOM     12  O   UNL     1      36.878 -26.780 -12.892  0.00  0.00    -0.480 OA
ATOM     13  H   UNL     1      36.381 -26.126 -12.440  0.00  0.00    +0.295 HD
ENDBRANCH  11  12
ENDBRANCH   9  11
ENDBRANCH   1   9
TORSDOF 7
ENDMDL
MODEL 5
REMARK VINA RESULT:      -5.2      2.726      4.287
REMARK  Name = 439230
REMARK  7 active torsions:
REMARK  status: ('A' for Active; 'I' for Inactive)
REMARK    1  A    between atoms: C_1  and  O_3
REMARK    2  A    between atoms: C_1  and  C_5
REMARK    3  A    between atoms: C_1  and  C_9
REMARK    4  A    between atoms: C_5  and  C_6
REMARK    5  A    between atoms: C_6  and  O_7
REMARK    6  A    between atoms: C_9  and  C_11
REMARK    7  A    between atoms: C_11  and  O_12
REMARK                            x       y       z     vdW  Elec       q    Type
REMARK                         _______ _______ _______ _____ _____    ______ ____
ROOT
ATOM      1  C   UNL     1      37.329 -25.365 -13.339  0.00  0.00    +0.101 C 
ATOM      2  C   UNL     1      36.949 -25.264 -14.822  0.00  0.00    +0.030 C 
ENDROOT
BRANCH   1   3
ATOM      3  O   UNL     1      36.806 -26.613 -12.863  0.00  0.00    -0.386 OA
ATOM      4  H   UNL     1      37.488 -27.299 -12.938  0.00  0.00    +0.210 HD
ENDBRANCH   1   3
BRANCH   1   5
ATOM      5  C   UNL     1      38.859 -25.397 -13.151  0.00  0.00    +0.059 C 
BRANCH   5   6
ATOM      6  C   UNL     1      39.676 -25.556 -14.427  0.00  0.00    +0.140 C 
BRANCH   6   7
ATOM      7  O   UNL     1      40.901 -24.848 -14.271  0.00  0.00    -0.382 OA
ATOM      8  H   UNL     1      41.482 -25.038 -15.024  0.00  0.00    +0.210 HD
ENDBRANCH   6   7
ENDBRANCH   5   6
ENDBRANCH   1   5
BRANCH   1   9
ATOM      9  C   UNL     1      36.627 -24.240 -12.560  0.00  0.00    +0.136 C 
BRANCH   9  11
ATOM     10  O   UNL     1      35.452 -25.004 -10.588  0.00  0.00    -0.250 OA
ATOM     11  C   UNL     1      35.421 -24.701 -11.773  0.00  0.00    +0.316 C 
BRANCH  11  12
ATOM     12  O   UNL     1      34.291 -24.748 -12.524  0.00  0.00    -0.480 OA
ATOM     13  H   UNL     1      33.490 -24.400 -12.184  0.00  0.00    +0.295 HD
ENDBRANCH  11  12
ENDBRANCH   9  11
ENDBRANCH   1   9
TORSDOF 7
ENDMDL
MODEL 6
REMARK VINA RESULT:      -5.1      2.560      3.461
REMARK  Name = 439230
REMARK  7 active torsions:
REMARK  status: ('A' for Active; 'I' for Inactive)
REMARK    1  A    between atoms: C_1  and  O_3
REMARK    2  A    between atoms: C_1  and  C_5
REMARK    3  A    between atoms: C_1  and  C_9
REMARK    4  A    between atoms: C_5  and  C_6
REMARK    5  A    between atoms: C_6  and  O_7
REMARK    6  A    between atoms: C_9  and  C_11
REMARK    7  A    between atoms: C_11  and  O_12
REMARK                            x       y       z     vdW  Elec       q    Type
REMARK                         _______ _______ _______ _____ _____    ______ ____
ROOT
ATOM      1  C   UNL     1      36.957 -24.784 -13.109  0.00  0.00    +0.101 C 
ATOM      2  C   UNL     1      38.201 -24.428 -12.285  0.00  0.00    +0.030 C 
ENDROOT
BRANCH   1   3
ATOM      3  O   UNL     1      36.484 -26.046 -12.619  0.00  0.00    -0.386 OA
ATOM      4  H   UNL     1      36.882 -26.226 -11.753  0.00  0.00    +0.210 HD
ENDBRANCH   1   3
BRANCH   1   5
ATOM      5  C   UNL     1      35.831 -23.750 -12.904  0.00  0.00    +0.059 C 
BRANCH   5   6
ATOM      6  C   UNL     1      34.549 -24.009 -13.684  0.00  0.00    +0.140 C 
BRANCH   6   7
ATOM      7  O   UNL     1      33.683 -24.805 -12.881  0.00  0.00    -0.382 OA
ATOM      8  H   UNL     1      34.019 -25.714 -12.848  0.00  0.00    +0.210 HD
ENDBRANCH   6   7
ENDBRANCH   5   6
ENDBRANCH   1   5
BRANCH   1   9
ATOM      9  C   UNL     1      37.363 -24.980 -14.580  0.00  0.00    +0.136 C 
BRANCH   9  11
ATOM     10  O   UNL     1      36.239 -26.795 -15.718  0.00  0.00    -0.250 OA
ATOM     11  C   UNL     1      37.202 -26.400 -15.074  0.00  0.00    +0.316 C 
BRANCH  11  12
ATOM     12  O   UNL     1      38.243 -27.198 -14.727  0.00  0.00    -0.480 OA
ATOM     13  H   UNL     1      38.447 -27.332 -13.821  0.00  0.00    +0.295 HD
ENDBRANCH  11  12
ENDBRANCH   9  11
ENDBRANCH   1   9
TORSDOF 7
ENDMDL
MODEL 7
REMARK VINA RESULT:      -5.0     10.350     11.761
REMARK  Name = 439230
REMARK  7 active torsions:
REMARK  status: ('A' for Active; 'I' for Inactive)
REMARK    1  A    between atoms: C_1  and  O_3
REMARK    2  A    between atoms: C_1  and  C_5
REMARK    3  A    between atoms: C_1  and  C_9
REMARK    4  A    between atoms: C_5  and  C_6
REMARK    5  A    between atoms: C_6  and  O_7
REMARK    6  A    between atoms: C_9  and  C_11
REMARK    7  A    between atoms: C_11  and  O_12
REMARK                            x       y       z     vdW  Elec       q    Type
REMARK                         _______ _______ _______ _____ _____    ______ ____
ROOT
ATOM      1  C   UNL     1      42.105 -14.081 -17.369  0.00  0.00    +0.101 C 
ATOM      2  C   UNL     1      42.299 -12.600 -17.720  0.00  0.00    +0.030 C 
ENDROOT
BRANCH   1   3
ATOM      3  O   UNL     1      40.814 -14.457 -17.867  0.00  0.00    -0.386 OA
ATOM      4  H   UNL     1      40.523 -15.272 -17.428  0.00  0.00    +0.210 HD
ENDBRANCH   1   3
BRANCH   1   5
ATOM      5  C   UNL     1      43.154 -14.968 -18.070  0.00  0.00    +0.059 C 
BRANCH   5   6
ATOM      6  C   UNL     1      42.601 -16.169 -18.827  0.00  0.00    +0.140 C 
BRANCH   6   7
ATOM      7  O   UNL     1      42.270 -17.184 -17.885  0.00  0.00    -0.382 OA
ATOM      8  H   UNL     1      41.308 -17.219 -17.774  0.00  0.00    +0.210 HD
ENDBRANCH   6   7
ENDBRANCH   5   6
ENDBRANCH   1   5
BRANCH   1   9
ATOM      9  C   UNL     1      42.077 -14.238 -15.839  0.00  0.00    +0.136 C 
BRANCH   9  11
ATOM     10  O   UNL     1      40.675 -16.208 -15.748  0.00  0.00    -0.250 OA
ATOM     11  C   UNL     1      40.930 -15.085 -15.333  0.00  0.00    +0.316 C 
BRANCH  11  12
ATOM     12  O   UNL     1      40.208 -14.467 -14.366  0.00  0.00    -0.480 OA
ATOM     13  H   UNL     1      39.857 -14.966 -13.654  0.00  0.00    +0.295 HD
ENDBRANCH  11  12
ENDBRANCH   9  11
ENDBRANCH   1   9
TORSDOF 7
ENDMDL
MODEL 8
REMARK VINA RESULT:      -5.0      2.919      3.871
REMARK  Name = 439230
REMARK  7 active torsions:
REMARK  status: ('A' for Active; 'I' for Inactive)
REMARK    1  A    between atoms: C_1  and  O_3
REMARK    2  A    between atoms: C_1  and  C_5
REMARK    3  A    between atoms: C_1  and  C_9
REMARK    4  A    between atoms: C_5  and  C_6
REMARK    5  A    between atoms: C_6  and  O_7
REMARK    6  A    between atoms: C_9  and  C_11
REMARK    7  A    between atoms: C_11  and  O_12
REMARK                            x       y       z     vdW  Elec       q    Type
REMARK                         _______ _______ _______ _____ _____    ______ ____
ROOT
ATOM      1  C   UNL     1      35.855 -24.610 -13.553  0.00  0.00    +0.101 C 
ATOM      2  C   UNL     1      34.362 -24.316 -13.357  0.00  0.00    +0.030 C 
ENDROOT
BRANCH   1   3
ATOM      3  O   UNL     1      36.220 -25.573 -12.556  0.00  0.00    -0.386 OA
ATOM      4  H   UNL     1      35.667 -25.449 -11.768  0.00  0.00    +0.210 HD
ENDBRANCH   1   3
BRANCH   1   5
ATOM      5  C   UNL     1      36.127 -25.240 -14.934  0.00  0.00    +0.059 C 
BRANCH   5   6
ATOM      6  C   UNL     1      36.899 -26.553 -14.918  0.00  0.00    +0.140 C 
BRANCH   6   7
ATOM      7  O   UNL     1      36.780 -27.164 -16.199  0.00  0.00    -0.382 OA
ATOM      8  H   UNL     1      36.028 -26.775 -16.672  0.00  0.00    +0.210 HD
ENDBRANCH   6   7
ENDBRANCH   5   6
ENDBRANCH   1   5
BRANCH   1   9
ATOM      9  C   UNL     1      36.663 -23.329 -13.280  0.00  0.00    +0.136 C 
BRANCH   9  11
ATOM     10  O   UNL     1      37.268 -22.993 -10.962  0.00  0.00    -0.250 OA
ATOM     11  C   UNL     1      37.564 -23.422 -12.070  0.00  0.00    +0.316 C 
BRANCH  11  12
ATOM     12  O   UNL     1      38.745 -24.033 -12.340  0.00  0.00    -0.480 OA
ATOM     13  H   UNL     1      39.278 -23.729 -13.049  0.00  0.00    +0.295 HD
ENDBRANCH  11  12
ENDBRANCH   9  11
ENDBRANCH   1   9
TORSDOF 7
ENDMDL
MODEL 9
REMARK VINA RESULT:      -5.0     11.131     13.189
REMARK  Name = 439230
REMARK  7 active torsions:
REMARK  status: ('A' for Active; 'I' for Inactive)
REMARK    1  A    between atoms: C_1  and  O_3
REMARK    2  A    between atoms: C_1  and  C_5
REMARK    3  A    between atoms: C_1  and  C_9
REMARK    4  A    between atoms: C_5  and  C_6
REMARK    5  A    between atoms: C_6  and  O_7
REMARK    6  A    between atoms: C_9  and  C_11
REMARK    7  A    between atoms: C_11  and  O_12
REMARK                            x       y       z     vdW  Elec       q    Type
REMARK                         _______ _______ _______ _____ _____    ______ ____
ROOT
ATOM      1  C   UNL     1      34.587 -16.755 -23.581  0.00  0.00    +0.101 C 
ATOM      2  C   UNL     1      34.675 -18.016 -24.451  0.00  0.00    +0.030 C 
ENDROOT
BRANCH   1   3
ATOM      3  O   UNL     1      35.932 -16.309 -23.364  0.00  0.00    -0.386 OA
ATOM      4  H   UNL     1      36.515 -17.078 -23.263  0.00  0.00    +0.210 HD
ENDBRANCH   1   3
BRANCH   1   5
ATOM      5  C   UNL     1      33.829 -15.624 -24.306  0.00  0.00    +0.059 C 
BRANCH   5   6
ATOM      6  C   UNL     1      33.347 -14.482 -23.419  0.00  0.00    +0.140 C 
BRANCH   6   7
ATOM      7  O   UNL     1      34.484 -13.795 -22.907  0.00  0.00    -0.382 OA
ATOM      8  H   UNL     1      35.271 -14.350 -23.015  0.00  0.00    +0.210 HD
ENDBRANCH   6   7
ENDBRANCH   5   6
ENDBRANCH   1   5
BRANCH   1   9
ATOM      9  C   UNL     1      33.993 -17.126 -22.211  0.00  0.00    +0.136 C 
BRANCH   9  11
ATOM     10  O   UNL     1      35.685 -17.888 -20.658  0.00  0.00    -0.250 OA
ATOM     11  C   UNL     1      34.968 -16.982 -21.064  0.00  0.00    +0.316 C 
BRANCH  11  12
ATOM     12  O   UNL     1      34.965 -15.737 -20.526  0.00  0.00    -0.480 OA
ATOM     13  H   UNL     1      35.750 -15.224 -20.530  0.00  0.00    +0.295 HD
ENDBRANCH  11  12
ENDBRANCH   9  11
ENDBRANCH   1   9
TORSDOF 7
ENDMDL
