MODEL 1
REMARK VINA RESULT:      -7.0      0.000      0.000
REMARK  Name = 5311101
REMARK  5 active torsions:
REMARK  status: ('A' for Active; 'I' for Inactive)
REMARK    1  A    between atoms: C_8  and  O_24
REMARK    2  A    between atoms: C_8  and  C_29
REMARK    3  A    between atoms: C_12  and  O_26
REMARK    4  A    between atoms: C_29  and  S_30
REMARK    5  A    between atoms: S_30  and  C_32
REMARK                            x       y       z     vdW  Elec       q    Type
REMARK                         _______ _______ _______ _____ _____    ______ ____
ROOT
ATOM      1  F   UNL     1      35.476 -25.449 -14.793  0.00  0.00    -0.237 F 
ATOM      2  F   UNL     1      38.141 -22.663 -16.784  0.00  0.00    -0.233 F 
ATOM      3  O   UNL     1      40.223 -26.500 -14.548  0.00  0.00    -0.287 OA
ATOM      4  C   UNL     1      32.502 -23.646 -14.329  0.00  0.00    +0.032 C 
ATOM      5  C   UNL     1      33.553 -23.489 -15.448  0.00  0.00    +0.006 C 
ATOM      6  C   UNL     1      34.962 -23.156 -14.932  0.00  0.00    +0.036 C 
ATOM      7  C   UNL     1      35.450 -24.314 -13.995  0.00  0.00    +0.165 C 
ATOM      8  C   UNL     1      31.245 -23.927 -15.207  0.00  0.00    +0.148 C 
ATOM      9  C   UNL     1      32.886 -22.539 -16.442  0.00  0.00    +0.003 C 
ATOM     10  C   UNL     1      32.962 -24.804 -13.417  0.00  0.00    +0.035 C 
ATOM     11  C   UNL     1      31.379 -22.905 -16.377  0.00  0.00    +0.032 C 
ATOM     12  C   UNL     1      34.406 -24.650 -12.887  0.00  0.00    +0.141 C 
ATOM     13  C   UNL     1      36.941 -24.109 -13.514  0.00  0.00    +0.066 C 
ATOM     14  C   UNL     1      35.928 -22.955 -16.112  0.00  0.00    +0.042 C 
ATOM     15  C   UNL     1      32.301 -22.353 -13.493  0.00  0.00    +0.003 C 
ATOM     16  C   UNL     1      37.368 -22.755 -15.661  0.00  0.00    +0.180 C 
ATOM     17  C   UNL     1      37.803 -23.888 -14.765  0.00  0.00    -0.003 C 
ATOM     18  C   UNL     1      30.850 -23.396 -17.722  0.00  0.00    +0.003 C 
ATOM     19  C   UNL     1      37.135 -22.894 -12.577  0.00  0.00    +0.011 C 
ATOM     20  C   UNL     1      37.408 -25.327 -12.730  0.00  0.00    -0.017 C 
ATOM     21  C   UNL     1      38.851 -24.661 -15.090  0.00  0.00    +0.036 C 
ATOM     22  C   UNL     1      38.450 -26.100 -13.052  0.00  0.00    +0.038 C 
ATOM     23  C   UNL     1      39.255 -25.808 -14.252  0.00  0.00    +0.195 C 
ENDROOT
BRANCH   8  24
ATOM     24  O   UNL     1      31.176 -25.275 -15.657  0.00  0.00    -0.379 OA
ATOM     25  H   UNL     1      30.522 -25.344 -16.369  0.00  0.00    +0.211 HD
ENDBRANCH   8  24
BRANCH  12  26
ATOM     26  O   UNL     1      34.427 -23.680 -11.850  0.00  0.00    -0.382 OA
ATOM     27  H   UNL     1      33.803 -22.968 -12.060  0.00  0.00    +0.210 HD
ENDBRANCH  12  26
BRANCH   8  29
ATOM     28  O   UNL     1      29.553 -24.578 -13.638  0.00  0.00    -0.282 OA
ATOM     29  C   UNL     1      29.944 -23.777 -14.478  0.00  0.00    +0.225 C 
BRANCH  29  30
ATOM     30  S   UNL     1      29.033 -22.341 -14.943  0.00  0.00    -0.037 S 
BRANCH  30  32
ATOM     31  F   UNL     1      28.133 -24.336 -16.341  0.00  0.00    -0.221 F 
ATOM     32  C   UNL     1      27.750 -23.085 -15.971  0.00  0.00    +0.258 C 
ENDBRANCH  30  32
ENDBRANCH  29  30
ENDBRANCH   8  29
TORSDOF 5
ENDMDL
MODEL 2
REMARK VINA RESULT:      -6.7     10.939     13.226
REMARK  Name = 5311101
REMARK  5 active torsions:
REMARK  status: ('A' for Active; 'I' for Inactive)
REMARK    1  A    between atoms: C_8  and  O_24
REMARK    2  A    between atoms: C_8  and  C_29
REMARK    3  A    between atoms: C_12  and  O_26
REMARK    4  A    between atoms: C_29  and  S_30
REMARK    5  A    between atoms: S_30  and  C_32
REMARK                            x       y       z     vdW  Elec       q    Type
REMARK                         _______ _______ _______ _____ _____    ______ ____
ROOT
ATOM      1  F   UNL     1      35.411 -14.287 -23.931  0.00  0.00    -0.237 F 
ATOM      2  F   UNL     1      32.793 -14.120 -27.387  0.00  0.00    -0.233 F 
ATOM      3  O   UNL     1      35.030  -9.948 -26.104  0.00  0.00    -0.287 OA
ATOM      4  C   UNL     1      34.412 -17.176 -22.208  0.00  0.00    +0.032 C 
ATOM      5  C   UNL     1      34.343 -16.892 -23.724  0.00  0.00    +0.006 C 
ATOM      6  C   UNL     1      33.502 -15.657 -24.085  0.00  0.00    +0.036 C 
ATOM      7  C   UNL     1      34.132 -14.394 -23.403  0.00  0.00    +0.165 C 
ATOM      8  C   UNL     1      35.279 -18.471 -22.237  0.00  0.00    +0.148 C 
ATOM      9  C   UNL     1      33.968 -18.244 -24.329  0.00  0.00    +0.003 C 
ATOM     10  C   UNL     1      35.056 -15.946 -21.533  0.00  0.00    +0.035 C 
ATOM     11  C   UNL     1      34.682 -19.285 -23.426  0.00  0.00    +0.032 C 
ATOM     12  C   UNL     1      34.365 -14.607 -21.877  0.00  0.00    +0.141 C 
ATOM     13  C   UNL     1      33.397 -13.058 -23.820  0.00  0.00    +0.066 C 
ATOM     14  C   UNL     1      33.435 -15.486 -25.612  0.00  0.00    +0.042 C 
ATOM     15  C   UNL     1      33.024 -17.468 -21.576  0.00  0.00    +0.003 C 
ATOM     16  C   UNL     1      32.727 -14.203 -26.025  0.00  0.00    +0.180 C 
ATOM     17  C   UNL     1      33.361 -13.011 -25.354  0.00  0.00    -0.003 C 
ATOM     18  C   UNL     1      35.694 -20.122 -24.204  0.00  0.00    +0.003 C 
ATOM     19  C   UNL     1      31.943 -12.956 -23.303  0.00  0.00    +0.011 C 
ATOM     20  C   UNL     1      34.135 -11.857 -23.247  0.00  0.00    -0.017 C 
ATOM     21  C   UNL     1      33.890 -12.011 -26.077  0.00  0.00    +0.036 C 
ATOM     22  C   UNL     1      34.664 -10.861 -23.965  0.00  0.00    +0.038 C 
ATOM     23  C   UNL     1      34.563 -10.864 -25.435  0.00  0.00    +0.195 C 
ENDROOT
BRANCH   8  24
ATOM     24  O   UNL     1      36.667 -18.202 -22.395  0.00  0.00    -0.379 OA
ATOM     25  H   UNL     1      37.101 -18.227 -21.528  0.00  0.00    +0.211 HD
ENDBRANCH   8  24
BRANCH  12  26
ATOM     26  O   UNL     1      33.149 -14.504 -21.151  0.00  0.00    -0.382 OA
ATOM     27  H   UNL     1      33.197 -15.061 -20.359  0.00  0.00    +0.210 HD
ENDBRANCH  12  26
BRANCH   8  29
ATOM     28  O   UNL     1      36.183 -19.240 -20.154  0.00  0.00    -0.282 OA
ATOM     29  C   UNL     1      35.258 -19.250 -20.958  0.00  0.00    +0.225 C 
BRANCH  29  30
ATOM     30  S   UNL     1      33.779 -20.179 -20.718  0.00  0.00    -0.037 S 
BRANCH  30  32
ATOM     31  F   UNL     1      33.324 -21.818 -18.755  0.00  0.00    -0.221 F 
ATOM     32  C   UNL     1      34.359 -21.420 -19.542  0.00  0.00    +0.258 C 
ENDBRANCH  30  32
ENDBRANCH  29  30
ENDBRANCH   8  29
TORSDOF 5
ENDMDL
MODEL 3
REMARK VINA RESULT:      -6.1     14.338     16.214
REMARK  Name = 5311101
REMARK  5 active torsions:
REMARK  status: ('A' for Active; 'I' for Inactive)
REMARK    1  A    between atoms: C_8  and  O_24
REMARK    2  A    between atoms: C_8  and  C_29
REMARK    3  A    between atoms: C_12  and  O_26
REMARK    4  A    between atoms: C_29  and  S_30
REMARK    5  A    between atoms: S_30  and  C_32
REMARK                            x       y       z     vdW  Elec       q    Type
REMARK                         _______ _______ _______ _____ _____    ______ ____
ROOT
ATOM      1  F   UNL     1      34.709 -12.454 -22.522  0.00  0.00    -0.237 F 
ATOM      2  F   UNL     1      31.731 -14.675 -20.281  0.00  0.00    -0.233 F 
ATOM      3  O   UNL     1      35.510 -17.234 -22.077  0.00  0.00    -0.287 OA
ATOM      4  C   UNL     1      33.080  -9.488 -23.451  0.00  0.00    +0.032 C 
ATOM      5  C   UNL     1      32.837 -10.364 -22.204  0.00  0.00    +0.006 C 
ATOM      6  C   UNL     1      32.443 -11.813 -22.534  0.00  0.00    +0.036 C 
ATOM      7  C   UNL     1      33.598 -12.482 -23.355  0.00  0.00    +0.165 C 
ATOM      8  C   UNL     1      33.404  -8.136 -22.746  0.00  0.00    +0.148 C 
ATOM      9  C   UNL     1      31.898  -9.520 -21.345  0.00  0.00    +0.003 C 
ATOM     10  C   UNL     1      34.236 -10.126 -24.251  0.00  0.00    +0.035 C 
ATOM     11  C   UNL     1      32.346  -8.056 -21.603  0.00  0.00    +0.032 C 
ATOM     12  C   UNL     1      34.019 -11.620 -24.583  0.00  0.00    +0.141 C 
ATOM     13  C   UNL     1      33.327 -14.014 -23.634  0.00  0.00    +0.066 C 
ATOM     14  C   UNL     1      32.159 -12.595 -21.239  0.00  0.00    +0.042 C 
ATOM     15  C   UNL     1      31.823  -9.340 -24.351  0.00  0.00    +0.003 C 
ATOM     16  C   UNL     1      31.894 -14.072 -21.496  0.00  0.00    +0.180 C 
ATOM     17  C   UNL     1      33.026 -14.682 -22.284  0.00  0.00    -0.003 C 
ATOM     18  C   UNL     1      32.827  -7.370 -20.327  0.00  0.00    +0.003 C 
ATOM     19  C   UNL     1      32.129 -14.276 -24.576  0.00  0.00    +0.011 C 
ATOM     20  C   UNL     1      34.539 -14.644 -24.304  0.00  0.00    -0.017 C 
ATOM     21  C   UNL     1      33.733 -15.711 -21.792  0.00  0.00    +0.036 C 
ATOM     22  C   UNL     1      35.246 -15.669 -23.815  0.00  0.00    +0.038 C 
ATOM     23  C   UNL     1      34.879 -16.284 -22.527  0.00  0.00    +0.195 C 
ENDROOT
BRANCH   8  24
ATOM     24  O   UNL     1      34.742  -8.072 -22.263  0.00  0.00    -0.379 OA
ATOM     25  H   UNL     1      35.235  -8.846 -22.578  0.00  0.00    +0.211 HD
ENDBRANCH   8  24
BRANCH  12  26
ATOM     26  O   UNL     1      33.078 -11.737 -25.640  0.00  0.00    -0.382 OA
ATOM     27  H   UNL     1      32.180 -11.750 -25.274  0.00  0.00    +0.210 HD
ENDBRANCH  12  26
BRANCH   8  29
ATOM     28  O   UNL     1      34.176  -6.723 -24.522  0.00  0.00    -0.282 OA
ATOM     29  C   UNL     1      33.344  -6.943 -23.650  0.00  0.00    +0.225 C 
BRANCH  29  30
ATOM     30  S   UNL     1      31.964  -5.890 -23.343  0.00  0.00    -0.037 S 
BRANCH  30  32
ATOM     31  F   UNL     1      30.548  -4.702 -25.169  0.00  0.00    -0.221 F 
ATOM     32  C   UNL     1      31.845  -5.035 -24.929  0.00  0.00    +0.258 C 
ENDBRANCH  30  32
ENDBRANCH  29  30
ENDBRANCH   8  29
TORSDOF 5
ENDMDL
MODEL 4
REMARK VINA RESULT:      -5.8     14.303     16.281
REMARK  Name = 5311101
REMARK  5 active torsions:
REMARK  status: ('A' for Active; 'I' for Inactive)
REMARK    1  A    between atoms: C_8  and  O_24
REMARK    2  A    between atoms: C_8  and  C_29
REMARK    3  A    between atoms: C_12  and  O_26
REMARK    4  A    between atoms: C_29  and  S_30
REMARK    5  A    between atoms: S_30  and  C_32
REMARK                            x       y       z     vdW  Elec       q    Type
REMARK                         _______ _______ _______ _____ _____    ______ ____
ROOT
ATOM      1  F   UNL     1      34.691 -12.437 -22.506  0.00  0.00    -0.237 F 
ATOM      2  F   UNL     1      31.763 -14.677 -20.218  0.00  0.00    -0.233 F 
ATOM      3  O   UNL     1      35.542 -17.208 -22.055  0.00  0.00    -0.287 OA
ATOM      4  C   UNL     1      33.024  -9.489 -23.423  0.00  0.00    +0.032 C 
ATOM      5  C   UNL     1      32.805 -10.363 -22.170  0.00  0.00    +0.006 C 
ATOM      6  C   UNL     1      32.420 -11.817 -22.490  0.00  0.00    +0.036 C 
ATOM      7  C   UNL     1      33.570 -12.478 -23.323  0.00  0.00    +0.165 C 
ATOM      8  C   UNL     1      33.345  -8.132 -22.727  0.00  0.00    +0.148 C 
ATOM      9  C   UNL     1      31.869  -9.524 -21.302  0.00  0.00    +0.003 C 
ATOM     10  C   UNL     1      34.174 -10.120 -24.236  0.00  0.00    +0.035 C 
ATOM     11  C   UNL     1      32.300  -8.057 -21.571  0.00  0.00    +0.032 C 
ATOM     12  C   UNL     1      33.967 -11.617 -24.560  0.00  0.00    +0.141 C 
ATOM     13  C   UNL     1      33.309 -14.014 -23.593  0.00  0.00    +0.066 C 
ATOM     14  C   UNL     1      32.160 -12.596 -21.189  0.00  0.00    +0.042 C 
ATOM     15  C   UNL     1      31.754  -9.356 -24.307  0.00  0.00    +0.003 C 
ATOM     16  C   UNL     1      31.905 -14.076 -21.437  0.00  0.00    +0.180 C 
ATOM     17  C   UNL     1      33.032 -14.679 -22.237  0.00  0.00    -0.003 C 
ATOM     18  C   UNL     1      32.792  -7.362 -20.304  0.00  0.00    +0.003 C 
ATOM     19  C   UNL     1      32.101 -14.290 -24.519  0.00  0.00    +0.011 C 
ATOM     20  C   UNL     1      34.518 -14.635 -24.277  0.00  0.00    -0.017 C 
ATOM     21  C   UNL     1      33.755 -15.701 -21.752  0.00  0.00    +0.036 C 
ATOM     22  C   UNL     1      35.241 -15.651 -23.795  0.00  0.00    +0.038 C 
ATOM     23  C   UNL     1      34.896 -16.265 -22.500  0.00  0.00    +0.195 C 
ENDROOT
BRANCH   8  24
ATOM     24  O   UNL     1      34.688  -8.054 -22.262  0.00  0.00    -0.379 OA
ATOM     25  H   UNL     1      35.234  -7.609 -22.929  0.00  0.00    +0.211 HD
ENDBRANCH   8  24
BRANCH  12  26
ATOM     26  O   UNL     1      33.013 -11.746 -25.604  0.00  0.00    -0.382 OA
ATOM     27  H   UNL     1      32.168 -11.366 -25.319  0.00  0.00    +0.210 HD
ENDBRANCH  12  26
BRANCH   8  29
ATOM     28  O   UNL     1      32.331  -6.147 -23.610  0.00  0.00    -0.282 OA
ATOM     29  C   UNL     1      33.262  -6.943 -23.635  0.00  0.00    +0.225 C 
BRANCH  29  30
ATOM     30  S   UNL     1      34.628  -6.798 -24.740  0.00  0.00    -0.037 S 
BRANCH  30  32
ATOM     31  F   UNL     1      34.945  -5.199 -26.762  0.00  0.00    -0.221 F 
ATOM     32  C   UNL     1      33.949  -5.645 -25.951  0.00  0.00    +0.258 C 
ENDBRANCH  30  32
ENDBRANCH  29  30
ENDBRANCH   8  29
TORSDOF 5
ENDMDL
MODEL 5
REMARK VINA RESULT:      -4.9     10.099     11.993
REMARK  Name = 5311101
REMARK  5 active torsions:
REMARK  status: ('A' for Active; 'I' for Inactive)
REMARK    1  A    between atoms: C_8  and  O_24
REMARK    2  A    between atoms: C_8  and  C_29
REMARK    3  A    between atoms: C_12  and  O_26
REMARK    4  A    between atoms: C_29  and  S_30
REMARK    5  A    between atoms: S_30  and  C_32
REMARK                            x       y       z     vdW  Elec       q    Type
REMARK                         _______ _______ _______ _____ _____    ______ ____
ROOT
ATOM      1  F   UNL     1      35.449 -17.059 -20.961  0.00  0.00    -0.237 F 
ATOM      2  F   UNL     1      32.255 -19.705 -19.686  0.00  0.00    -0.233 F 
ATOM      3  O   UNL     1      36.845 -21.317 -19.061  0.00  0.00    -0.287 OA
ATOM      4  C   UNL     1      33.906 -14.822 -23.181  0.00  0.00    +0.032 C 
ATOM      5  C   UNL     1      33.284 -15.555 -21.974  0.00  0.00    +0.006 C 
ATOM      6  C   UNL     1      33.372 -17.087 -22.068  0.00  0.00    +0.036 C 
ATOM      7  C   UNL     1      34.879 -17.509 -22.144  0.00  0.00    +0.165 C 
ATOM      8  C   UNL     1      33.603 -13.351 -22.761  0.00  0.00    +0.148 C 
ATOM      9  C   UNL     1      31.913 -14.901 -21.818  0.00  0.00    +0.003 C 
ATOM     10  C   UNL     1      35.399 -15.211 -23.245  0.00  0.00    +0.035 C 
ATOM     11  C   UNL     1      32.142 -13.419 -22.219  0.00  0.00    +0.032 C 
ATOM     12  C   UNL     1      35.649 -16.737 -23.257  0.00  0.00    +0.141 C 
ATOM     13  C   UNL     1      35.064 -19.079 -22.123  0.00  0.00    +0.066 C 
ATOM     14  C   UNL     1      32.674 -17.736 -20.860  0.00  0.00    +0.042 C 
ATOM     15  C   UNL     1      33.208 -15.155 -24.527  0.00  0.00    +0.003 C 
ATOM     16  C   UNL     1      32.845 -19.248 -20.831  0.00  0.00    +0.180 C 
ATOM     17  C   UNL     1      34.305 -19.616 -20.901  0.00  0.00    -0.003 C 
ATOM     18  C   UNL     1      31.837 -12.460 -21.071  0.00  0.00    +0.003 C 
ATOM     19  C   UNL     1      34.514 -19.790 -23.381  0.00  0.00    +0.011 C 
ATOM     20  C   UNL     1      36.544 -19.428 -22.052  0.00  0.00    -0.017 C 
ATOM     21  C   UNL     1      34.885 -20.331 -19.924  0.00  0.00    +0.036 C 
ATOM     22  C   UNL     1      37.124 -20.137 -21.079  0.00  0.00    +0.038 C 
ATOM     23  C   UNL     1      36.327 -20.652 -19.951  0.00  0.00    +0.195 C 
ENDROOT
BRANCH   8  24
ATOM     24  O   UNL     1      34.525 -12.851 -21.800  0.00  0.00    -0.379 OA
ATOM     25  H   UNL     1      35.425 -12.904 -22.157  0.00  0.00    +0.211 HD
ENDBRANCH   8  24
BRANCH  12  26
ATOM     26  O   UNL     1      35.346 -17.254 -24.545  0.00  0.00    -0.382 OA
ATOM     27  H   UNL     1      35.237 -16.521 -25.170  0.00  0.00    +0.210 HD
ENDBRANCH  12  26
BRANCH   8  29
ATOM     28  O   UNL     1      34.087 -12.666 -25.007  0.00  0.00    -0.282 OA
ATOM     29  C   UNL     1      33.744 -12.356 -23.872  0.00  0.00    +0.225 C 
BRANCH  29  30
ATOM     30  S   UNL     1      33.368 -10.701 -23.394  0.00  0.00    -0.037 S 
BRANCH  30  32
ATOM     31  F   UNL     1      34.875  -8.596 -23.596  0.00  0.00    -0.221 F 
ATOM     32  C   UNL     1      34.730  -9.816 -24.179  0.00  0.00    +0.258 C 
ENDBRANCH  30  32
ENDBRANCH  29  30
ENDBRANCH   8  29
TORSDOF 5
ENDMDL
MODEL 6
REMARK VINA RESULT:      -4.6     14.545     16.913
REMARK  Name = 5311101
REMARK  5 active torsions:
REMARK  status: ('A' for Active; 'I' for Inactive)
REMARK    1  A    between atoms: C_8  and  O_24
REMARK    2  A    between atoms: C_8  and  C_29
REMARK    3  A    between atoms: C_12  and  O_26
REMARK    4  A    between atoms: C_29  and  S_30
REMARK    5  A    between atoms: S_30  and  C_32
REMARK                            x       y       z     vdW  Elec       q    Type
REMARK                         _______ _______ _______ _____ _____    ______ ____
ROOT
ATOM      1  F   UNL     1      31.320  -9.423 -23.330  0.00  0.00    -0.237 F 
ATOM      2  F   UNL     1      31.943  -7.730 -19.383  0.00  0.00    -0.233 F 
ATOM      3  O   UNL     1      30.095  -4.742 -22.805  0.00  0.00    -0.287 OA
ATOM      4  C   UNL     1      33.359 -12.278 -23.395  0.00  0.00    +0.032 C 
ATOM      5  C   UNL     1      32.666 -11.623 -22.181  0.00  0.00    +0.006 C 
ATOM      6  C   UNL     1      33.078 -10.161 -21.948  0.00  0.00    +0.036 C 
ATOM      7  C   UNL     1      32.699  -9.315 -23.212  0.00  0.00    +0.165 C 
ATOM      8  C   UNL     1      32.747 -13.708 -23.290  0.00  0.00    +0.148 C 
ATOM      9  C   UNL     1      32.869 -12.638 -21.057  0.00  0.00    +0.003 C 
ATOM     10  C   UNL     1      32.969 -11.466 -24.649  0.00  0.00    +0.035 C 
ATOM     11  C   UNL     1      32.802 -14.019 -21.763  0.00  0.00    +0.032 C 
ATOM     12  C   UNL     1      33.246  -9.950 -24.527  0.00  0.00    +0.141 C 
ATOM     13  C   UNL     1      32.980  -7.773 -23.009  0.00  0.00    +0.066 C 
ATOM     14  C   UNL     1      32.391  -9.609 -20.687  0.00  0.00    +0.042 C 
ATOM     15  C   UNL     1      34.905 -12.340 -23.258  0.00  0.00    +0.003 C 
ATOM     16  C   UNL     1      32.656  -8.125 -20.480  0.00  0.00    +0.180 C 
ATOM     17  C   UNL     1      32.277  -7.344 -21.713  0.00  0.00    -0.003 C 
ATOM     18  C   UNL     1      31.652 -14.875 -21.239  0.00  0.00    +0.003 C 
ATOM     19  C   UNL     1      34.481  -7.422 -22.880  0.00  0.00    +0.011 C 
ATOM     20  C   UNL     1      32.462  -6.988 -24.205  0.00  0.00    -0.017 C 
ATOM     21  C   UNL     1      31.352  -6.373 -21.658  0.00  0.00    +0.036 C 
ATOM     22  C   UNL     1      31.540  -6.022 -24.153  0.00  0.00    +0.038 C 
ATOM     23  C   UNL     1      30.931  -5.637 -22.868  0.00  0.00    +0.195 C 
ENDROOT
BRANCH   8  24
ATOM     24  O   UNL     1      31.429 -13.783 -23.821  0.00  0.00    -0.379 OA
ATOM     25  H   UNL     1      31.230 -12.968 -24.307  0.00  0.00    +0.211 HD
ENDBRANCH   8  24
BRANCH  12  26
ATOM     26  O   UNL     1      34.638  -9.712 -24.672  0.00  0.00    -0.382 OA
ATOM     27  H   UNL     1      35.030  -9.544 -23.802  0.00  0.00    +0.210 HD
ENDBRANCH  12  26
BRANCH   8  29
ATOM     28  O   UNL     1      33.319 -14.868 -25.309  0.00  0.00    -0.282 OA
ATOM     29  C   UNL     1      33.467 -14.743 -24.099  0.00  0.00    +0.225 C 
BRANCH  29  30
ATOM     30  S   UNL     1      34.547 -15.762 -23.148  0.00  0.00    -0.037 S 
BRANCH  30  32
ATOM     31  F   UNL     1      35.645 -18.039 -23.740  0.00  0.00    -0.221 F 
ATOM     32  C   UNL     1      34.860 -17.095 -24.323  0.00  0.00    +0.258 C 
ENDBRANCH  30  32
ENDBRANCH  29  30
ENDBRANCH   8  29
TORSDOF 5
ENDMDL
