MODEL 1
REMARK VINA RESULT:      -4.0      0.000      0.000
REMARK  Name = 446094
REMARK  7 active torsions:
REMARK  status: ('A' for Active; 'I' for Inactive)
REMARK    1  A    between atoms: C_1  and  O_2
REMARK    2  A    between atoms: C_1  and  C_4
REMARK    3  A    between atoms: C_1  and  C_10
REMARK    4  A    between atoms: C_4  and  O_5
REMARK    5  A    between atoms: C_4  and  C_7
REMARK    6  A    between atoms: C_7  and  S_8
REMARK    7  A    between atoms: C_10  and  S_11
REMARK                            x       y       z     vdW  Elec       q    Type
REMARK                         _______ _______ _______ _____ _____    ______ ____
ROOT
ATOM      1  C   UNL     1      36.491 -26.329 -14.916  0.00  0.00    +0.148 C 
ENDROOT
BRANCH   1   2
ATOM      2  O   UNL     1      36.866 -27.023 -16.104  0.00  0.00    -0.381 OA
ATOM      3  H   UNL     1      36.086 -27.455 -16.487  0.00  0.00    +0.210 HD
ENDBRANCH   1   2
BRANCH   1   4
ATOM      4  C   UNL     1      37.554 -26.520 -13.816  0.00  0.00    +0.148 C 
BRANCH   4   5
ATOM      5  O   UNL     1      36.878 -26.663 -12.566  0.00  0.00    -0.381 OA
ATOM      6  H   UNL     1      36.731 -27.605 -12.384  0.00  0.00    +0.210 HD
ENDBRANCH   4   5
BRANCH   4   7
ATOM      7  C   UNL     1      38.514 -25.325 -13.736  0.00  0.00    +0.085 C 
BRANCH   7   8
ATOM      8  S   UNL     1      40.096 -25.686 -14.564  0.00  0.00    -0.165 S 
ATOM      9  H   UNL     1      41.060 -25.896 -13.628  0.00  0.00    +0.102 HD
ENDBRANCH   7   8
ENDBRANCH   4   7
ENDBRANCH   1   4
BRANCH   1  10
ATOM     10  C   UNL     1      36.189 -24.869 -15.284  0.00  0.00    +0.085 C 
BRANCH  10  11
ATOM     11  S   UNL     1      34.639 -24.223 -14.578  0.00  0.00    -0.165 S 
ATOM     12  H   UNL     1      34.910 -23.134 -13.811  0.00  0.00    +0.102 HD
ENDBRANCH  10  11
ENDBRANCH   1  10
TORSDOF 7
ENDMDL
MODEL 2
REMARK VINA RESULT:      -4.0      0.103      3.686
REMARK  Name = 446094
REMARK  7 active torsions:
REMARK  status: ('A' for Active; 'I' for Inactive)
REMARK    1  A    between atoms: C_1  and  O_2
REMARK    2  A    between atoms: C_1  and  C_4
REMARK    3  A    between atoms: C_1  and  C_10
REMARK    4  A    between atoms: C_4  and  O_5
REMARK    5  A    between atoms: C_4  and  C_7
REMARK    6  A    between atoms: C_7  and  S_8
REMARK    7  A    between atoms: C_10  and  S_11
REMARK                            x       y       z     vdW  Elec       q    Type
REMARK                         _______ _______ _______ _____ _____    ______ ____
ROOT
ATOM      1  C   UNL     1      37.497 -26.517 -13.817  0.00  0.00    +0.148 C 
ENDROOT
BRANCH   1   2
ATOM      2  O   UNL     1      36.870 -26.681 -12.546  0.00  0.00    -0.381 OA
ATOM      3  H   UNL     1      35.935 -26.904 -12.672  0.00  0.00    +0.210 HD
ENDBRANCH   1   2
BRANCH   1   4
ATOM      4  C   UNL     1      36.441 -26.323 -14.923  0.00  0.00    +0.148 C 
BRANCH   4   5
ATOM      5  O   UNL     1      36.890 -27.012 -16.090  0.00  0.00    -0.381 OA
ATOM      6  H   UNL     1      37.126 -26.368 -16.776  0.00  0.00    +0.210 HD
ENDBRANCH   4   5
BRANCH   4   7
ATOM      7  C   UNL     1      36.235 -24.841 -15.262  0.00  0.00    +0.085 C 
BRANCH   7   8
ATOM      8  S   UNL     1      34.794 -24.152 -14.384  0.00  0.00    -0.165 S 
ATOM      9  H   UNL     1      33.753 -24.026 -15.250  0.00  0.00    +0.102 HD
ENDBRANCH   7   8
ENDBRANCH   4   7
ENDBRANCH   1   4
BRANCH   1  10
ATOM     10  C   UNL     1      38.535 -25.391 -13.701  0.00  0.00    +0.085 C 
BRANCH  10  11
ATOM     11  S   UNL     1      40.099 -25.721 -14.575  0.00  0.00    -0.165 S 
ATOM     12  H   UNL     1      40.568 -26.946 -14.217  0.00  0.00    +0.102 HD
ENDBRANCH  10  11
ENDBRANCH   1  10
TORSDOF 7
ENDMDL
MODEL 3
REMARK VINA RESULT:      -4.0      1.957      2.004
REMARK  Name = 446094
REMARK  7 active torsions:
REMARK  status: ('A' for Active; 'I' for Inactive)
REMARK    1  A    between atoms: C_1  and  O_2
REMARK    2  A    between atoms: C_1  and  C_4
REMARK    3  A    between atoms: C_1  and  C_10
REMARK    4  A    between atoms: C_4  and  O_5
REMARK    5  A    between atoms: C_4  and  C_7
REMARK    6  A    between atoms: C_7  and  S_8
REMARK    7  A    between atoms: C_10  and  S_11
REMARK                            x       y       z     vdW  Elec       q    Type
REMARK                         _______ _______ _______ _____ _____    ______ ____
ROOT
ATOM      1  C   UNL     1      36.768 -26.195 -14.907  0.00  0.00    +0.148 C 
ENDROOT
BRANCH   1   2
ATOM      2  O   UNL     1      36.857 -27.018 -16.069  0.00  0.00    -0.381 OA
ATOM      3  H   UNL     1      36.130 -27.660 -16.067  0.00  0.00    +0.210 HD
ENDBRANCH   1   2
BRANCH   1   4
ATOM      4  C   UNL     1      38.117 -25.503 -14.626  0.00  0.00    +0.148 C 
BRANCH   4   5
ATOM      5  O   UNL     1      39.101 -26.086 -15.481  0.00  0.00    -0.381 OA
ATOM      6  H   UNL     1      39.887 -25.517 -15.504  0.00  0.00    +0.210 HD
ENDBRANCH   4   5
BRANCH   4   7
ATOM      7  C   UNL     1      38.554 -25.676 -13.165  0.00  0.00    +0.085 C 
BRANCH   7   8
ATOM      8  S   UNL     1      38.049 -24.251 -12.147  0.00  0.00    -0.165 S 
ATOM      9  H   UNL     1      38.973 -24.040 -11.172  0.00  0.00    +0.102 HD
ENDBRANCH   7   8
ENDBRANCH   4   7
ENDBRANCH   1   4
BRANCH   1  10
ATOM     10  C   UNL     1      35.572 -25.247 -15.078  0.00  0.00    +0.085 C 
BRANCH  10  11
ATOM     11  S   UNL     1      36.030 -23.515 -15.410  0.00  0.00    -0.165 S 
ATOM     12  H   UNL     1      35.639 -22.735 -14.367  0.00  0.00    +0.102 HD
ENDBRANCH  10  11
ENDBRANCH   1  10
TORSDOF 7
ENDMDL
MODEL 4
REMARK VINA RESULT:      -3.9      1.981      3.239
REMARK  Name = 446094
REMARK  7 active torsions:
REMARK  status: ('A' for Active; 'I' for Inactive)
REMARK    1  A    between atoms: C_1  and  O_2
REMARK    2  A    between atoms: C_1  and  C_4
REMARK    3  A    between atoms: C_1  and  C_10
REMARK    4  A    between atoms: C_4  and  O_5
REMARK    5  A    between atoms: C_4  and  C_7
REMARK    6  A    between atoms: C_7  and  S_8
REMARK    7  A    between atoms: C_10  and  S_11
REMARK                            x       y       z     vdW  Elec       q    Type
REMARK                         _______ _______ _______ _____ _____    ______ ____
ROOT
ATOM      1  C   UNL     1      38.217 -25.410 -14.636  0.00  0.00    +0.148 C 
ENDROOT
BRANCH   1   2
ATOM      2  O   UNL     1      39.234 -25.884 -15.516  0.00  0.00    -0.381 OA
ATOM      3  H   UNL     1      39.765 -25.136 -15.830  0.00  0.00    +0.210 HD
ENDBRANCH   1   2
BRANCH   1   4
ATOM      4  C   UNL     1      36.897 -26.172 -14.871  0.00  0.00    +0.148 C 
BRANCH   4   5
ATOM      5  O   UNL     1      37.042 -26.957 -16.054  0.00  0.00    -0.381 OA
ATOM      6  H   UNL     1      36.377 -26.685 -16.706  0.00  0.00    +0.210 HD
ENDBRANCH   4   5
BRANCH   4   7
ATOM      7  C   UNL     1      35.709 -25.215 -15.043  0.00  0.00    +0.085 C 
BRANCH   7   8
ATOM      8  S   UNL     1      36.266 -23.530 -15.453  0.00  0.00    -0.165 S 
ATOM      9  H   UNL     1      35.769 -23.170 -16.667  0.00  0.00    +0.102 HD
ENDBRANCH   7   8
ENDBRANCH   4   7
ENDBRANCH   1   4
BRANCH   1  10
ATOM     10  C   UNL     1      38.756 -25.468 -13.199  0.00  0.00    +0.085 C 
BRANCH  10  11
ATOM     11  S   UNL     1      38.042 -24.220 -12.080  0.00  0.00    -0.165 S 
ATOM     12  H   UNL     1      39.025 -23.697 -11.299  0.00  0.00    +0.102 HD
ENDBRANCH  10  11
ENDBRANCH   1  10
TORSDOF 7
ENDMDL
MODEL 5
REMARK VINA RESULT:      -3.9      2.217      3.949
REMARK  Name = 446094
REMARK  7 active torsions:
REMARK  status: ('A' for Active; 'I' for Inactive)
REMARK    1  A    between atoms: C_1  and  O_2
REMARK    2  A    between atoms: C_1  and  C_4
REMARK    3  A    between atoms: C_1  and  C_10
REMARK    4  A    between atoms: C_4  and  O_5
REMARK    5  A    between atoms: C_4  and  C_7
REMARK    6  A    between atoms: C_7  and  S_8
REMARK    7  A    between atoms: C_10  and  S_11
REMARK                            x       y       z     vdW  Elec       q    Type
REMARK                         _______ _______ _______ _____ _____    ______ ____
ROOT
ATOM      1  C   UNL     1      36.841 -25.330 -12.556  0.00  0.00    +0.148 C 
ENDROOT
BRANCH   1   2
ATOM      2  O   UNL     1      36.866 -26.622 -11.955  0.00  0.00    -0.381 OA
ATOM      3  H   UNL     1      37.406 -26.595 -11.150  0.00  0.00    +0.210 HD
ENDBRANCH   1   2
BRANCH   1   4
ATOM      4  C   UNL     1      35.760 -24.446 -11.901  0.00  0.00    +0.148 C 
BRANCH   4   5
ATOM      5  O   UNL     1      35.291 -25.114 -10.730  0.00  0.00    -0.381 OA
ATOM      6  H   UNL     1      35.355 -26.074 -10.858  0.00  0.00    +0.210 HD
ENDBRANCH   4   5
BRANCH   4   7
ATOM      7  C   UNL     1      34.578 -24.195 -12.847  0.00  0.00    +0.085 C 
BRANCH   7   8
ATOM      8  S   UNL     1      35.043 -24.482 -14.585  0.00  0.00    -0.165 S 
ATOM      9  H   UNL     1      34.249 -25.453 -15.112  0.00  0.00    +0.102 HD
ENDBRANCH   7   8
ENDBRANCH   4   7
ENDBRANCH   1   4
BRANCH   1  10
ATOM     10  C   UNL     1      38.264 -24.753 -12.521  0.00  0.00    +0.085 C 
BRANCH  10  11
ATOM     11  S   UNL     1      39.388 -25.458 -13.769  0.00  0.00    -0.165 S 
ATOM     12  H   UNL     1      39.866 -26.652 -13.326  0.00  0.00    +0.102 HD
ENDBRANCH  10  11
ENDBRANCH   1  10
TORSDOF 7
ENDMDL
MODEL 6
REMARK VINA RESULT:      -3.9      2.098      3.339
REMARK  Name = 446094
REMARK  7 active torsions:
REMARK  status: ('A' for Active; 'I' for Inactive)
REMARK    1  A    between atoms: C_1  and  O_2
REMARK    2  A    between atoms: C_1  and  C_4
REMARK    3  A    between atoms: C_1  and  C_10
REMARK    4  A    between atoms: C_4  and  O_5
REMARK    5  A    between atoms: C_4  and  C_7
REMARK    6  A    between atoms: C_7  and  S_8
REMARK    7  A    between atoms: C_10  and  S_11
REMARK                            x       y       z     vdW  Elec       q    Type
REMARK                         _______ _______ _______ _____ _____    ______ ____
ROOT
ATOM      1  C   UNL     1      37.790 -25.857 -12.608  0.00  0.00    +0.148 C 
ENDROOT
BRANCH   1   2
ATOM      2  O   UNL     1      36.691 -26.036 -11.716  0.00  0.00    -0.381 OA
ATOM      3  H   UNL     1      35.984 -25.413 -11.944  0.00  0.00    +0.210 HD
ENDBRANCH   1   2
BRANCH   1   4
ATOM      4  C   UNL     1      37.421 -26.328 -14.029  0.00  0.00    +0.148 C 
BRANCH   4   5
ATOM      5  O   UNL     1      38.533 -27.051 -14.559  0.00  0.00    -0.381 OA
ATOM      6  H   UNL     1      38.303 -27.991 -14.630  0.00  0.00    +0.210 HD
ENDBRANCH   4   5
BRANCH   4   7
ATOM      7  C   UNL     1      37.098 -25.149 -14.956  0.00  0.00    +0.085 C 
BRANCH   7   8
ATOM      8  S   UNL     1      35.317 -24.766 -14.950  0.00  0.00    -0.165 S 
ATOM      9  H   UNL     1      35.125 -23.493 -15.387  0.00  0.00    +0.102 HD
ENDBRANCH   7   8
ENDBRANCH   4   7
ENDBRANCH   1   4
BRANCH   1  10
ATOM     10  C   UNL     1      38.261 -24.398 -12.507  0.00  0.00    +0.085 C 
BRANCH  10  11
ATOM     11  S   UNL     1      37.073 -23.282 -11.693  0.00  0.00    -0.165 S 
ATOM     12  H   UNL     1      35.974 -23.989 -11.313  0.00  0.00    +0.102 HD
ENDBRANCH  10  11
ENDBRANCH   1  10
TORSDOF 7
ENDMDL
MODEL 7
REMARK VINA RESULT:      -3.8     11.726     13.115
REMARK  Name = 446094
REMARK  7 active torsions:
REMARK  status: ('A' for Active; 'I' for Inactive)
REMARK    1  A    between atoms: C_1  and  O_2
REMARK    2  A    between atoms: C_1  and  C_4
REMARK    3  A    between atoms: C_1  and  C_10
REMARK    4  A    between atoms: C_4  and  O_5
REMARK    5  A    between atoms: C_4  and  C_7
REMARK    6  A    between atoms: C_7  and  S_8
REMARK    7  A    between atoms: C_10  and  S_11
REMARK                            x       y       z     vdW  Elec       q    Type
REMARK                         _______ _______ _______ _____ _____    ______ ____
ROOT
ATOM      1  C   UNL     1      34.494 -16.526 -21.321  0.00  0.00    +0.148 C 
ENDROOT
BRANCH   1   2
ATOM      2  O   UNL     1      34.920 -15.616 -20.310  0.00  0.00    -0.381 OA
ATOM      3  H   UNL     1      35.689 -15.983 -19.847  0.00  0.00    +0.210 HD
ENDBRANCH   1   2
BRANCH   1   4
ATOM      4  C   UNL     1      34.456 -15.832 -22.698  0.00  0.00    +0.148 C 
BRANCH   4   5
ATOM      5  O   UNL     1      35.656 -16.166 -23.396  0.00  0.00    -0.381 OA
ATOM      6  H   UNL     1      35.573 -15.902 -24.326  0.00  0.00    +0.210 HD
ENDBRANCH   4   5
BRANCH   4   7
ATOM      7  C   UNL     1      34.358 -14.306 -22.565  0.00  0.00    +0.085 C 
BRANCH   7   8
ATOM      8  S   UNL     1      33.521 -13.566 -24.004  0.00  0.00    -0.165 S 
ATOM      9  H   UNL     1      32.434 -14.315 -24.331  0.00  0.00    +0.102 HD
ENDBRANCH   7   8
ENDBRANCH   4   7
ENDBRANCH   1   4
BRANCH   1  10
ATOM     10  C   UNL     1      35.379 -17.779 -21.247  0.00  0.00    +0.085 C 
BRANCH  10  11
ATOM     11  S   UNL     1      34.461 -19.351 -21.321  0.00  0.00    -0.165 S 
ATOM     12  H   UNL     1      34.879 -20.070 -22.396  0.00  0.00    +0.102 HD
ENDBRANCH  10  11
ENDBRANCH   1  10
TORSDOF 7
ENDMDL
MODEL 8
REMARK VINA RESULT:      -3.8     11.711     12.789
REMARK  Name = 446094
REMARK  7 active torsions:
REMARK  status: ('A' for Active; 'I' for Inactive)
REMARK    1  A    between atoms: C_1  and  O_2
REMARK    2  A    between atoms: C_1  and  C_4
REMARK    3  A    between atoms: C_1  and  C_10
REMARK    4  A    between atoms: C_4  and  O_5
REMARK    5  A    between atoms: C_4  and  C_7
REMARK    6  A    between atoms: C_7  and  S_8
REMARK    7  A    between atoms: C_10  and  S_11
REMARK                            x       y       z     vdW  Elec       q    Type
REMARK                         _______ _______ _______ _____ _____    ______ ____
ROOT
ATOM      1  C   UNL     1      34.474 -15.842 -22.636  0.00  0.00    +0.148 C 
ENDROOT
BRANCH   1   2
ATOM      2  O   UNL     1      35.652 -16.175 -23.369  0.00  0.00    -0.381 OA
ATOM      3  H   UNL     1      36.001 -15.380 -23.799  0.00  0.00    +0.210 HD
ENDBRANCH   1   2
BRANCH   1   4
ATOM      4  C   UNL     1      34.470 -16.546 -21.264  0.00  0.00    +0.148 C 
BRANCH   4   5
ATOM      5  O   UNL     1      34.929 -15.613 -20.286  0.00  0.00    -0.381 OA
ATOM      6  H   UNL     1      35.404 -14.891 -20.726  0.00  0.00    +0.210 HD
ENDBRANCH   4   5
BRANCH   4   7
ATOM      7  C   UNL     1      35.383 -17.780 -21.252  0.00  0.00    +0.085 C 
BRANCH   7   8
ATOM      8  S   UNL     1      34.415 -19.323 -21.283  0.00  0.00    -0.165 S 
ATOM      9  H   UNL     1      34.488 -19.880 -22.522  0.00  0.00    +0.102 HD
ENDBRANCH   7   8
ENDBRANCH   4   7
ENDBRANCH   1   4
BRANCH   1  10
ATOM     10  C   UNL     1      34.355 -14.312 -22.584  0.00  0.00    +0.085 C 
BRANCH  10  11
ATOM     11  S   UNL     1      33.504 -13.577 -24.017  0.00  0.00    -0.165 S 
ATOM     12  H   UNL     1      32.161 -13.746 -23.882  0.00  0.00    +0.102 HD
ENDBRANCH  10  11
ENDBRANCH   1  10
TORSDOF 7
ENDMDL
MODEL 9
REMARK VINA RESULT:      -3.8     12.722     13.867
REMARK  Name = 446094
REMARK  7 active torsions:
REMARK  status: ('A' for Active; 'I' for Inactive)
REMARK    1  A    between atoms: C_1  and  O_2
REMARK    2  A    between atoms: C_1  and  C_4
REMARK    3  A    between atoms: C_1  and  C_10
REMARK    4  A    between atoms: C_4  and  O_5
REMARK    5  A    between atoms: C_4  and  C_7
REMARK    6  A    between atoms: C_7  and  S_8
REMARK    7  A    between atoms: C_10  and  S_11
REMARK                            x       y       z     vdW  Elec       q    Type
REMARK                         _______ _______ _______ _____ _____    ______ ____
ROOT
ATOM      1  C   UNL     1      34.006 -16.524 -24.843  0.00  0.00    +0.148 C 
ENDROOT
BRANCH   1   2
ATOM      2  O   UNL     1      34.890 -16.665 -25.953  0.00  0.00    -0.381 OA
ATOM      3  H   UNL     1      35.778 -16.888 -25.633  0.00  0.00    +0.210 HD
ENDBRANCH   1   2
BRANCH   1   4
ATOM      4  C   UNL     1      34.664 -17.050 -23.552  0.00  0.00    +0.148 C 
BRANCH   4   5
ATOM      5  O   UNL     1      35.900 -16.359 -23.371  0.00  0.00    -0.381 OA
ATOM      6  H   UNL     1      35.967 -15.640 -24.018  0.00  0.00    +0.210 HD
ENDBRANCH   4   5
BRANCH   4   7
ATOM      7  C   UNL     1      34.936 -18.559 -23.624  0.00  0.00    +0.085 C 
BRANCH   7   8
ATOM      8  S   UNL     1      34.698 -19.356 -22.002  0.00  0.00    -0.165 S 
ATOM      9  H   UNL     1      34.030 -18.509 -21.174  0.00  0.00    +0.102 HD
ENDBRANCH   7   8
ENDBRANCH   4   7
ENDBRANCH   1   4
BRANCH   1  10
ATOM     10  C   UNL     1      33.534 -15.063 -24.785  0.00  0.00    +0.085 C 
BRANCH  10  11
ATOM     11  S   UNL     1      32.921 -14.411 -26.372  0.00  0.00    -0.165 S 
ATOM     12  H   UNL     1      33.822 -13.524 -26.875  0.00  0.00    +0.102 HD
ENDBRANCH  10  11
ENDBRANCH   1  10
TORSDOF 7
ENDMDL
