MODEL 1
REMARK VINA RESULT:      -3.6      0.000      0.000
REMARK  Name = 5311066
REMARK  4 active torsions:
REMARK  status: ('A' for Active; 'I' for Inactive)
REMARK    1  A    between atoms: C_7  and  C_29
REMARK    2  A    between atoms: C_12  and  O_26
REMARK    3  A    between atoms: C_29  and  C_30
REMARK    4  A    between atoms: C_30  and  O_31
REMARK                            x       y       z     vdW  Elec       q    Type
REMARK                         _______ _______ _______ _____ _____    ______ ____
ROOT
ATOM      1  O   UNL     1      34.252 -15.834 -20.935  0.00  0.00    -0.330 OA
ATOM      2  O   UNL     1      31.942 -15.882 -21.363  0.00  0.00    -0.334 OA
ATOM      3  O   UNL     1      35.998 -22.793 -15.292  0.00  0.00    -0.287 OA
ATOM      4  C   UNL     1      34.672 -18.079 -21.899  0.00  0.00    +0.034 C 
ATOM      5  C   UNL     1      33.646 -18.679 -20.912  0.00  0.00    +0.005 C 
ATOM      6  C   UNL     1      33.924 -20.145 -20.546  0.00  0.00    +0.003 C 
ATOM      7  C   UNL     1      34.060 -16.664 -22.077  0.00  0.00    +0.173 C 
ATOM      8  C   UNL     1      35.331 -20.226 -19.853  0.00  0.00    +0.034 C 
ATOM      9  C   UNL     1      32.549 -16.907 -22.145  0.00  0.00    +0.149 C 
ATOM     10  C   UNL     1      32.296 -18.298 -21.522  0.00  0.00    +0.033 C 
ATOM     11  C   UNL     1      36.054 -18.128 -21.219  0.00  0.00    +0.032 C 
ATOM     12  C   UNL     1      36.446 -19.530 -20.701  0.00  0.00    +0.111 C 
ATOM     13  C   UNL     1      35.657 -21.675 -19.316  0.00  0.00    +0.036 C 
ATOM     14  C   UNL     1      32.817 -20.685 -19.622  0.00  0.00    +0.004 C 
ATOM     15  C   UNL     1      34.709 -18.814 -23.265  0.00  0.00    +0.003 C 
ATOM     16  C   UNL     1      33.122 -22.085 -19.106  0.00  0.00    +0.022 C 
ATOM     17  C   UNL     1      32.990 -15.222 -20.653  0.00  0.00    +0.188 C 
ATOM     18  C   UNL     1      34.475 -22.115 -18.444  0.00  0.00    -0.038 C 
ATOM     19  C   UNL     1      35.854 -22.725 -20.431  0.00  0.00    +0.009 C 
ATOM     20  C   UNL     1      36.952 -21.652 -18.517  0.00  0.00    -0.020 C 
ATOM     21  C   UNL     1      32.704 -15.318 -19.156  0.00  0.00    +0.061 C 
ATOM     22  C   UNL     1      33.041 -13.762 -21.088  0.00  0.00    +0.061 C 
ATOM     23  C   UNL     1      34.591 -22.469 -17.155  0.00  0.00    +0.034 C 
ATOM     24  C   UNL     1      37.073 -22.001 -17.232  0.00  0.00    +0.038 C 
ATOM     25  C   UNL     1      35.897 -22.451 -16.465  0.00  0.00    +0.195 C 
ENDROOT
BRANCH  12  26
ATOM     26  O   UNL     1      36.819 -20.345 -21.806  0.00  0.00    -0.384 OA
ATOM     27  H   UNL     1      36.156 -20.260 -22.508  0.00  0.00    +0.210 HD
ENDBRANCH  12  26
BRANCH   7  29
ATOM     28  O   UNL     1      35.814 -15.642 -23.327  0.00  0.00    -0.291 OA
ATOM     29  C   UNL     1      34.615 -15.905 -23.247  0.00  0.00    +0.207 C 
BRANCH  29  30
ATOM     30  C   UNL     1      33.620 -15.488 -24.308  0.00  0.00    +0.204 C 
BRANCH  30  31
ATOM     31  O   UNL     1      33.846 -16.195 -25.510  0.00  0.00    -0.375 OA
ATOM     32  H   UNL     1      33.084 -16.082 -26.100  0.00  0.00    +0.211 HD
ENDBRANCH  30  31
ENDBRANCH  29  30
ENDBRANCH   7  29
TORSDOF 4
ENDMDL
MODEL 2
REMARK VINA RESULT:      -2.6      6.544     10.060
REMARK  Name = 5311066
REMARK  4 active torsions:
REMARK  status: ('A' for Active; 'I' for Inactive)
REMARK    1  A    between atoms: C_7  and  C_29
REMARK    2  A    between atoms: C_12  and  O_26
REMARK    3  A    between atoms: C_29  and  C_30
REMARK    4  A    between atoms: C_30  and  O_31
REMARK                            x       y       z     vdW  Elec       q    Type
REMARK                         _______ _______ _______ _____ _____    ______ ____
ROOT
ATOM      1  O   UNL     1      35.401 -22.469 -14.811  0.00  0.00    -0.330 OA
ATOM      2  O   UNL     1      36.361 -24.200 -16.077  0.00  0.00    -0.334 OA
ATOM      3  O   UNL     1      26.774 -21.630 -17.677  0.00  0.00    -0.287 OA
ATOM      4  C   UNL     1      33.658 -23.915 -13.801  0.00  0.00    +0.034 C 
ATOM      5  C   UNL     1      33.170 -24.292 -15.217  0.00  0.00    +0.005 C 
ATOM      6  C   UNL     1      31.678 -24.653 -15.282  0.00  0.00    +0.003 C 
ATOM      7  C   UNL     1      35.163 -23.682 -14.101  0.00  0.00    +0.173 C 
ATOM      8  C   UNL     1      30.845 -23.402 -14.826  0.00  0.00    +0.034 C 
ATOM      9  C   UNL     1      35.534 -24.798 -15.082  0.00  0.00    +0.149 C 
ATOM     10  C   UNL     1      34.211 -25.305 -15.698  0.00  0.00    +0.033 C 
ATOM     11  C   UNL     1      32.866 -22.672 -13.352  0.00  0.00    +0.032 C 
ATOM     12  C   UNL     1      31.333 -22.839 -13.451  0.00  0.00    +0.111 C 
ATOM     13  C   UNL     1      29.289 -23.623 -14.982  0.00  0.00    +0.036 C 
ATOM     14  C   UNL     1      31.294 -25.087 -16.708  0.00  0.00    +0.004 C 
ATOM     15  C   UNL     1      33.498 -25.065 -12.772  0.00  0.00    +0.003 C 
ATOM     16  C   UNL     1      29.795 -25.309 -16.864  0.00  0.00    +0.022 C 
ATOM     17  C   UNL     1      36.291 -22.787 -15.885  0.00  0.00    +0.188 C 
ATOM     18  C   UNL     1      29.036 -24.085 -16.422  0.00  0.00    -0.038 C 
ATOM     19  C   UNL     1      28.709 -24.688 -14.025  0.00  0.00    +0.009 C 
ATOM     20  C   UNL     1      28.548 -22.329 -14.681  0.00  0.00    -0.020 C 
ATOM     21  C   UNL     1      35.782 -22.143 -17.172  0.00  0.00    +0.061 C 
ATOM     22  C   UNL     1      37.681 -22.263 -15.544  0.00  0.00    +0.061 C 
ATOM     23  C   UNL     1      28.232 -23.440 -17.281  0.00  0.00    +0.034 C 
ATOM     24  C   UNL     1      27.747 -21.681 -15.533  0.00  0.00    +0.038 C 
ATOM     25  C   UNL     1      27.522 -22.205 -16.893  0.00  0.00    +0.195 C 
ENDROOT
BRANCH  12  26
ATOM     26  O   UNL     1      30.887 -23.665 -12.382  0.00  0.00    -0.384 OA
ATOM     27  H   UNL     1      31.175 -24.578 -12.538  0.00  0.00    +0.210 HD
ENDBRANCH  12  26
BRANCH   7  29
ATOM     28  O   UNL     1      35.898 -22.729 -12.044  0.00  0.00    -0.291 OA
ATOM     29  C   UNL     1      36.026 -23.627 -12.875  0.00  0.00    +0.207 C 
BRANCH  29  30
ATOM     30  C   UNL     1      37.050 -24.731 -12.726  0.00  0.00    +0.204 C 
BRANCH  30  31
ATOM     31  O   UNL     1      36.649 -25.653 -11.734  0.00  0.00    -0.375 OA
ATOM     32  H   UNL     1      37.093 -26.503 -11.883  0.00  0.00    +0.211 HD
ENDBRANCH  30  31
ENDBRANCH  29  30
ENDBRANCH   7  29
TORSDOF 4
ENDMDL
MODEL 3
REMARK VINA RESULT:      -2.2      6.941     10.075
REMARK  Name = 5311066
REMARK  4 active torsions:
REMARK  status: ('A' for Active; 'I' for Inactive)
REMARK    1  A    between atoms: C_7  and  C_29
REMARK    2  A    between atoms: C_12  and  O_26
REMARK    3  A    between atoms: C_29  and  C_30
REMARK    4  A    between atoms: C_30  and  O_31
REMARK                            x       y       z     vdW  Elec       q    Type
REMARK                         _______ _______ _______ _____ _____    ______ ____
ROOT
ATOM      1  O   UNL     1      37.470 -25.581 -14.141  0.00  0.00    -0.330 OA
ATOM      2  O   UNL     1      38.038 -24.453 -12.159  0.00  0.00    -0.334 OA
ATOM      3  O   UNL     1      28.357 -26.087 -14.325  0.00  0.00    -0.287 OA
ATOM      4  C   UNL     1      36.185 -23.681 -15.081  0.00  0.00    +0.034 C 
ATOM      5  C   UNL     1      35.287 -23.684 -13.824  0.00  0.00    +0.005 C 
ATOM      6  C   UNL     1      33.864 -23.165 -14.079  0.00  0.00    +0.003 C 
ATOM      7  C   UNL     1      37.509 -24.191 -14.453  0.00  0.00    +0.173 C 
ATOM      8  C   UNL     1      33.177 -24.099 -15.138  0.00  0.00    +0.034 C 
ATOM      9  C   UNL     1      37.588 -23.480 -13.099  0.00  0.00    +0.149 C 
ATOM     10  C   UNL     1      36.156 -23.010 -12.760  0.00  0.00    +0.033 C 
ATOM     11  C   UNL     1      35.534 -24.615 -16.119  0.00  0.00    +0.032 C 
ATOM     12  C   UNL     1      34.055 -24.283 -16.419  0.00  0.00    +0.111 C 
ATOM     13  C   UNL     1      31.659 -23.730 -15.374  0.00  0.00    +0.036 C 
ATOM     14  C   UNL     1      33.063 -23.131 -12.765  0.00  0.00    +0.004 C 
ATOM     15  C   UNL     1      36.396 -22.265 -15.678  0.00  0.00    +0.003 C 
ATOM     16  C   UNL     1      31.600 -22.769 -12.984  0.00  0.00    +0.022 C 
ATOM     17  C   UNL     1      37.985 -25.722 -12.814  0.00  0.00    +0.188 C 
ATOM     18  C   UNL     1      30.980 -23.692 -14.000  0.00  0.00    -0.038 C 
ATOM     19  C   UNL     1      31.448 -22.360 -16.056  0.00  0.00    +0.009 C 
ATOM     20  C   UNL     1      31.009 -24.764 -16.282  0.00  0.00    -0.020 C 
ATOM     21  C   UNL     1      37.075 -26.649 -12.012  0.00  0.00    +0.061 C 
ATOM     22  C   UNL     1      39.393 -26.299 -12.890  0.00  0.00    +0.061 C 
ATOM     23  C   UNL     1      29.925 -24.452 -13.670  0.00  0.00    +0.034 C 
ATOM     24  C   UNL     1      29.959 -25.525 -15.957  0.00  0.00    +0.038 C 
ATOM     25  C   UNL     1      29.333 -25.408 -14.628  0.00  0.00    +0.195 C 
ENDROOT
BRANCH  12  26
ATOM     26  O   UNL     1      33.997 -23.123 -17.240  0.00  0.00    -0.384 OA
ATOM     27  H   UNL     1      34.898 -22.807 -17.415  0.00  0.00    +0.210 HD
ENDBRANCH  12  26
BRANCH   7  29
ATOM     28  O   UNL     1      38.723 -23.139 -16.214  0.00  0.00    -0.291 OA
ATOM     29  C   UNL     1      38.713 -23.990 -15.325  0.00  0.00    +0.207 C 
BRANCH  29  30
ATOM     30  C   UNL     1      39.899 -24.888 -15.048  0.00  0.00    +0.204 C 
BRANCH  30  31
ATOM     31  O   UNL     1      40.142 -25.748 -16.141  0.00  0.00    -0.375 OA
ATOM     32  H   UNL     1      40.758 -26.447 -15.873  0.00  0.00    +0.211 HD
ENDBRANCH  30  31
ENDBRANCH  29  30
ENDBRANCH   7  29
TORSDOF 4
ENDMDL
MODEL 4
REMARK VINA RESULT:      -1.5      6.032      9.521
REMARK  Name = 5311066
REMARK  4 active torsions:
REMARK  status: ('A' for Active; 'I' for Inactive)
REMARK    1  A    between atoms: C_7  and  C_29
REMARK    2  A    between atoms: C_12  and  O_26
REMARK    3  A    between atoms: C_29  and  C_30
REMARK    4  A    between atoms: C_30  and  O_31
REMARK                            x       y       z     vdW  Elec       q    Type
REMARK                         _______ _______ _______ _____ _____    ______ ____
ROOT
ATOM      1  O   UNL     1      33.252  -7.046 -22.259  0.00  0.00    -0.330 OA
ATOM      2  O   UNL     1      31.039  -6.526 -21.663  0.00  0.00    -0.334 OA
ATOM      3  O   UNL     1      34.631 -15.731 -19.810  0.00  0.00    -0.287 OA
ATOM      4  C   UNL     1      32.608  -8.850 -23.833  0.00  0.00    +0.034 C 
ATOM      5  C   UNL     1      31.855  -9.562 -22.687  0.00  0.00    +0.005 C 
ATOM      6  C   UNL     1      31.781 -11.087 -22.850  0.00  0.00    +0.003 C 
ATOM      7  C   UNL     1      32.434  -7.376 -23.378  0.00  0.00    +0.173 C 
ATOM      8  C   UNL     1      33.245 -11.657 -22.863  0.00  0.00    +0.034 C 
ATOM      9  C   UNL     1      30.996  -7.305 -22.856  0.00  0.00    +0.149 C 
ATOM     10  C   UNL     1      30.562  -8.755 -22.551  0.00  0.00    +0.033 C 
ATOM     11  C   UNL     1      34.054  -9.381 -23.840  0.00  0.00    +0.032 C 
ATOM     12  C   UNL     1      34.154 -10.921 -23.902  0.00  0.00    +0.111 C 
ATOM     13  C   UNL     1      33.279 -13.235 -22.893  0.00  0.00    +0.036 C 
ATOM     14  C   UNL     1      30.954 -11.708 -21.710  0.00  0.00    +0.004 C 
ATOM     15  C   UNL     1      31.945  -9.055 -25.221  0.00  0.00    +0.003 C 
ATOM     16  C   UNL     1      30.976 -13.231 -21.737  0.00  0.00    +0.022 C 
ATOM     17  C   UNL     1      32.416  -6.355 -21.325  0.00  0.00    +0.188 C 
ATOM     18  C   UNL     1      32.397 -13.733 -21.741  0.00  0.00    -0.038 C 
ATOM     19  C   UNL     1      32.748 -13.847 -24.208  0.00  0.00    +0.009 C 
ATOM     20  C   UNL     1      34.711 -13.727 -22.741  0.00  0.00    -0.020 C 
ATOM     21  C   UNL     1      32.650  -6.915 -19.925  0.00  0.00    +0.061 C 
ATOM     22  C   UNL     1      32.756  -4.870 -21.365  0.00  0.00    +0.061 C 
ATOM     23  C   UNL     1      32.837 -14.529 -20.756  0.00  0.00    +0.034 C 
ATOM     24  C   UNL     1      35.156 -14.518 -21.759  0.00  0.00    +0.038 C 
ATOM     25  C   UNL     1      34.240 -14.989 -20.704  0.00  0.00    +0.195 C 
ENDROOT
BRANCH  12  26
ATOM     26  O   UNL     1      33.855 -11.352 -25.224  0.00  0.00    -0.384 OA
ATOM     27  H   UNL     1      34.662 -11.324 -25.763  0.00  0.00    +0.210 HD
ENDBRANCH  12  26
BRANCH   7  29
ATOM     28  O   UNL     1      33.883  -6.285 -24.925  0.00  0.00    -0.291 OA
ATOM     29  C   UNL     1      32.754  -6.369 -24.443  0.00  0.00    +0.207 C 
BRANCH  29  30
ATOM     30  C   UNL     1      31.615  -5.475 -24.884  0.00  0.00    +0.204 C 
BRANCH  30  31
ATOM     31  O   UNL     1      31.958  -4.114 -24.722  0.00  0.00    -0.375 OA
ATOM     32  H   UNL     1      31.249  -3.656 -24.244  0.00  0.00    +0.211 HD
ENDBRANCH  30  31
ENDBRANCH  29  30
ENDBRANCH   7  29
TORSDOF 4
ENDMDL
MODEL 5
REMARK VINA RESULT:      -1.1      7.135     10.398
REMARK  Name = 5311066
REMARK  4 active torsions:
REMARK  status: ('A' for Active; 'I' for Inactive)
REMARK    1  A    between atoms: C_7  and  C_29
REMARK    2  A    between atoms: C_12  and  O_26
REMARK    3  A    between atoms: C_29  and  C_30
REMARK    4  A    between atoms: C_30  and  O_31
REMARK                            x       y       z     vdW  Elec       q    Type
REMARK                         _______ _______ _______ _____ _____    ______ ____
ROOT
ATOM      1  O   UNL     1      37.017 -25.748 -15.474  0.00  0.00    -0.330 OA
ATOM      2  O   UNL     1      37.241 -26.965 -13.476  0.00  0.00    -0.334 OA
ATOM      3  O   UNL     1      28.060 -24.869 -16.996  0.00  0.00    -0.287 OA
ATOM      4  C   UNL     1      35.803 -23.863 -14.416  0.00  0.00    +0.034 C 
ATOM      5  C   UNL     1      34.732 -24.855 -13.910  0.00  0.00    +0.005 C 
ATOM      6  C   UNL     1      33.341 -24.228 -13.737  0.00  0.00    +0.003 C 
ATOM      7  C   UNL     1      37.042 -24.799 -14.411  0.00  0.00    +0.173 C 
ATOM      8  C   UNL     1      32.856 -23.700 -15.135  0.00  0.00    +0.034 C 
ATOM      9  C   UNL     1      36.891 -25.626 -13.132  0.00  0.00    +0.149 C 
ATOM     10  C   UNL     1      35.406 -25.535 -12.716  0.00  0.00    +0.033 C 
ATOM     11  C   UNL     1      35.352 -23.358 -15.799  0.00  0.00    +0.032 C 
ATOM     12  C   UNL     1      33.920 -22.778 -15.816  0.00  0.00    +0.111 C 
ATOM     13  C   UNL     1      31.375 -23.153 -15.093  0.00  0.00    +0.036 C 
ATOM     14  C   UNL     1      32.356 -25.261 -13.161  0.00  0.00    +0.004 C 
ATOM     15  C   UNL     1      36.038 -22.672 -13.450  0.00  0.00    +0.003 C 
ATOM     16  C   UNL     1      30.926 -24.738 -13.112  0.00  0.00    +0.022 C 
ATOM     17  C   UNL     1      37.339 -27.019 -14.900  0.00  0.00    +0.188 C 
ATOM     18  C   UNL     1      30.501 -24.249 -14.472  0.00  0.00    -0.038 C 
ATOM     19  C   UNL     1      31.207 -21.867 -14.255  0.00  0.00    +0.009 C 
ATOM     20  C   UNL     1      30.910 -22.809 -16.500  0.00  0.00    -0.020 C 
ATOM     21  C   UNL     1      36.362 -28.071 -15.418  0.00  0.00    +0.061 C 
ATOM     22  C   UNL     1      38.767 -27.387 -15.285  0.00  0.00    +0.061 C 
ATOM     23  C   UNL     1      29.443 -24.796 -15.088  0.00  0.00    +0.034 C 
ATOM     24  C   UNL     1      29.857 -23.353 -17.120  0.00  0.00    +0.038 C 
ATOM     25  C   UNL     1      29.039 -24.377 -16.446  0.00  0.00    +0.195 C 
ENDROOT
BRANCH  12  26
ATOM     26  O   UNL     1      33.933 -21.491 -15.210  0.00  0.00    -0.384 OA
ATOM     27  H   UNL     1      33.353 -21.495 -14.432  0.00  0.00    +0.210 HD
ENDBRANCH  12  26
BRANCH   7  29
ATOM     28  O   UNL     1      38.587 -23.328 -15.476  0.00  0.00    -0.291 OA
ATOM     29  C   UNL     1      38.351 -24.074 -14.526  0.00  0.00    +0.207 C 
BRANCH  29  30
ATOM     30  C   UNL     1      39.350 -24.314 -13.415  0.00  0.00    +0.204 C 
BRANCH  30  31
ATOM     31  O   UNL     1      40.599 -24.708 -13.943  0.00  0.00    -0.375 OA
ATOM     32  H   UNL     1      41.052 -25.284 -13.307  0.00  0.00    +0.211 HD
ENDBRANCH  30  31
ENDBRANCH  29  30
ENDBRANCH   7  29
TORSDOF 4
ENDMDL
