MODEL 1
REMARK VINA RESULT:     -10.5      0.000      0.000
REMARK  Name = 5288514
REMARK  9 active torsions:
REMARK  status: ('A' for Active; 'I' for Inactive)
REMARK    1  A    between atoms: N_2  and  C_5
REMARK    2  A    between atoms: C_3  and  C_22
REMARK    3  A    between atoms: C_10  and  N_12
REMARK    4  A    between atoms: C_13  and  C_15
REMARK    5  A    between atoms: C_15  and  C_16
REMARK    6  A    between atoms: C_16  and  C_17
REMARK    7  A    between atoms: C_17  and  C_19
REMARK    8  A    between atoms: C_19  and  O_20
REMARK    9  A    between atoms: C_22  and  N_25
REMARK                            x       y       z     vdW  Elec       q    Type
REMARK                         _______ _______ _______ _____ _____    ______ ____
ROOT
ATOM      1  O   UNL     1      31.594 -12.741 -22.011  0.00  0.00    -0.277 OA
ATOM      2  N   UNL     1      33.852 -12.793 -22.660  0.00  0.00    -0.285 N 
ATOM      3  C   UNL     1      32.606 -12.208 -22.452  0.00  0.00    +0.211 C 
ATOM      4  H   UNL     1      34.551 -12.205 -23.026  0.00  0.00    +0.155 HD
ENDROOT
BRANCH   2   5
ATOM      5  C   UNL     1      34.229 -14.133 -22.408  0.00  0.00    +0.050 C 
ATOM      6  C   UNL     1      34.511 -14.990 -23.471  0.00  0.00    +0.016 C 
ATOM      7  C   UNL     1      34.317 -14.597 -21.096  0.00  0.00    +0.016 C 
ATOM      8  C   UNL     1      34.881 -16.312 -23.223  0.00  0.00    +0.016 C 
ATOM      9  C   UNL     1      34.689 -15.919 -20.847  0.00  0.00    +0.016 C 
ATOM     10  C   UNL     1      34.971 -16.776 -21.911  0.00  0.00    +0.050 C 
BRANCH  10  12
ATOM     11  O   UNL     1      33.335 -19.106 -20.955  0.00  0.00    -0.275 OA
ATOM     12  N   UNL     1      35.341 -18.098 -21.662  0.00  0.00    -0.284 N 
ATOM     13  C   UNL     1      34.532 -19.156 -21.214  0.00  0.00    +0.226 C 
ATOM     14  H   UNL     1      36.287 -18.316 -21.820  0.00  0.00    +0.155 HD
BRANCH  13  15
ATOM     15  C   UNL     1      35.338 -20.441 -21.073  0.00  0.00    +0.086 C 
BRANCH  15  16
ATOM     16  C   UNL     1      35.386 -20.947 -19.632  0.00  0.00    +0.021 C 
BRANCH  16  17
ATOM     17  C   UNL     1      34.810 -22.351 -19.484  0.00  0.00    +0.110 C 
BRANCH  17  19
ATOM     18  O   UNL     1      33.073 -23.217 -18.049  0.00  0.00    -0.250 OA
ATOM     19  C   UNL     1      33.464 -22.336 -18.802  0.00  0.00    +0.314 C 
BRANCH  19  20
ATOM     20  O   UNL     1      32.719 -21.251 -19.131  0.00  0.00    -0.480 OA
ATOM     21  H   UNL     1      33.056 -20.389 -18.985  0.00  0.00    +0.295 HD
ENDBRANCH  19  20
ENDBRANCH  17  19
ENDBRANCH  16  17
ENDBRANCH  15  16
ENDBRANCH  13  15
ENDBRANCH  10  12
ENDBRANCH   2   5
BRANCH   3  22
ATOM     22  C   UNL     1      32.635 -10.754 -22.855  0.00  0.00    +0.060 C 
BRANCH  22  25
ATOM     23  O   UNL     1      30.726  -5.798 -22.048  0.00  0.00    -0.356 OA
ATOM     24  O   UNL     1      30.328 -10.610 -22.695  0.00  0.00    -0.289 OA
ATOM     25  N   UNL     1      31.495 -10.017 -22.222  0.00  0.00    +0.437 N 
ATOM     26  C   UNL     1      32.475  -7.599 -21.822  0.00  0.00    +0.015 C 
ATOM     27  C   UNL     1      32.113  -6.138 -22.073  0.00  0.00    +0.138 C 
ATOM     28  C   UNL     1      31.376  -5.759 -23.336  0.00  0.00    +0.117 C 
ATOM     29  C   UNL     1      31.438  -8.516 -22.552  0.00  0.00    -0.010 C 
ATOM     30  C   UNL     1      30.832  -6.776 -24.292  0.00  0.00    +0.028 C 
ATOM     31  C   UNL     1      31.356  -8.197 -24.055  0.00  0.00    -0.013 C 
ATOM     32  C   UNL     1      32.414  -7.886 -20.307  0.00  0.00    -0.001 C 
ATOM     33  C   UNL     1      33.935  -7.745 -22.316  0.00  0.00    +0.001 C 
ATOM     34  C   UNL     1      31.498 -10.198 -20.716  0.00  0.00    -0.027 C 
ATOM     35  C   UNL     1      32.550  -9.374 -19.989  0.00  0.00    -0.017 C 
ATOM     36  C   UNL     1      31.519  -4.371 -23.851  0.00  0.00    +0.032 C 
ENDBRANCH  22  25
ENDBRANCH   3  22
TORSDOF 9
ENDMDL
MODEL 2
REMARK VINA RESULT:     -10.5      5.380     14.458
REMARK  Name = 5288514
REMARK  9 active torsions:
REMARK  status: ('A' for Active; 'I' for Inactive)
REMARK    1  A    between atoms: N_2  and  C_5
REMARK    2  A    between atoms: C_3  and  C_22
REMARK    3  A    between atoms: C_10  and  N_12
REMARK    4  A    between atoms: C_13  and  C_15
REMARK    5  A    between atoms: C_15  and  C_16
REMARK    6  A    between atoms: C_16  and  C_17
REMARK    7  A    between atoms: C_17  and  C_19
REMARK    8  A    between atoms: C_19  and  O_20
REMARK    9  A    between atoms: C_22  and  N_25
REMARK                            x       y       z     vdW  Elec       q    Type
REMARK                         _______ _______ _______ _____ _____    ______ ____
ROOT
ATOM      1  O   UNL     1      33.038 -22.839 -16.471  0.00  0.00    -0.277 OA
ATOM      2  N   UNL     1      35.163 -22.908 -17.471  0.00  0.00    -0.285 N 
ATOM      3  C   UNL     1      34.193 -23.246 -16.532  0.00  0.00    +0.211 C 
ATOM      4  H   UNL     1      36.042 -23.336 -17.360  0.00  0.00    +0.155 HD
ENDROOT
BRANCH   2   5
ATOM      5  C   UNL     1      35.032 -22.022 -18.566  0.00  0.00    +0.050 C 
ATOM      6  C   UNL     1      36.166 -21.430 -19.122  0.00  0.00    +0.016 C 
ATOM      7  C   UNL     1      33.771 -21.740 -19.089  0.00  0.00    +0.016 C 
ATOM      8  C   UNL     1      36.038 -20.554 -20.201  0.00  0.00    +0.016 C 
ATOM      9  C   UNL     1      33.642 -20.865 -20.168  0.00  0.00    +0.016 C 
ATOM     10  C   UNL     1      34.776 -20.273 -20.724  0.00  0.00    +0.050 C 
BRANCH  10  12
ATOM     11  O   UNL     1      35.326 -17.327 -20.914  0.00  0.00    -0.275 OA
ATOM     12  N   UNL     1      34.647 -19.398 -21.803  0.00  0.00    -0.284 N 
ATOM     13  C   UNL     1      34.921 -18.019 -21.840  0.00  0.00    +0.226 C 
ATOM     14  H   UNL     1      34.325 -19.795 -22.643  0.00  0.00    +0.155 HD
BRANCH  13  15
ATOM     15  C   UNL     1      34.644 -17.442 -23.222  0.00  0.00    +0.086 C 
BRANCH  15  16
ATOM     16  C   UNL     1      35.056 -15.975 -23.337  0.00  0.00    +0.021 C 
BRANCH  16  17
ATOM     17  C   UNL     1      33.858 -15.033 -23.407  0.00  0.00    +0.110 C 
BRANCH  17  19
ATOM     18  O   UNL     1      32.131 -14.565 -21.787  0.00  0.00    -0.250 OA
ATOM     19  C   UNL     1      33.320 -14.708 -22.036  0.00  0.00    +0.314 C 
BRANCH  19  20
ATOM     20  O   UNL     1      34.298 -14.563 -21.107  0.00  0.00    -0.480 OA
ATOM     21  H   UNL     1      34.262 -13.855 -20.495  0.00  0.00    +0.295 HD
ENDBRANCH  19  20
ENDBRANCH  17  19
ENDBRANCH  16  17
ENDBRANCH  15  16
ENDBRANCH  13  15
ENDBRANCH  10  12
ENDBRANCH   2   5
BRANCH   3  22
ATOM     22  C   UNL     1      34.750 -24.228 -15.531  0.00  0.00    +0.060 C 
BRANCH  22  25
ATOM     23  O   UNL     1      39.376 -24.656 -12.834  0.00  0.00    -0.356 OA
ATOM     24  O   UNL     1      35.750 -22.211 -14.981  0.00  0.00    -0.289 OA
ATOM     25  N   UNL     1      35.598 -23.516 -14.521  0.00  0.00    +0.437 N 
ATOM     26  C   UNL     1      37.075 -25.446 -13.493  0.00  0.00    +0.015 C 
ATOM     27  C   UNL     1      38.536 -25.757 -13.183  0.00  0.00    +0.138 C 
ATOM     28  C   UNL     1      39.617 -25.268 -14.118  0.00  0.00    +0.117 C 
ATOM     29  C   UNL     1      36.998 -24.120 -14.319  0.00  0.00    -0.010 C 
ATOM     30  C   UNL     1      39.338 -24.343 -15.264  0.00  0.00    +0.028 C 
ATOM     31  C   UNL     1      37.850 -24.196 -15.598  0.00  0.00    -0.013 C 
ATOM     32  C   UNL     1      36.303 -25.255 -12.170  0.00  0.00    -0.001 C 
ATOM     33  C   UNL     1      36.540 -26.702 -14.224  0.00  0.00    +0.001 C 
ATOM     34  C   UNL     1      34.892 -23.429 -13.182  0.00  0.00    -0.027 C 
ATOM     35  C   UNL     1      34.886 -24.729 -12.392  0.00  0.00    -0.017 C 
ATOM     36  C   UNL     1      40.909 -26.003 -14.156  0.00  0.00    +0.032 C 
ENDBRANCH  22  25
ENDBRANCH   3  22
TORSDOF 9
ENDMDL
MODEL 3
REMARK VINA RESULT:     -10.3      2.864      4.196
REMARK  Name = 5288514
REMARK  9 active torsions:
REMARK  status: ('A' for Active; 'I' for Inactive)
REMARK    1  A    between atoms: N_2  and  C_5
REMARK    2  A    between atoms: C_3  and  C_22
REMARK    3  A    between atoms: C_10  and  N_12
REMARK    4  A    between atoms: C_13  and  C_15
REMARK    5  A    between atoms: C_15  and  C_16
REMARK    6  A    between atoms: C_16  and  C_17
REMARK    7  A    between atoms: C_17  and  C_19
REMARK    8  A    between atoms: C_19  and  O_20
REMARK    9  A    between atoms: C_22  and  N_25
REMARK                            x       y       z     vdW  Elec       q    Type
REMARK                         _______ _______ _______ _____ _____    ______ ____
ROOT
ATOM      1  O   UNL     1      32.312  -9.541 -20.456  0.00  0.00    -0.277 OA
ATOM      2  N   UNL     1      31.941 -10.437 -22.596  0.00  0.00    -0.285 N 
ATOM      3  C   UNL     1      31.932  -9.447 -21.618  0.00  0.00    +0.211 C 
ATOM      4  H   UNL     1      31.593 -10.178 -23.480  0.00  0.00    +0.155 HD
ENDROOT
BRANCH   2   5
ATOM      5  C   UNL     1      32.391 -11.773 -22.468  0.00  0.00    +0.050 C 
ATOM      6  C   UNL     1      33.332 -12.280 -23.364  0.00  0.00    +0.016 C 
ATOM      7  C   UNL     1      31.894 -12.581 -21.447  0.00  0.00    +0.016 C 
ATOM      8  C   UNL     1      33.775 -13.597 -23.239  0.00  0.00    +0.016 C 
ATOM      9  C   UNL     1      32.337 -13.898 -21.321  0.00  0.00    +0.016 C 
ATOM     10  C   UNL     1      33.278 -14.405 -22.217  0.00  0.00    +0.050 C 
BRANCH  10  12
ATOM     11  O   UNL     1      34.976 -15.694 -20.101  0.00  0.00    -0.275 OA
ATOM     12  N   UNL     1      33.721 -15.723 -22.092  0.00  0.00    -0.284 N 
ATOM     13  C   UNL     1      34.517 -16.278 -21.076  0.00  0.00    +0.226 C 
ATOM     14  H   UNL     1      33.440 -16.340 -22.805  0.00  0.00    +0.155 HD
BRANCH  13  15
ATOM     15  C   UNL     1      34.769 -17.759 -21.325  0.00  0.00    +0.086 C 
BRANCH  15  16
ATOM     16  C   UNL     1      35.772 -18.002 -22.453  0.00  0.00    +0.021 C 
BRANCH  16  17
ATOM     17  C   UNL     1      35.139 -18.681 -23.663  0.00  0.00    +0.110 C 
BRANCH  17  19
ATOM     18  O   UNL     1      33.998 -17.924 -25.651  0.00  0.00    -0.250 OA
ATOM     19  C   UNL     1      34.776 -17.686 -24.737  0.00  0.00    +0.314 C 
BRANCH  19  20
ATOM     20  O   UNL     1      35.423 -16.502 -24.600  0.00  0.00    -0.480 OA
ATOM     21  H   UNL     1      35.053 -15.825 -24.068  0.00  0.00    +0.295 HD
ENDBRANCH  19  20
ENDBRANCH  17  19
ENDBRANCH  16  17
ENDBRANCH  15  16
ENDBRANCH  13  15
ENDBRANCH  10  12
ENDBRANCH   2   5
BRANCH   3  22
ATOM     22  C   UNL     1      31.368  -8.163 -22.176  0.00  0.00    +0.060 C 
BRANCH  22  25
ATOM     23  O   UNL     1      32.422  -3.185 -23.899  0.00  0.00    -0.356 OA
ATOM     24  O   UNL     1      32.547  -6.841 -20.681  0.00  0.00    -0.289 OA
ATOM     25  N   UNL     1      32.369  -7.056 -22.045  0.00  0.00    +0.437 N 
ATOM     26  C   UNL     1      32.017  -5.649 -24.250  0.00  0.00    +0.015 C 
ATOM     27  C   UNL     1      31.804  -4.203 -24.689  0.00  0.00    +0.138 C 
ATOM     28  C   UNL     1      30.984  -3.275 -23.824  0.00  0.00    +0.117 C 
ATOM     29  C   UNL     1      31.943  -5.726 -22.689  0.00  0.00    -0.010 C 
ATOM     30  C   UNL     1      30.496  -3.658 -22.460  0.00  0.00    +0.028 C 
ATOM     31  C   UNL     1      30.618  -5.154 -22.153  0.00  0.00    -0.013 C 
ATOM     32  C   UNL     1      33.413  -6.120 -24.707  0.00  0.00    -0.001 C 
ATOM     33  C   UNL     1      30.930  -6.462 -24.995  0.00  0.00    +0.001 C 
ATOM     34  C   UNL     1      33.717  -7.472 -22.602  0.00  0.00    -0.027 C 
ATOM     35  C   UNL     1      33.791  -7.479 -24.122  0.00  0.00    -0.017 C 
ATOM     36  C   UNL     1      30.315  -2.112 -24.467  0.00  0.00    +0.032 C 
ENDBRANCH  22  25
ENDBRANCH   3  22
TORSDOF 9
ENDMDL
MODEL 4
REMARK VINA RESULT:     -10.2      5.546     13.985
REMARK  Name = 5288514
REMARK  9 active torsions:
REMARK  status: ('A' for Active; 'I' for Inactive)
REMARK    1  A    between atoms: N_2  and  C_5
REMARK    2  A    between atoms: C_3  and  C_22
REMARK    3  A    between atoms: C_10  and  N_12
REMARK    4  A    between atoms: C_13  and  C_15
REMARK    5  A    between atoms: C_15  and  C_16
REMARK    6  A    between atoms: C_16  and  C_17
REMARK    7  A    between atoms: C_17  and  C_19
REMARK    8  A    between atoms: C_19  and  O_20
REMARK    9  A    between atoms: C_22  and  N_25
REMARK                            x       y       z     vdW  Elec       q    Type
REMARK                         _______ _______ _______ _____ _____    ______ ____
ROOT
ATOM      1  O   UNL     1      33.064 -22.515 -17.481  0.00  0.00    -0.277 OA
ATOM      2  N   UNL     1      35.256 -22.333 -18.307  0.00  0.00    -0.285 N 
ATOM      3  C   UNL     1      34.249 -22.828 -17.483  0.00  0.00    +0.211 C 
ATOM      4  H   UNL     1      36.156 -22.703 -18.163  0.00  0.00    +0.155 HD
ENDROOT
BRANCH   2   5
ATOM      5  C   UNL     1      35.135 -21.359 -19.327  0.00  0.00    +0.050 C 
ATOM      6  C   UNL     1      33.878 -21.032 -19.833  0.00  0.00    +0.016 C 
ATOM      7  C   UNL     1      36.274 -20.728 -19.827  0.00  0.00    +0.016 C 
ATOM      8  C   UNL     1      33.758 -20.073 -20.840  0.00  0.00    +0.016 C 
ATOM      9  C   UNL     1      36.155 -19.769 -20.833  0.00  0.00    +0.016 C 
ATOM     10  C   UNL     1      34.897 -19.441 -21.339  0.00  0.00    +0.050 C 
BRANCH  10  12
ATOM     11  O   UNL     1      34.978 -19.738 -24.326  0.00  0.00    -0.275 OA
ATOM     12  N   UNL     1      34.778 -18.483 -22.345  0.00  0.00    -0.284 N 
ATOM     13  C   UNL     1      34.822 -18.675 -23.737  0.00  0.00    +0.226 C 
ATOM     14  H   UNL     1      34.647 -17.556 -22.043  0.00  0.00    +0.155 HD
BRANCH  13  15
ATOM     15  C   UNL     1      34.651 -17.356 -24.479  0.00  0.00    +0.086 C 
BRANCH  15  16
ATOM     16  C   UNL     1      35.002 -16.146 -23.613  0.00  0.00    +0.021 C 
BRANCH  16  17
ATOM     17  C   UNL     1      33.826 -15.192 -23.434  0.00  0.00    +0.110 C 
BRANCH  17  19
ATOM     18  O   UNL     1      33.706 -15.975 -21.153  0.00  0.00    -0.250 OA
ATOM     19  C   UNL     1      33.241 -15.279 -22.046  0.00  0.00    +0.314 C 
BRANCH  19  20
ATOM     20  O   UNL     1      32.125 -14.522 -21.895  0.00  0.00    -0.480 OA
ATOM     21  H   UNL     1      31.807 -14.323 -21.037  0.00  0.00    +0.295 HD
ENDBRANCH  19  20
ENDBRANCH  17  19
ENDBRANCH  16  17
ENDBRANCH  15  16
ENDBRANCH  13  15
ENDBRANCH  10  12
ENDBRANCH   2   5
BRANCH   3  22
ATOM     22  C   UNL     1      34.809 -23.856 -16.530  0.00  0.00    +0.060 C 
BRANCH  22  25
ATOM     23  O   UNL     1      38.739 -24.427 -12.913  0.00  0.00    -0.356 OA
ATOM     24  O   UNL     1      35.693 -21.870 -15.728  0.00  0.00    -0.289 OA
ATOM     25  N   UNL     1      35.428 -23.182 -15.345  0.00  0.00    +0.437 N 
ATOM     26  C   UNL     1      36.624 -25.161 -14.072  0.00  0.00    +0.015 C 
ATOM     27  C   UNL     1      37.980 -25.505 -13.463  0.00  0.00    +0.138 C 
ATOM     28  C   UNL     1      39.243 -25.015 -14.131  0.00  0.00    +0.117 C 
ATOM     29  C   UNL     1      36.744 -23.815 -14.861  0.00  0.00    -0.010 C 
ATOM     30  C   UNL     1      39.230 -24.060 -15.286  0.00  0.00    +0.028 C 
ATOM     31  C   UNL     1      37.851 -23.878 -15.929  0.00  0.00    -0.013 C 
ATOM     32  C   UNL     1      35.588 -24.985 -12.942  0.00  0.00    -0.001 C 
ATOM     33  C   UNL     1      36.243 -26.390 -14.933  0.00  0.00    +0.001 C 
ATOM     34  C   UNL     1      34.451 -23.111 -14.187  0.00  0.00    -0.027 C 
ATOM     35  C   UNL     1      34.259 -24.428 -13.449  0.00  0.00    -0.017 C 
ATOM     36  C   UNL     1      40.503 -25.772 -13.909  0.00  0.00    +0.032 C 
ENDBRANCH  22  25
ENDBRANCH   3  22
TORSDOF 9
ENDMDL
MODEL 5
REMARK VINA RESULT:     -10.0      7.201     14.526
REMARK  Name = 5288514
REMARK  9 active torsions:
REMARK  status: ('A' for Active; 'I' for Inactive)
REMARK    1  A    between atoms: N_2  and  C_5
REMARK    2  A    between atoms: C_3  and  C_22
REMARK    3  A    between atoms: C_10  and  N_12
REMARK    4  A    between atoms: C_13  and  C_15
REMARK    5  A    between atoms: C_15  and  C_16
REMARK    6  A    between atoms: C_16  and  C_17
REMARK    7  A    between atoms: C_17  and  C_19
REMARK    8  A    between atoms: C_19  and  O_20
REMARK    9  A    between atoms: C_22  and  N_25
REMARK                            x       y       z     vdW  Elec       q    Type
REMARK                         _______ _______ _______ _____ _____    ______ ____
ROOT
ATOM      1  O   UNL     1      33.068 -23.012 -16.604  0.00  0.00    -0.277 OA
ATOM      2  N   UNL     1      35.322 -22.917 -17.261  0.00  0.00    -0.285 N 
ATOM      3  C   UNL     1      34.245 -23.336 -16.486  0.00  0.00    +0.211 C 
ATOM      4  H   UNL     1      36.202 -23.284 -17.016  0.00  0.00    +0.155 HD
ENDROOT
BRANCH   2   5
ATOM      5  C   UNL     1      35.300 -22.026 -18.361  0.00  0.00    +0.050 C 
ATOM      6  C   UNL     1      34.100 -21.764 -19.021  0.00  0.00    +0.016 C 
ATOM      7  C   UNL     1      36.478 -21.411 -18.783  0.00  0.00    +0.016 C 
ATOM      8  C   UNL     1      34.077 -20.887 -20.106  0.00  0.00    +0.016 C 
ATOM      9  C   UNL     1      36.455 -20.533 -19.867  0.00  0.00    +0.016 C 
ATOM     10  C   UNL     1      35.255 -20.271 -20.528  0.00  0.00    +0.050 C 
BRANCH  10  12
ATOM     11  O   UNL     1      35.274 -17.269 -20.601  0.00  0.00    -0.275 OA
ATOM     12  N   UNL     1      35.233 -19.394 -21.612  0.00  0.00    -0.284 N 
ATOM     13  C   UNL     1      35.244 -17.988 -21.593  0.00  0.00    +0.226 C 
ATOM     14  H   UNL     1      35.205 -19.811 -22.503  0.00  0.00    +0.155 HD
BRANCH  13  15
ATOM     15  C   UNL     1      35.210 -17.420 -23.005  0.00  0.00    +0.086 C 
BRANCH  15  16
ATOM     16  C   UNL     1      35.173 -18.510 -24.076  0.00  0.00    +0.021 C 
BRANCH  16  17
ATOM     17  C   UNL     1      34.019 -18.330 -25.056  0.00  0.00    +0.110 C 
BRANCH  17  19
ATOM     18  O   UNL     1      33.064 -16.401 -26.149  0.00  0.00    -0.250 OA
ATOM     19  C   UNL     1      34.056 -16.977 -25.721  0.00  0.00    +0.314 C 
BRANCH  19  20
ATOM     20  O   UNL     1      35.311 -16.471 -25.820  0.00  0.00    -0.480 OA
ATOM     21  H   UNL     1      35.982 -16.767 -25.238  0.00  0.00    +0.295 HD
ENDBRANCH  19  20
ENDBRANCH  17  19
ENDBRANCH  16  17
ENDBRANCH  15  16
ENDBRANCH  13  15
ENDBRANCH  10  12
ENDBRANCH   2   5
BRANCH   3  22
ATOM     22  C   UNL     1      34.709 -24.290 -15.413  0.00  0.00    +0.060 C 
BRANCH  22  25
ATOM     23  O   UNL     1      39.418 -24.681 -12.857  0.00  0.00    -0.356 OA
ATOM     24  O   UNL     1      35.698 -22.266 -14.874  0.00  0.00    -0.289 OA
ATOM     25  N   UNL     1      35.577 -23.577 -14.422  0.00  0.00    +0.437 N 
ATOM     26  C   UNL     1      37.109 -25.496 -13.456  0.00  0.00    +0.015 C 
ATOM     27  C   UNL     1      38.582 -25.790 -13.192  0.00  0.00    +0.138 C 
ATOM     28  C   UNL     1      39.628 -25.278 -14.154  0.00  0.00    +0.117 C 
ATOM     29  C   UNL     1      36.990 -24.163 -14.267  0.00  0.00    -0.010 C 
ATOM     30  C   UNL     1      39.305 -24.346 -15.282  0.00  0.00    +0.028 C 
ATOM     31  C   UNL     1      37.805 -24.216 -15.571  0.00  0.00    -0.013 C 
ATOM     32  C   UNL     1      36.374 -25.328 -12.110  0.00  0.00    -0.001 C 
ATOM     33  C   UNL     1      36.570 -26.752 -14.184  0.00  0.00    +0.001 C 
ATOM     34  C   UNL     1      34.909 -23.511 -13.062  0.00  0.00    -0.027 C 
ATOM     35  C   UNL     1      34.944 -24.818 -12.285  0.00  0.00    -0.017 C 
ATOM     36  C   UNL     1      40.929 -25.995 -14.237  0.00  0.00    +0.032 C 
ENDBRANCH  22  25
ENDBRANCH   3  22
TORSDOF 9
ENDMDL
MODEL 6
REMARK VINA RESULT:      -9.3      5.540     13.986
REMARK  Name = 5288514
REMARK  9 active torsions:
REMARK  status: ('A' for Active; 'I' for Inactive)
REMARK    1  A    between atoms: N_2  and  C_5
REMARK    2  A    between atoms: C_3  and  C_22
REMARK    3  A    between atoms: C_10  and  N_12
REMARK    4  A    between atoms: C_13  and  C_15
REMARK    5  A    between atoms: C_15  and  C_16
REMARK    6  A    between atoms: C_16  and  C_17
REMARK    7  A    between atoms: C_17  and  C_19
REMARK    8  A    between atoms: C_19  and  O_20
REMARK    9  A    between atoms: C_22  and  N_25
REMARK                            x       y       z     vdW  Elec       q    Type
REMARK                         _______ _______ _______ _____ _____    ______ ____
ROOT
ATOM      1  O   UNL     1      32.784 -22.651 -18.244  0.00  0.00    -0.277 OA
ATOM      2  N   UNL     1      35.069 -22.156 -18.479  0.00  0.00    -0.285 N 
ATOM      3  C   UNL     1      33.963 -22.813 -17.948  0.00  0.00    +0.211 C 
ATOM      4  H   UNL     1      35.945 -22.418 -18.114  0.00  0.00    +0.155 HD
ENDROOT
BRANCH   2   5
ATOM      5  C   UNL     1      35.081 -21.156 -19.480  0.00  0.00    +0.050 C 
ATOM      6  C   UNL     1      36.292 -20.611 -19.907  0.00  0.00    +0.016 C 
ATOM      7  C   UNL     1      33.882 -20.714 -20.038  0.00  0.00    +0.016 C 
ATOM      8  C   UNL     1      36.304 -19.624 -20.892  0.00  0.00    +0.016 C 
ATOM      9  C   UNL     1      33.893 -19.727 -21.024  0.00  0.00    +0.016 C 
ATOM     10  C   UNL     1      35.104 -19.183 -21.451  0.00  0.00    +0.050 C 
BRANCH  10  12
ATOM     11  O   UNL     1      34.925 -16.195 -21.213  0.00  0.00    -0.275 OA
ATOM     12  N   UNL     1      35.116 -18.195 -22.437  0.00  0.00    -0.284 N 
ATOM     13  C   UNL     1      35.030 -16.802 -22.272  0.00  0.00    +0.226 C 
ATOM     14  H   UNL     1      35.195 -18.515 -23.364  0.00  0.00    +0.155 HD
BRANCH  13  15
ATOM     15  C   UNL     1      35.080 -16.086 -23.615  0.00  0.00    +0.086 C 
BRANCH  15  16
ATOM     16  C   UNL     1      33.721 -15.521 -24.028  0.00  0.00    +0.021 C 
BRANCH  16  17
ATOM     17  C   UNL     1      33.514 -15.539 -25.539  0.00  0.00    +0.110 C 
BRANCH  17  19
ATOM     18  O   UNL     1      33.437 -13.132 -25.698  0.00  0.00    -0.250 OA
ATOM     19  C   UNL     1      32.996 -14.217 -26.049  0.00  0.00    +0.314 C 
BRANCH  19  20
ATOM     20  O   UNL     1      31.966 -14.356 -26.922  0.00  0.00    -0.480 OA
ATOM     21  H   UNL     1      31.794 -15.188 -27.315  0.00  0.00    +0.295 HD
ENDBRANCH  19  20
ENDBRANCH  17  19
ENDBRANCH  16  17
ENDBRANCH  15  16
ENDBRANCH  13  15
ENDBRANCH  10  12
ENDBRANCH   2   5
BRANCH   3  22
ATOM     22  C   UNL     1      34.396 -23.809 -16.900  0.00  0.00    +0.060 C 
BRANCH  22  25
ATOM     23  O   UNL     1      37.895 -24.144 -12.838  0.00  0.00    -0.356 OA
ATOM     24  O   UNL     1      35.063 -21.774 -16.016  0.00  0.00    -0.289 OA
ATOM     25  N   UNL     1      34.831 -23.098 -15.656  0.00  0.00    +0.437 N 
ATOM     26  C   UNL     1      35.978 -25.001 -14.233  0.00  0.00    +0.015 C 
ATOM     27  C   UNL     1      37.270 -25.265 -13.465  0.00  0.00    +0.138 C 
ATOM     28  C   UNL     1      38.573 -24.704 -13.983  0.00  0.00    +0.117 C 
ATOM     29  C   UNL     1      36.113 -23.653 -15.014  0.00  0.00    -0.010 C 
ATOM     30  C   UNL     1      38.642 -23.754 -15.139  0.00  0.00    +0.028 C 
ATOM     31  C   UNL     1      37.341 -23.654 -15.942  0.00  0.00    -0.013 C 
ATOM     32  C   UNL     1      34.807 -24.884 -13.235  0.00  0.00    -0.001 C 
ATOM     33  C   UNL     1      35.773 -26.253 -15.121  0.00  0.00    +0.001 C 
ATOM     34  C   UNL     1      33.721 -23.081 -14.622  0.00  0.00    -0.027 C 
ATOM     35  C   UNL     1      33.518 -24.406 -13.901  0.00  0.00    -0.017 C 
ATOM     36  C   UNL     1      39.839 -25.387 -13.606  0.00  0.00    +0.032 C 
ENDBRANCH  22  25
ENDBRANCH   3  22
TORSDOF 9
ENDMDL
MODEL 7
REMARK VINA RESULT:      -9.2      1.826      2.879
REMARK  Name = 5288514
REMARK  9 active torsions:
REMARK  status: ('A' for Active; 'I' for Inactive)
REMARK    1  A    between atoms: N_2  and  C_5
REMARK    2  A    between atoms: C_3  and  C_22
REMARK    3  A    between atoms: C_10  and  N_12
REMARK    4  A    between atoms: C_13  and  C_15
REMARK    5  A    between atoms: C_15  and  C_16
REMARK    6  A    between atoms: C_16  and  C_17
REMARK    7  A    between atoms: C_17  and  C_19
REMARK    8  A    between atoms: C_19  and  O_20
REMARK    9  A    between atoms: C_22  and  N_25
REMARK                            x       y       z     vdW  Elec       q    Type
REMARK                         _______ _______ _______ _____ _____    ______ ____
ROOT
ATOM      1  O   UNL     1      33.557 -10.484 -24.556  0.00  0.00    -0.277 OA
ATOM      2  N   UNL     1      32.309 -11.345 -22.761  0.00  0.00    -0.285 N 
ATOM      3  C   UNL     1      32.709 -10.376 -23.677  0.00  0.00    +0.211 C 
ATOM      4  H   UNL     1      31.611 -11.076 -22.122  0.00  0.00    +0.155 HD
ENDROOT
BRANCH   2   5
ATOM      5  C   UNL     1      32.790 -12.671 -22.642  0.00  0.00    +0.050 C 
ATOM      6  C   UNL     1      32.323 -13.492 -21.616  0.00  0.00    +0.016 C 
ATOM      7  C   UNL     1      33.732 -13.156 -23.549  0.00  0.00    +0.016 C 
ATOM      8  C   UNL     1      32.798 -14.798 -21.497  0.00  0.00    +0.016 C 
ATOM      9  C   UNL     1      34.206 -14.462 -23.431  0.00  0.00    +0.016 C 
ATOM     10  C   UNL     1      33.739 -15.283 -22.405  0.00  0.00    +0.050 C 
BRANCH  10  12
ATOM     11  O   UNL     1      35.230 -16.613 -20.162  0.00  0.00    -0.275 OA
ATOM     12  N   UNL     1      34.214 -16.590 -22.286  0.00  0.00    -0.284 N 
ATOM     13  C   UNL     1      34.909 -17.166 -21.209  0.00  0.00    +0.226 C 
ATOM     14  H   UNL     1      34.041 -17.181 -23.052  0.00  0.00    +0.155 HD
BRANCH  13  15
ATOM     15  C   UNL     1      35.244 -18.625 -21.489  0.00  0.00    +0.086 C 
BRANCH  15  16
ATOM     16  C   UNL     1      34.313 -19.591 -20.757  0.00  0.00    +0.021 C 
BRANCH  16  17
ATOM     17  C   UNL     1      35.064 -20.747 -20.105  0.00  0.00    +0.110 C 
BRANCH  17  19
ATOM     18  O   UNL     1      34.467 -22.681 -18.789  0.00  0.00    -0.250 OA
ATOM     19  C   UNL     1      34.120 -21.780 -19.541  0.00  0.00    +0.314 C 
BRANCH  19  20
ATOM     20  O   UNL     1      32.845 -21.623 -19.976  0.00  0.00    -0.480 OA
ATOM     21  H   UNL     1      32.389 -22.345 -20.361  0.00  0.00    +0.295 HD
ENDBRANCH  19  20
ENDBRANCH  17  19
ENDBRANCH  16  17
ENDBRANCH  15  16
ENDBRANCH  13  15
ENDBRANCH  10  12
ENDBRANCH   2   5
BRANCH   3  22
ATOM     22  C   UNL     1      31.941  -9.097 -23.457  0.00  0.00    +0.060 C 
BRANCH  22  25
ATOM     23  O   UNL     1      32.314  -3.806 -22.607  0.00  0.00    -0.356 OA
ATOM     24  O   UNL     1      33.082  -8.495 -21.532  0.00  0.00    -0.289 OA
ATOM     25  N   UNL     1      32.823  -8.061 -22.830  0.00  0.00    +0.437 N 
ATOM     26  C   UNL     1      32.151  -5.841 -24.086  0.00  0.00    +0.015 C 
ATOM     27  C   UNL     1      31.750  -4.401 -23.777  0.00  0.00    +0.138 C 
ATOM     28  C   UNL     1      30.904  -4.109 -22.560  0.00  0.00    +0.117 C 
ATOM     29  C   UNL     1      32.207  -6.655 -22.751  0.00  0.00    -0.010 C 
ATOM     30  C   UNL     1      30.568  -5.151 -21.537  0.00  0.00    +0.028 C 
ATOM     31  C   UNL     1      30.874  -6.584 -21.985  0.00  0.00    -0.013 C 
ATOM     32  C   UNL     1      33.551  -5.851 -24.736  0.00  0.00    -0.001 C 
ATOM     33  C   UNL     1      31.104  -6.341 -25.111  0.00  0.00    +0.001 C 
ATOM     34  C   UNL     1      34.161  -7.984 -23.540  0.00  0.00    -0.027 C 
ATOM     35  C   UNL     1      34.118  -7.263 -24.879  0.00  0.00    -0.017 C 
ATOM     36  C   UNL     1      30.066  -2.880 -22.557  0.00  0.00    +0.032 C 
ENDBRANCH  22  25
ENDBRANCH   3  22
TORSDOF 9
ENDMDL
MODEL 8
REMARK VINA RESULT:      -8.7      4.825      9.162
REMARK  Name = 5288514
REMARK  9 active torsions:
REMARK  status: ('A' for Active; 'I' for Inactive)
REMARK    1  A    between atoms: N_2  and  C_5
REMARK    2  A    between atoms: C_3  and  C_22
REMARK    3  A    between atoms: C_10  and  N_12
REMARK    4  A    between atoms: C_13  and  C_15
REMARK    5  A    between atoms: C_15  and  C_16
REMARK    6  A    between atoms: C_16  and  C_17
REMARK    7  A    between atoms: C_17  and  C_19
REMARK    8  A    between atoms: C_19  and  O_20
REMARK    9  A    between atoms: C_22  and  N_25
REMARK                            x       y       z     vdW  Elec       q    Type
REMARK                         _______ _______ _______ _____ _____    ______ ____
ROOT
ATOM      1  O   UNL     1      32.956 -20.481 -19.739  0.00  0.00    -0.277 OA
ATOM      2  N   UNL     1      35.265 -20.917 -19.731  0.00  0.00    -0.285 N 
ATOM      3  C   UNL     1      34.073 -20.407 -20.238  0.00  0.00    +0.211 C 
ATOM      4  H   UNL     1      36.070 -20.762 -20.276  0.00  0.00    +0.155 HD
ENDROOT
BRANCH   2   5
ATOM      5  C   UNL     1      35.453 -21.634 -18.526  0.00  0.00    +0.050 C 
ATOM      6  C   UNL     1      36.665 -21.541 -17.842  0.00  0.00    +0.016 C 
ATOM      7  C   UNL     1      34.427 -22.433 -18.022  0.00  0.00    +0.016 C 
ATOM      8  C   UNL     1      36.852 -22.248 -16.654  0.00  0.00    +0.016 C 
ATOM      9  C   UNL     1      34.614 -23.140 -16.834  0.00  0.00    +0.016 C 
ATOM     10  C   UNL     1      35.825 -23.047 -16.150  0.00  0.00    +0.050 C 
BRANCH  10  12
ATOM     11  O   UNL     1      36.483 -25.942 -15.693  0.00  0.00    -0.275 OA
ATOM     12  N   UNL     1      36.012 -23.755 -14.962  0.00  0.00    -0.284 N 
ATOM     13  C   UNL     1      36.321 -25.116 -14.802  0.00  0.00    +0.226 C 
ATOM     14  H   UNL     1      35.915 -23.235 -14.132  0.00  0.00    +0.155 HD
BRANCH  13  15
ATOM     15  C   UNL     1      36.438 -25.483 -13.328  0.00  0.00    +0.086 C 
BRANCH  15  16
ATOM     16  C   UNL     1      37.828 -26.003 -12.962  0.00  0.00    +0.021 C 
BRANCH  16  17
ATOM     17  C   UNL     1      38.931 -24.999 -13.278  0.00  0.00    +0.110 C 
BRANCH  17  19
ATOM     18  O   UNL     1      40.988 -25.019 -14.542  0.00  0.00    -0.250 OA
ATOM     19  C   UNL     1      39.914 -25.546 -14.283  0.00  0.00    +0.314 C 
BRANCH  19  20
ATOM     20  O   UNL     1      39.473 -26.674 -14.893  0.00  0.00    -0.480 OA
ATOM     21  H   UNL     1      39.890 -26.978 -15.674  0.00  0.00    +0.295 HD
ENDBRANCH  19  20
ENDBRANCH  17  19
ENDBRANCH  16  17
ENDBRANCH  15  16
ENDBRANCH  13  15
ENDBRANCH  10  12
ENDBRANCH   2   5
BRANCH   3  22
ATOM     22  C   UNL     1      34.318 -19.710 -21.554  0.00  0.00    +0.060 C 
BRANCH  22  25
ATOM     23  O   UNL     1      34.605 -14.450 -22.609  0.00  0.00    -0.356 OA
ATOM     24  O   UNL     1      35.492 -18.463 -19.993  0.00  0.00    -0.289 OA
ATOM     25  N   UNL     1      35.194 -18.511 -21.352  0.00  0.00    +0.437 N 
ATOM     26  C   UNL     1      34.448 -16.875 -23.282  0.00  0.00    +0.015 C 
ATOM     27  C   UNL     1      34.025 -15.422 -23.481  0.00  0.00    +0.138 C 
ATOM     28  C   UNL     1      33.203 -14.733 -22.419  0.00  0.00    +0.117 C 
ATOM     29  C   UNL     1      34.552 -17.172 -21.750  0.00  0.00    -0.010 C 
ATOM     30  C   UNL     1      32.912 -15.357 -21.088  0.00  0.00    +0.028 C 
ATOM     31  C   UNL     1      33.236 -16.853 -21.018  0.00  0.00    -0.013 C 
ATOM     32  C   UNL     1      35.831 -17.096 -23.929  0.00  0.00    -0.001 C 
ATOM     33  C   UNL     1      33.387 -17.711 -24.039  0.00  0.00    +0.001 C 
ATOM     34  C   UNL     1      36.513 -18.672 -22.083  0.00  0.00    -0.027 C 
ATOM     35  C   UNL     1      36.423 -18.462 -23.588  0.00  0.00    -0.017 C 
ATOM     36  C   UNL     1      32.340 -13.589 -22.819  0.00  0.00    +0.032 C 
ENDBRANCH  22  25
ENDBRANCH   3  22
TORSDOF 9
ENDMDL
MODEL 9
REMARK VINA RESULT:      -8.4      2.866     11.550
REMARK  Name = 5288514
REMARK  9 active torsions:
REMARK  status: ('A' for Active; 'I' for Inactive)
REMARK    1  A    between atoms: N_2  and  C_5
REMARK    2  A    between atoms: C_3  and  C_22
REMARK    3  A    between atoms: C_10  and  N_12
REMARK    4  A    between atoms: C_13  and  C_15
REMARK    5  A    between atoms: C_15  and  C_16
REMARK    6  A    between atoms: C_16  and  C_17
REMARK    7  A    between atoms: C_17  and  C_19
REMARK    8  A    between atoms: C_19  and  O_20
REMARK    9  A    between atoms: C_22  and  N_25
REMARK                            x       y       z     vdW  Elec       q    Type
REMARK                         _______ _______ _______ _____ _____    ______ ____
ROOT
ATOM      1  O   UNL     1      31.972 -13.185 -24.277  0.00  0.00    -0.277 OA
ATOM      2  N   UNL     1      32.635 -12.016 -22.351  0.00  0.00    -0.285 N 
ATOM      3  C   UNL     1      32.398 -13.145 -23.128  0.00  0.00    +0.211 C 
ATOM      4  H   UNL     1      32.979 -12.178 -21.443  0.00  0.00    +0.155 HD
ENDROOT
BRANCH   2   5
ATOM      5  C   UNL     1      32.439 -10.661 -22.713  0.00  0.00    +0.050 C 
ATOM      6  C   UNL     1      33.467  -9.950 -23.330  0.00  0.00    +0.016 C 
ATOM      7  C   UNL     1      31.219 -10.039 -22.452  0.00  0.00    +0.016 C 
ATOM      8  C   UNL     1      33.275  -8.614 -23.686  0.00  0.00    +0.016 C 
ATOM      9  C   UNL     1      31.027  -8.704 -22.809  0.00  0.00    +0.016 C 
ATOM     10  C   UNL     1      32.055  -7.993 -23.426  0.00  0.00    +0.050 C 
BRANCH  10  12
ATOM     11  O   UNL     1      31.656  -5.561 -21.710  0.00  0.00    -0.275 OA
ATOM     12  N   UNL     1      31.863  -6.657 -23.782  0.00  0.00    -0.284 N 
ATOM     13  C   UNL     1      31.681  -5.550 -22.935  0.00  0.00    +0.226 C 
ATOM     14  H   UNL     1      31.853  -6.467 -24.747  0.00  0.00    +0.155 HD
BRANCH  13  15
ATOM     15  C   UNL     1      31.505  -4.268 -23.738  0.00  0.00    +0.086 C 
BRANCH  15  16
ATOM     16  C   UNL     1      31.346  -4.531 -25.235  0.00  0.00    +0.021 C 
BRANCH  16  17
ATOM     17  C   UNL     1      32.461  -3.901 -26.063  0.00  0.00    +0.110 C 
BRANCH  17  19
ATOM     18  O   UNL     1      34.067  -5.701 -25.984  0.00  0.00    -0.250 OA
ATOM     19  C   UNL     1      33.377  -4.944 -26.653  0.00  0.00    +0.314 C 
BRANCH  19  20
ATOM     20  O   UNL     1      33.378  -4.939 -28.009  0.00  0.00    -0.480 OA
ATOM     21  H   UNL     1      32.808  -4.361 -28.476  0.00  0.00    +0.295 HD
ENDBRANCH  19  20
ENDBRANCH  17  19
ENDBRANCH  16  17
ENDBRANCH  15  16
ENDBRANCH  13  15
ENDBRANCH  10  12
ENDBRANCH   2   5
BRANCH   3  22
ATOM     22  C   UNL     1      32.741 -14.396 -22.357  0.00  0.00    +0.060 C 
BRANCH  22  25
ATOM     23  O   UNL     1      36.158 -18.416 -23.365  0.00  0.00    -0.356 OA
ATOM     24  O   UNL     1      34.728 -13.758 -23.364  0.00  0.00    -0.289 OA
ATOM     25  N   UNL     1      34.203 -14.699 -22.482  0.00  0.00    +0.437 N 
ATOM     26  C   UNL     1      34.329 -17.297 -22.039  0.00  0.00    +0.015 C 
ATOM     27  C   UNL     1      34.925 -18.558 -22.659  0.00  0.00    +0.138 C 
ATOM     28  C   UNL     1      34.987 -18.692 -24.162  0.00  0.00    +0.117 C 
ATOM     29  C   UNL     1      34.523 -16.100 -23.028  0.00  0.00    -0.010 C 
ATOM     30  C   UNL     1      34.639 -17.568 -25.090  0.00  0.00    +0.028 C 
ATOM     31  C   UNL     1      33.917 -16.400 -24.410  0.00  0.00    -0.013 C 
ATOM     32  C   UNL     1      35.066 -16.980 -20.721  0.00  0.00    -0.001 C 
ATOM     33  C   UNL     1      32.855 -17.656 -21.731  0.00  0.00    +0.001 C 
ATOM     34  C   UNL     1      34.915 -14.502 -21.157  0.00  0.00    -0.027 C 
ATOM     35  C   UNL     1      34.680 -15.617 -20.149  0.00  0.00    -0.017 C 
ATOM     36  C   UNL     1      35.019 -20.056 -24.752  0.00  0.00    +0.032 C 
ENDBRANCH  22  25
ENDBRANCH   3  22
TORSDOF 9
ENDMDL
