MODEL 1
REMARK VINA RESULT:      -7.3      0.000      0.000
REMARK  Name = 4058
REMARK  4 active torsions:
REMARK  status: ('A' for Active; 'I' for Inactive)
REMARK    1  A    between atoms: C_2  and  C_9
REMARK    2  A    between atoms: C_2  and  C_16
REMARK    3  A    between atoms: C_16  and  O_17
REMARK    4  A    between atoms: O_17  and  C_18
REMARK                            x       y       z     vdW  Elec       q    Type
REMARK                         _______ _______ _______ _____ _____    ______ ____
ROOT
ATOM      1  N   UNL     1      35.962 -20.338 -20.573  0.00  0.00    +0.386 N 
ATOM      2  C   UNL     1      34.788 -18.297 -22.406  0.00  0.00    +0.104 C 
ATOM      3  C   UNL     1      36.309 -18.472 -22.149  0.00  0.00    -0.008 C 
ATOM      4  C   UNL     1      34.129 -19.670 -22.103  0.00  0.00    -0.008 C 
ATOM      5  C   UNL     1      36.607 -19.033 -20.756  0.00  0.00    -0.077 C 
ATOM      6  C   UNL     1      34.507 -20.237 -20.728  0.00  0.00    -0.077 C 
ATOM      7  C   UNL     1      36.302 -20.902 -19.267  0.00  0.00    -0.101 C 
ATOM      8  H   UNL     1      36.312 -20.965 -21.297  0.00  0.00    -0.080 HD
ENDROOT
BRANCH   2   9
ATOM      9  C   UNL     1      34.202 -17.089 -21.659  0.00  0.00    -0.013 C 
ATOM     10  C   UNL     1      35.030 -16.027 -21.305  0.00  0.00    -0.004 C 
ATOM     11  C   UNL     1      32.848 -17.063 -21.341  0.00  0.00    -0.004 C 
ATOM     12  C   UNL     1      34.499 -14.930 -20.627  0.00  0.00    -0.000 C 
ATOM     13  C   UNL     1      32.316 -15.966 -20.662  0.00  0.00    -0.000 C 
ATOM     14  C   UNL     1      33.142 -14.899 -20.305  0.00  0.00    -0.000 C 
ENDBRANCH   2   9
BRANCH   2  16
ATOM     15  O   UNL     1      34.190 -18.902 -24.674  0.00  0.00    -0.250 OA
ATOM     16  C   UNL     1      34.593 -18.055 -23.888  0.00  0.00    +0.320 C 
BRANCH  16  17
ATOM     17  O   UNL     1      34.935 -16.770 -24.189  0.00  0.00    -0.448 OA
BRANCH  17  18
ATOM     18  C   UNL     1      34.122 -16.132 -25.179  0.00  0.00    +0.209 C 
ATOM     19  C   UNL     1      33.477 -14.905 -24.573  0.00  0.00    +0.051 C 
ENDBRANCH  17  18
ENDBRANCH  16  17
ENDBRANCH   2  16
TORSDOF 4
ENDMDL
MODEL 2
REMARK VINA RESULT:      -7.3      7.288      9.958
REMARK  Name = 4058
REMARK  4 active torsions:
REMARK  status: ('A' for Active; 'I' for Inactive)
REMARK    1  A    between atoms: C_2  and  C_9
REMARK    2  A    between atoms: C_2  and  C_16
REMARK    3  A    between atoms: C_16  and  O_17
REMARK    4  A    between atoms: O_17  and  C_18
REMARK                            x       y       z     vdW  Elec       q    Type
REMARK                         _______ _______ _______ _____ _____    ______ ____
ROOT
ATOM      1  N   UNL     1      31.487  -5.889 -22.982  0.00  0.00    +0.386 N 
ATOM      2  C   UNL     1      32.697  -8.615 -22.872  0.00  0.00    +0.104 C 
ATOM      3  C   UNL     1      31.602  -8.182 -23.883  0.00  0.00    -0.008 C 
ATOM      4  C   UNL     1      33.441  -7.319 -22.448  0.00  0.00    -0.008 C 
ATOM      5  C   UNL     1      30.699  -7.075 -23.332  0.00  0.00    -0.077 C 
ATOM      6  C   UNL     1      32.500  -6.206 -21.969  0.00  0.00    -0.077 C 
ATOM      7  C   UNL     1      30.615  -4.810 -22.516  0.00  0.00    -0.101 C 
ATOM      8  H   UNL     1      31.971  -5.575 -23.822  0.00  0.00    -0.080 HD
ENDROOT
BRANCH   2   9
ATOM      9  C   UNL     1      32.134  -9.473 -21.729  0.00  0.00    -0.013 C 
ATOM     10  C   UNL     1      32.414  -9.134 -20.407  0.00  0.00    -0.004 C 
ATOM     11  C   UNL     1      31.348 -10.583 -22.019  0.00  0.00    -0.004 C 
ATOM     12  C   UNL     1      31.903  -9.912 -19.369  0.00  0.00    -0.000 C 
ATOM     13  C   UNL     1      30.836 -11.362 -20.981  0.00  0.00    -0.000 C 
ATOM     14  C   UNL     1      31.114 -11.027 -19.656  0.00  0.00    -0.000 C 
ENDBRANCH   2   9
BRANCH   2  16
ATOM     15  O   UNL     1      34.922  -9.289 -23.553  0.00  0.00    -0.250 OA
ATOM     16  C   UNL     1      33.711  -9.456 -23.618  0.00  0.00    +0.320 C 
BRANCH  16  17
ATOM     17  O   UNL     1      33.063 -10.403 -24.354  0.00  0.00    -0.448 OA
BRANCH  17  18
ATOM     18  C   UNL     1      33.888 -11.454 -24.867  0.00  0.00    +0.209 C 
ATOM     19  C   UNL     1      33.706 -12.687 -24.008  0.00  0.00    +0.051 C 
ENDBRANCH  17  18
ENDBRANCH  16  17
ENDBRANCH   2  16
TORSDOF 4
ENDMDL
MODEL 3
REMARK VINA RESULT:      -6.7      1.818      3.692
REMARK  Name = 4058
REMARK  4 active torsions:
REMARK  status: ('A' for Active; 'I' for Inactive)
REMARK    1  A    between atoms: C_2  and  C_9
REMARK    2  A    between atoms: C_2  and  C_16
REMARK    3  A    between atoms: C_16  and  O_17
REMARK    4  A    between atoms: O_17  and  C_18
REMARK                            x       y       z     vdW  Elec       q    Type
REMARK                         _______ _______ _______ _____ _____    ______ ____
ROOT
ATOM      1  N   UNL     1      35.251 -20.361 -20.118  0.00  0.00    +0.386 N 
ATOM      2  C   UNL     1      34.602 -17.702 -21.308  0.00  0.00    +0.104 C 
ATOM      3  C   UNL     1      33.551 -18.672 -20.702  0.00  0.00    -0.008 C 
ATOM      4  C   UNL     1      35.956 -18.039 -20.625  0.00  0.00    -0.008 C 
ATOM      5  C   UNL     1      33.977 -20.139 -20.810  0.00  0.00    -0.077 C 
ATOM      6  C   UNL     1      36.316 -19.529 -20.688  0.00  0.00    -0.077 C 
ATOM      7  C   UNL     1      35.623 -21.775 -20.166  0.00  0.00    -0.101 C 
ATOM      8  H   UNL     1      35.130 -20.091 -19.142  0.00  0.00    -0.080 HD
ENDROOT
BRANCH   2   9
ATOM      9  C   UNL     1      34.600 -17.719 -22.844  0.00  0.00    -0.013 C 
ATOM     10  C   UNL     1      34.433 -18.924 -23.522  0.00  0.00    -0.004 C 
ATOM     11  C   UNL     1      34.763 -16.532 -23.550  0.00  0.00    -0.004 C 
ATOM     12  C   UNL     1      34.431 -18.941 -24.916  0.00  0.00    -0.000 C 
ATOM     13  C   UNL     1      34.761 -16.548 -24.945  0.00  0.00    -0.000 C 
ATOM     14  C   UNL     1      34.595 -17.753 -25.628  0.00  0.00    -0.000 C 
ENDBRANCH   2   9
BRANCH   2  16
ATOM     15  O   UNL     1      35.043 -15.513 -20.370  0.00  0.00    -0.250 OA
ATOM     16  C   UNL     1      34.246 -16.299 -20.867  0.00  0.00    +0.320 C 
BRANCH  16  17
ATOM     17  O   UNL     1      32.925 -16.066 -21.108  0.00  0.00    -0.448 OA
BRANCH  17  18
ATOM     18  C   UNL     1      32.470 -14.741 -20.817  0.00  0.00    +0.209 C 
ATOM     19  C   UNL     1      32.397 -13.950 -22.105  0.00  0.00    +0.051 C 
ENDBRANCH  17  18
ENDBRANCH  16  17
ENDBRANCH   2  16
TORSDOF 4
ENDMDL
MODEL 4
REMARK VINA RESULT:      -6.6      6.970      9.851
REMARK  Name = 4058
REMARK  4 active torsions:
REMARK  status: ('A' for Active; 'I' for Inactive)
REMARK    1  A    between atoms: C_2  and  C_9
REMARK    2  A    between atoms: C_2  and  C_16
REMARK    3  A    between atoms: C_16  and  O_17
REMARK    4  A    between atoms: O_17  and  C_18
REMARK                            x       y       z     vdW  Elec       q    Type
REMARK                         _______ _______ _______ _____ _____    ______ ____
ROOT
ATOM      1  N   UNL     1      37.339 -25.073 -13.805  0.00  0.00    +0.386 N 
ATOM      2  C   UNL     1      34.899 -23.823 -14.984  0.00  0.00    +0.104 C 
ATOM      3  C   UNL     1      35.237 -25.336 -15.069  0.00  0.00    -0.008 C 
ATOM      4  C   UNL     1      35.630 -23.279 -13.726  0.00  0.00    -0.008 C 
ATOM      5  C   UNL     1      36.744 -25.603 -15.037  0.00  0.00    -0.077 C 
ATOM      6  C   UNL     1      37.124 -23.626 -13.692  0.00  0.00    -0.077 C 
ATOM      7  C   UNL     1      38.767 -25.387 -13.747  0.00  0.00    -0.101 C 
ATOM      8  H   UNL     1      36.876 -25.522 -13.015  0.00  0.00    -0.080 HD
ENDROOT
BRANCH   2   9
ATOM      9  C   UNL     1      35.183 -23.084 -16.300  0.00  0.00    -0.013 C 
ATOM     10  C   UNL     1      34.231 -23.090 -17.316  0.00  0.00    -0.004 C 
ATOM     11  C   UNL     1      36.390 -22.412 -16.470  0.00  0.00    -0.004 C 
ATOM     12  C   UNL     1      34.488 -22.419 -18.512  0.00  0.00    -0.000 C 
ATOM     13  C   UNL     1      36.648 -21.741 -17.666  0.00  0.00    -0.000 C 
ATOM     14  C   UNL     1      35.696 -21.744 -18.687  0.00  0.00    -0.000 C 
ENDBRANCH   2   9
BRANCH   2  16
ATOM     15  O   UNL     1      32.809 -22.631 -14.703  0.00  0.00    -0.250 OA
ATOM     16  C   UNL     1      33.418 -23.693 -14.699  0.00  0.00    +0.320 C 
BRANCH  16  17
ATOM     17  O   UNL     1      32.894 -24.925 -14.441  0.00  0.00    -0.448 OA
BRANCH  17  18
ATOM     18  C   UNL     1      31.693 -24.933 -13.662  0.00  0.00    +0.209 C 
ATOM     19  C   UNL     1      30.532 -25.329 -14.548  0.00  0.00    +0.051 C 
ENDBRANCH  17  18
ENDBRANCH  16  17
ENDBRANCH   2  16
TORSDOF 4
ENDMDL
MODEL 5
REMARK VINA RESULT:      -6.6      7.625     10.641
REMARK  Name = 4058
REMARK  4 active torsions:
REMARK  status: ('A' for Active; 'I' for Inactive)
REMARK    1  A    between atoms: C_2  and  C_9
REMARK    2  A    between atoms: C_2  and  C_16
REMARK    3  A    between atoms: C_16  and  O_17
REMARK    4  A    between atoms: O_17  and  C_18
REMARK                            x       y       z     vdW  Elec       q    Type
REMARK                         _______ _______ _______ _____ _____    ______ ____
ROOT
ATOM      1  N   UNL     1      31.204  -5.895 -23.747  0.00  0.00    +0.386 N 
ATOM      2  C   UNL     1      32.213  -8.361 -22.402  0.00  0.00    +0.104 C 
ATOM      3  C   UNL     1      32.735  -6.928 -22.111  0.00  0.00    -0.008 C 
ATOM      4  C   UNL     1      30.767  -8.201 -22.946  0.00  0.00    -0.008 C 
ATOM      5  C   UNL     1      32.604  -6.000 -23.322  0.00  0.00    -0.077 C 
ATOM      6  C   UNL     1      30.662  -7.209 -24.112  0.00  0.00    -0.077 C 
ATOM      7  C   UNL     1      31.073  -4.957 -24.861  0.00  0.00    -0.101 C 
ATOM      8  H   UNL     1      30.663  -5.540 -22.959  0.00  0.00    -0.080 HD
ENDROOT
BRANCH   2   9
ATOM      9  C   UNL     1      33.178  -9.169 -23.282  0.00  0.00    -0.013 C 
ATOM     10  C   UNL     1      32.873 -10.486 -23.616  0.00  0.00    -0.004 C 
ATOM     11  C   UNL     1      34.352  -8.581 -23.743  0.00  0.00    -0.004 C 
ATOM     12  C   UNL     1      33.748 -11.221 -24.415  0.00  0.00    -0.000 C 
ATOM     13  C   UNL     1      35.229  -9.315 -24.543  0.00  0.00    -0.000 C 
ATOM     14  C   UNL     1      34.927 -10.635 -24.879  0.00  0.00    -0.000 C 
ENDBRANCH   2   9
BRANCH   2  16
ATOM     15  O   UNL     1      32.710  -8.785 -20.070  0.00  0.00    -0.250 OA
ATOM     16  C   UNL     1      32.087  -9.086 -21.079  0.00  0.00    +0.320 C 
BRANCH  16  17
ATOM     17  O   UNL     1      31.189 -10.105 -21.202  0.00  0.00    -0.448 OA
BRANCH  17  18
ATOM     18  C   UNL     1      31.144 -11.021 -20.102  0.00  0.00    +0.209 C 
ATOM     19  C   UNL     1      31.878 -12.288 -20.485  0.00  0.00    +0.051 C 
ENDBRANCH  17  18
ENDBRANCH  16  17
ENDBRANCH   2  16
TORSDOF 4
ENDMDL
MODEL 6
REMARK VINA RESULT:      -6.4      8.094      9.963
REMARK  Name = 4058
REMARK  4 active torsions:
REMARK  status: ('A' for Active; 'I' for Inactive)
REMARK    1  A    between atoms: C_2  and  C_9
REMARK    2  A    between atoms: C_2  and  C_16
REMARK    3  A    between atoms: C_16  and  O_17
REMARK    4  A    between atoms: O_17  and  C_18
REMARK                            x       y       z     vdW  Elec       q    Type
REMARK                         _______ _______ _______ _____ _____    ______ ____
ROOT
ATOM      1  N   UNL     1      31.266 -10.147 -20.100  0.00  0.00    +0.386 N 
ATOM      2  C   UNL     1      31.699  -8.659 -22.651  0.00  0.00    +0.104 C 
ATOM      3  C   UNL     1      30.675  -9.813 -22.471  0.00  0.00    -0.008 C 
ATOM      4  C   UNL     1      31.921  -8.046 -21.241  0.00  0.00    -0.008 C 
ATOM      5  C   UNL     1      31.103 -10.815 -21.396  0.00  0.00    -0.077 C 
ATOM      6  C   UNL     1      32.279  -9.088 -20.173  0.00  0.00    -0.077 C 
ATOM      7  C   UNL     1      31.611 -11.117 -19.061  0.00  0.00    -0.101 C 
ATOM      8  H   UNL     1      30.376  -9.714 -19.856  0.00  0.00    -0.080 HD
ENDROOT
BRANCH   2   9
ATOM      9  C   UNL     1      32.963  -9.109 -23.397  0.00  0.00    -0.013 C 
ATOM     10  C   UNL     1      33.034 -10.394 -23.928  0.00  0.00    -0.004 C 
ATOM     11  C   UNL     1      34.032  -8.229 -23.541  0.00  0.00    -0.004 C 
ATOM     12  C   UNL     1      34.182 -10.803 -24.606  0.00  0.00    -0.000 C 
ATOM     13  C   UNL     1      35.181  -8.638 -24.219  0.00  0.00    -0.000 C 
ATOM     14  C   UNL     1      35.256  -9.925 -24.751  0.00  0.00    -0.000 C 
ENDBRANCH   2   9
BRANCH   2  16
ATOM     15  O   UNL     1      30.454  -7.785 -24.535  0.00  0.00    -0.250 OA
ATOM     16  C   UNL     1      31.039  -7.578 -23.480  0.00  0.00    +0.320 C 
BRANCH  16  17
ATOM     17  O   UNL     1      31.205  -6.371 -22.870  0.00  0.00    -0.448 OA
BRANCH  17  18
ATOM     18  C   UNL     1      31.008  -5.226 -23.707  0.00  0.00    +0.209 C 
ATOM     19  C   UNL     1      32.223  -5.048 -24.593  0.00  0.00    +0.051 C 
ENDBRANCH  17  18
ENDBRANCH  16  17
ENDBRANCH   2  16
TORSDOF 4
ENDMDL
MODEL 7
REMARK VINA RESULT:      -6.4      6.560      9.301
REMARK  Name = 4058
REMARK  4 active torsions:
REMARK  status: ('A' for Active; 'I' for Inactive)
REMARK    1  A    between atoms: C_2  and  C_9
REMARK    2  A    between atoms: C_2  and  C_16
REMARK    3  A    between atoms: C_16  and  O_17
REMARK    4  A    between atoms: O_17  and  C_18
REMARK                            x       y       z     vdW  Elec       q    Type
REMARK                         _______ _______ _______ _____ _____    ______ ____
ROOT
ATOM      1  N   UNL     1      36.923 -24.406 -13.690  0.00  0.00    +0.386 N 
ATOM      2  C   UNL     1      34.678 -23.800 -15.561  0.00  0.00    +0.104 C 
ATOM      3  C   UNL     1      35.620 -22.730 -14.946  0.00  0.00    -0.008 C 
ATOM      4  C   UNL     1      35.472 -25.135 -15.563  0.00  0.00    -0.008 C 
ATOM      5  C   UNL     1      36.173 -23.150 -13.581  0.00  0.00    -0.077 C 
ATOM      6  C   UNL     1      36.073 -25.489 -14.196  0.00  0.00    -0.077 C 
ATOM      7  C   UNL     1      37.505 -24.771 -12.398  0.00  0.00    -0.101 C 
ATOM      8  H   UNL     1      37.680 -24.263 -14.358  0.00  0.00    -0.080 HD
ENDROOT
BRANCH   2   9
ATOM      9  C   UNL     1      33.304 -23.835 -14.876  0.00  0.00    -0.013 C 
ATOM     10  C   UNL     1      32.916 -24.965 -14.160  0.00  0.00    -0.004 C 
ATOM     11  C   UNL     1      32.454 -22.738 -14.974  0.00  0.00    -0.004 C 
ATOM     12  C   UNL     1      31.668 -24.997 -13.538  0.00  0.00    -0.000 C 
ATOM     13  C   UNL     1      31.205 -22.769 -14.351  0.00  0.00    -0.000 C 
ATOM     14  C   UNL     1      30.812 -23.900 -13.634  0.00  0.00    -0.000 C 
ENDBRANCH   2   9
BRANCH   2  16
ATOM     15  O   UNL     1      33.550 -23.897 -17.702  0.00  0.00    -0.250 OA
ATOM     16  C   UNL     1      34.455 -23.442 -17.014  0.00  0.00    +0.320 C 
BRANCH  16  17
ATOM     17  O   UNL     1      35.407 -22.553 -17.416  0.00  0.00    -0.448 OA
BRANCH  17  18
ATOM     18  C   UNL     1      35.245 -22.035 -18.741  0.00  0.00    +0.209 C 
ATOM     19  C   UNL     1      36.506 -21.297 -19.139  0.00  0.00    +0.051 C 
ENDBRANCH  17  18
ENDBRANCH  16  17
ENDBRANCH   2  16
TORSDOF 4
ENDMDL
MODEL 8
REMARK VINA RESULT:      -6.3      8.440     11.073
REMARK  Name = 4058
REMARK  4 active torsions:
REMARK  status: ('A' for Active; 'I' for Inactive)
REMARK    1  A    between atoms: C_2  and  C_9
REMARK    2  A    between atoms: C_2  and  C_16
REMARK    3  A    between atoms: C_16  and  O_17
REMARK    4  A    between atoms: O_17  and  C_18
REMARK                            x       y       z     vdW  Elec       q    Type
REMARK                         _______ _______ _______ _____ _____    ______ ____
ROOT
ATOM      1  N   UNL     1      34.201  -9.993 -24.214  0.00  0.00    +0.386 N 
ATOM      2  C   UNL     1      32.822  -7.697 -22.898  0.00  0.00    +0.104 C 
ATOM      3  C   UNL     1      32.139  -9.047 -23.247  0.00  0.00    -0.008 C 
ATOM      4  C   UNL     1      34.339  -7.997 -22.751  0.00  0.00    -0.008 C 
ATOM      5  C   UNL     1      32.778  -9.733 -24.457  0.00  0.00    -0.077 C 
ATOM      6  C   UNL     1      34.931  -8.748 -23.951  0.00  0.00    -0.077 C 
ATOM      7  C   UNL     1      34.794 -10.707 -25.346  0.00  0.00    -0.101 C 
ATOM      8  H   UNL     1      34.275 -10.582 -23.385  0.00  0.00    -0.080 HD
ENDROOT
BRANCH   2   9
ATOM      9  C   UNL     1      32.449  -6.580 -23.884  0.00  0.00    -0.013 C 
ATOM     10  C   UNL     1      31.183  -6.003 -23.830  0.00  0.00    -0.004 C 
ATOM     11  C   UNL     1      33.378  -6.149 -24.826  0.00  0.00    -0.004 C 
ATOM     12  C   UNL     1      30.843  -4.988 -24.724  0.00  0.00    -0.000 C 
ATOM     13  C   UNL     1      33.039  -5.134 -25.722  0.00  0.00    -0.000 C 
ATOM     14  C   UNL     1      31.771  -4.554 -25.671  0.00  0.00    -0.000 C 
ENDBRANCH   2   9
BRANCH   2  16
ATOM     15  O   UNL     1      32.549  -6.171 -21.037  0.00  0.00    -0.250 OA
ATOM     16  C   UNL     1      32.341  -7.274 -21.527  0.00  0.00    +0.320 C 
BRANCH  16  17
ATOM     17  O   UNL     1      31.661  -8.302 -20.945  0.00  0.00    -0.448 OA
BRANCH  17  18
ATOM     18  C   UNL     1      32.181  -8.754 -19.691  0.00  0.00    +0.209 C 
ATOM     19  C   UNL     1      31.547 -10.083 -19.343  0.00  0.00    +0.051 C 
ENDBRANCH  17  18
ENDBRANCH  16  17
ENDBRANCH   2  16
TORSDOF 4
ENDMDL
MODEL 9
REMARK VINA RESULT:      -6.3      2.307      5.074
REMARK  Name = 4058
REMARK  4 active torsions:
REMARK  status: ('A' for Active; 'I' for Inactive)
REMARK    1  A    between atoms: C_2  and  C_9
REMARK    2  A    between atoms: C_2  and  C_16
REMARK    3  A    between atoms: C_16  and  O_17
REMARK    4  A    between atoms: O_17  and  C_18
REMARK                            x       y       z     vdW  Elec       q    Type
REMARK                         _______ _______ _______ _____ _____    ______ ____
ROOT
ATOM      1  N   UNL     1      33.079 -14.973 -20.382  0.00  0.00    +0.386 N 
ATOM      2  C   UNL     1      34.386 -17.468 -21.369  0.00  0.00    +0.104 C 
ATOM      3  C   UNL     1      35.152 -16.247 -20.792  0.00  0.00    -0.008 C 
ATOM      4  C   UNL     1      32.959 -17.421 -20.759  0.00  0.00    -0.008 C 
ATOM      5  C   UNL     1      34.404 -14.929 -21.011  0.00  0.00    -0.077 C 
ATOM      6  C   UNL     1      32.266 -16.063 -20.934  0.00  0.00    -0.077 C 
ATOM      7  C   UNL     1      32.393 -13.691 -20.537  0.00  0.00    -0.101 C 
ATOM      8  H   UNL     1      33.210 -15.153 -19.387  0.00  0.00    -0.080 HD
ENDROOT
BRANCH   2   9
ATOM      9  C   UNL     1      34.462 -17.537 -22.902  0.00  0.00    -0.013 C 
ATOM     10  C   UNL     1      34.458 -18.774 -23.540  0.00  0.00    -0.004 C 
ATOM     11  C   UNL     1      34.533 -16.362 -23.645  0.00  0.00    -0.004 C 
ATOM     12  C   UNL     1      34.526 -18.838 -24.931  0.00  0.00    -0.000 C 
ATOM     13  C   UNL     1      34.602 -16.425 -25.037  0.00  0.00    -0.000 C 
ATOM     14  C   UNL     1      34.598 -17.663 -25.680  0.00  0.00    -0.000 C 
ENDBRANCH   2   9
BRANCH   2  16
ATOM     15  O   UNL     1      36.241 -18.853 -20.656  0.00  0.00    -0.250 OA
ATOM     16  C   UNL     1      35.035 -18.722 -20.824  0.00  0.00    +0.320 C 
BRANCH  16  17
ATOM     17  O   UNL     1      34.076 -19.655 -20.562  0.00  0.00    -0.448 OA
BRANCH  17  18
ATOM     18  C   UNL     1      34.547 -20.875 -19.981  0.00  0.00    +0.209 C 
ATOM     19  C   UNL     1      33.381 -21.600 -19.344  0.00  0.00    +0.051 C 
ENDBRANCH  17  18
ENDBRANCH  16  17
ENDBRANCH   2  16
TORSDOF 4
ENDMDL
