MODEL 1
REMARK VINA RESULT:      -8.3      0.000      0.000
REMARK  Name = 99479
REMARK  1 active torsions:
REMARK  status: ('A' for Active; 'I' for Inactive)
REMARK    1  A    between atoms: C_12  and  O_16
REMARK                            x       y       z     vdW  Elec       q    Type
REMARK                         _______ _______ _______ _____ _____    ______ ____
ROOT
ATOM      1  O   UNL     1      34.984 -17.331 -21.298  0.00  0.00    -0.483 OA
ATOM      2  C   UNL     1      35.368 -18.640 -21.760  0.00  0.00    +0.134 C 
ATOM      3  C   UNL     1      35.990 -18.587 -23.166  0.00  0.00    +0.045 C 
ATOM      4  C   UNL     1      35.037 -17.956 -24.172  0.00  0.00    +0.033 C 
ATOM      5  C   UNL     1      34.427 -16.713 -23.596  0.00  0.00    +0.010 A 
ATOM      6  C   UNL     1      34.428 -16.480 -22.216  0.00  0.00    +0.130 A 
ATOM      7  C   UNL     1      36.428 -19.141 -20.769  0.00  0.00    +0.044 C 
ATOM      8  C   UNL     1      34.150 -19.572 -21.685  0.00  0.00    +0.044 C 
ATOM      9  C   UNL     1      33.816 -15.780 -24.446  0.00  0.00    +0.010 A 
ATOM     10  C   UNL     1      33.858 -15.314 -21.699  0.00  0.00    +0.011 A 
ATOM     11  C   UNL     1      33.264 -14.386 -22.553  0.00  0.00    +0.010 A 
ATOM     12  C   UNL     1      33.239 -14.621 -23.925  0.00  0.00    +0.125 A 
ATOM     13  C   UNL     1      33.776 -16.005 -25.926  0.00  0.00    +0.034 C 
ATOM     14  C   UNL     1      33.891 -15.052 -20.225  0.00  0.00    +0.034 C 
ATOM     15  C   UNL     1      32.654 -13.137 -22.002  0.00  0.00    +0.034 C 
ENDROOT
BRANCH  12  16
ATOM     16  O   UNL     1      32.652 -13.716 -24.760  0.00  0.00    -0.506 OA
ATOM     17  H   UNL     1      31.870 -13.944 -25.224  0.00  0.00    +0.292 HD
ENDBRANCH  12  16
TORSDOF 1
ENDMDL
MODEL 2
REMARK VINA RESULT:      -7.9      4.695      8.313
REMARK  Name = 99479
REMARK  1 active torsions:
REMARK  status: ('A' for Active; 'I' for Inactive)
REMARK    1  A    between atoms: C_12  and  O_16
REMARK                            x       y       z     vdW  Elec       q    Type
REMARK                         _______ _______ _______ _____ _____    ______ ____
ROOT
ATOM      1  O   UNL     1      31.628  -8.448 -22.002  0.00  0.00    -0.483 OA
ATOM      2  C   UNL     1      32.161  -7.110 -22.039  0.00  0.00    +0.134 C 
ATOM      3  C   UNL     1      32.773  -6.780 -23.411  0.00  0.00    +0.045 C 
ATOM      4  C   UNL     1      33.869  -7.770 -23.783  0.00  0.00    +0.033 C 
ATOM      5  C   UNL     1      33.415  -9.172 -23.504  0.00  0.00    +0.010 A 
ATOM      6  C   UNL     1      32.345  -9.426 -22.640  0.00  0.00    +0.130 A 
ATOM      7  C   UNL     1      30.967  -6.176 -21.793  0.00  0.00    +0.044 C 
ATOM      8  C   UNL     1      33.160  -6.940 -20.886  0.00  0.00    +0.044 C 
ATOM      9  C   UNL     1      34.089 -10.251 -24.093  0.00  0.00    +0.010 A 
ATOM     10  C   UNL     1      31.935 -10.739 -22.396  0.00  0.00    +0.011 A 
ATOM     11  C   UNL     1      32.603 -11.805 -22.995  0.00  0.00    +0.010 A 
ATOM     12  C   UNL     1      33.683 -11.561 -23.840  0.00  0.00    +0.125 A 
ATOM     13  C   UNL     1      35.252 -10.019 -25.008  0.00  0.00    +0.034 C 
ATOM     14  C   UNL     1      30.768 -11.006 -21.495  0.00  0.00    +0.034 C 
ATOM     15  C   UNL     1      32.165 -13.211 -22.737  0.00  0.00    +0.034 C 
ENDROOT
BRANCH  12  16
ATOM     16  O   UNL     1      34.341 -12.605 -24.422  0.00  0.00    -0.506 OA
ATOM     17  H   UNL     1      35.189 -12.473 -24.799  0.00  0.00    +0.292 HD
ENDBRANCH  12  16
TORSDOF 1
ENDMDL
MODEL 3
REMARK VINA RESULT:      -7.8      3.905      7.814
REMARK  Name = 99479
REMARK  1 active torsions:
REMARK  status: ('A' for Active; 'I' for Inactive)
REMARK    1  A    between atoms: C_12  and  O_16
REMARK                            x       y       z     vdW  Elec       q    Type
REMARK                         _______ _______ _______ _____ _____    ______ ____
ROOT
ATOM      1  O   UNL     1      33.446  -9.249 -24.000  0.00  0.00    -0.483 OA
ATOM      2  C   UNL     1      32.897  -8.035 -23.453  0.00  0.00    +0.134 C 
ATOM      3  C   UNL     1      32.790  -8.100 -21.920  0.00  0.00    +0.045 C 
ATOM      4  C   UNL     1      31.944  -9.283 -21.472  0.00  0.00    +0.033 C 
ATOM      5  C   UNL     1      32.337 -10.517 -22.229  0.00  0.00    +0.010 A 
ATOM      6  C   UNL     1      33.046 -10.429 -23.432  0.00  0.00    +0.130 A 
ATOM      7  C   UNL     1      33.882  -6.920 -23.833  0.00  0.00    +0.044 C 
ATOM      8  C   UNL     1      31.549  -7.748 -24.130  0.00  0.00    +0.044 C 
ATOM      9  C   UNL     1      31.965 -11.778 -21.745  0.00  0.00    +0.010 A 
ATOM     10  C   UNL     1      33.407 -11.590 -24.121  0.00  0.00    +0.011 A 
ATOM     11  C   UNL     1      33.043 -12.841 -23.626  0.00  0.00    +0.010 A 
ATOM     12  C   UNL     1      32.319 -12.935 -22.440  0.00  0.00    +0.125 A 
ATOM     13  C   UNL     1      31.189 -11.911 -20.471  0.00  0.00    +0.034 C 
ATOM     14  C   UNL     1      34.194 -11.495 -25.392  0.00  0.00    +0.034 C 
ATOM     15  C   UNL     1      33.429 -14.085 -24.361  0.00  0.00    +0.034 C 
ENDROOT
BRANCH  12  16
ATOM     16  O   UNL     1      31.958 -14.159 -21.958  0.00  0.00    -0.506 OA
ATOM     17  H   UNL     1      31.580 -14.235 -21.104  0.00  0.00    +0.292 HD
ENDBRANCH  12  16
TORSDOF 1
ENDMDL
MODEL 4
REMARK VINA RESULT:      -7.6      3.588      6.223
REMARK  Name = 99479
REMARK  1 active torsions:
REMARK  status: ('A' for Active; 'I' for Inactive)
REMARK    1  A    between atoms: C_12  and  O_16
REMARK                            x       y       z     vdW  Elec       q    Type
REMARK                         _______ _______ _______ _____ _____    ______ ____
ROOT
ATOM      1  O   UNL     1      33.964 -12.551 -24.501  0.00  0.00    -0.483 OA
ATOM      2  C   UNL     1      33.498 -13.785 -23.923  0.00  0.00    +0.134 C 
ATOM      3  C   UNL     1      32.062 -13.657 -23.390  0.00  0.00    +0.045 C 
ATOM      4  C   UNL     1      31.950 -12.544 -22.357  0.00  0.00    +0.033 C 
ATOM      5  C   UNL     1      32.661 -11.316 -22.842  0.00  0.00    +0.010 A 
ATOM      6  C   UNL     1      33.615 -11.390 -23.862  0.00  0.00    +0.130 A 
ATOM      7  C   UNL     1      33.512 -14.813 -25.064  0.00  0.00    +0.044 C 
ATOM      8  C   UNL     1      34.494 -14.238 -22.846  0.00  0.00    +0.044 C 
ATOM      9  C   UNL     1      32.391 -10.076 -22.247  0.00  0.00    +0.010 A 
ATOM     10  C   UNL     1      34.264 -10.233 -24.303  0.00  0.00    +0.011 A 
ATOM     11  C   UNL     1      33.980  -9.003 -23.714  0.00  0.00    +0.010 A 
ATOM     12  C   UNL     1      33.047  -8.924 -22.683  0.00  0.00    +0.125 A 
ATOM     13  C   UNL     1      31.391  -9.961 -21.139  0.00  0.00    +0.034 C 
ATOM     14  C   UNL     1      35.261 -10.311 -25.418  0.00  0.00    +0.034 C 
ATOM     15  C   UNL     1      34.672  -7.764 -24.185  0.00  0.00    +0.034 C 
ENDROOT
BRANCH  12  16
ATOM     16  O   UNL     1      32.774  -7.720 -22.102  0.00  0.00    -0.506 OA
ATOM     17  H   UNL     1      33.406  -7.029 -22.136  0.00  0.00    +0.292 HD
ENDBRANCH  12  16
TORSDOF 1
ENDMDL
MODEL 5
REMARK VINA RESULT:      -7.2      3.062      5.648
REMARK  Name = 99479
REMARK  1 active torsions:
REMARK  status: ('A' for Active; 'I' for Inactive)
REMARK    1  A    between atoms: C_12  and  O_16
REMARK                            x       y       z     vdW  Elec       q    Type
REMARK                         _______ _______ _______ _____ _____    ______ ____
ROOT
ATOM      1  O   UNL     1      33.900 -13.084 -23.922  0.00  0.00    -0.483 OA
ATOM      2  C   UNL     1      33.717 -14.347 -23.256  0.00  0.00    +0.134 C 
ATOM      3  C   UNL     1      32.296 -14.488 -22.684  0.00  0.00    +0.045 C 
ATOM      4  C   UNL     1      31.973 -13.357 -21.717  0.00  0.00    +0.033 C 
ATOM      5  C   UNL     1      32.399 -12.042 -22.299  0.00  0.00    +0.010 A 
ATOM      6  C   UNL     1      33.327 -11.982 -23.343  0.00  0.00    +0.130 A 
ATOM      7  C   UNL     1      33.924 -15.423 -24.332  0.00  0.00    +0.044 C 
ATOM      8  C   UNL     1      34.806 -14.510 -22.186  0.00  0.00    +0.044 C 
ATOM      9  C   UNL     1      31.885 -10.849 -21.771  0.00  0.00    +0.010 A 
ATOM     10  C   UNL     1      33.709 -10.747 -23.875  0.00  0.00    +0.011 A 
ATOM     11  C   UNL     1      33.184  -9.567 -23.351  0.00  0.00    +0.010 A 
ATOM     12  C   UNL     1      32.275  -9.617 -22.297  0.00  0.00    +0.125 A 
ATOM     13  C   UNL     1      30.905 -10.873 -20.639  0.00  0.00    +0.034 C 
ATOM     14  C   UNL     1      34.678 -10.688 -25.015  0.00  0.00    +0.034 C 
ATOM     15  C   UNL     1      33.590  -8.244 -23.919  0.00  0.00    +0.034 C 
ENDROOT
BRANCH  12  16
ATOM     16  O   UNL     1      31.766  -8.461 -21.781  0.00  0.00    -0.506 OA
ATOM     17  H   UNL     1      31.654  -8.371 -20.856  0.00  0.00    +0.292 HD
ENDBRANCH  12  16
TORSDOF 1
ENDMDL
MODEL 6
REMARK VINA RESULT:      -7.1      1.504      4.620
REMARK  Name = 99479
REMARK  1 active torsions:
REMARK  status: ('A' for Active; 'I' for Inactive)
REMARK    1  A    between atoms: C_12  and  O_16
REMARK                            x       y       z     vdW  Elec       q    Type
REMARK                         _______ _______ _______ _____ _____    ______ ____
ROOT
ATOM      1  O   UNL     1      33.389 -13.973 -22.243  0.00  0.00    -0.483 OA
ATOM      2  C   UNL     1      32.983 -13.045 -23.266  0.00  0.00    +0.134 C 
ATOM      3  C   UNL     1      32.320 -13.762 -24.454  0.00  0.00    +0.045 C 
ATOM      4  C   UNL     1      33.246 -14.807 -25.060  0.00  0.00    +0.033 C 
ATOM      5  C   UNL     1      33.881 -15.625 -23.976  0.00  0.00    +0.010 A 
ATOM      6  C   UNL     1      33.923 -15.166 -22.655  0.00  0.00    +0.130 A 
ATOM      7  C   UNL     1      31.950 -12.120 -22.607  0.00  0.00    +0.044 C 
ATOM      8  C   UNL     1      34.197 -12.203 -23.684  0.00  0.00    +0.044 C 
ATOM      9  C   UNL     1      34.473 -16.857 -24.290  0.00  0.00    +0.010 A 
ATOM     10  C   UNL     1      34.516 -15.945 -21.658  0.00  0.00    +0.011 A 
ATOM     11  C   UNL     1      35.090 -17.174 -21.978  0.00  0.00    +0.010 A 
ATOM     12  C   UNL     1      35.072 -17.628 -23.294  0.00  0.00    +0.125 A 
ATOM     13  C   UNL     1      34.466 -17.372 -25.696  0.00  0.00    +0.034 C 
ATOM     14  C   UNL     1      34.529 -15.465 -20.239  0.00  0.00    +0.034 C 
ATOM     15  C   UNL     1      35.725 -18.010 -20.912  0.00  0.00    +0.034 C 
ENDROOT
BRANCH  12  16
ATOM     16  O   UNL     1      35.640 -18.828 -23.608  0.00  0.00    -0.506 OA
ATOM     17  H   UNL     1      36.527 -18.863 -23.908  0.00  0.00    +0.292 HD
ENDBRANCH  12  16
TORSDOF 1
ENDMDL
MODEL 7
REMARK VINA RESULT:      -7.1      5.284      8.582
REMARK  Name = 99479
REMARK  1 active torsions:
REMARK  status: ('A' for Active; 'I' for Inactive)
REMARK    1  A    between atoms: C_12  and  O_16
REMARK                            x       y       z     vdW  Elec       q    Type
REMARK                         _______ _______ _______ _____ _____    ______ ____
ROOT
ATOM      1  O   UNL     1      33.129  -7.438 -22.511  0.00  0.00    -0.483 OA
ATOM      2  C   UNL     1      32.001  -7.231 -21.640  0.00  0.00    +0.134 C 
ATOM      3  C   UNL     1      31.809  -8.407 -20.668  0.00  0.00    +0.045 C 
ATOM      4  C   UNL     1      31.634  -9.722 -21.415  0.00  0.00    +0.033 C 
ATOM      5  C   UNL     1      32.656  -9.836 -22.507  0.00  0.00    +0.010 A 
ATOM      6  C   UNL     1      33.327  -8.707 -22.989  0.00  0.00    +0.130 A 
ATOM      7  C   UNL     1      32.324  -5.967 -20.829  0.00  0.00    +0.044 C 
ATOM      8  C   UNL     1      30.756  -6.957 -22.495  0.00  0.00    +0.044 C 
ATOM      9  C   UNL     1      32.925 -11.087 -23.079  0.00  0.00    +0.010 A 
ATOM     10  C   UNL     1      34.279  -8.835 -24.004  0.00  0.00    +0.011 A 
ATOM     11  C   UNL     1      34.549 -10.085 -24.558  0.00  0.00    +0.010 A 
ATOM     12  C   UNL     1      33.870 -11.210 -24.098  0.00  0.00    +0.125 A 
ATOM     13  C   UNL     1      32.212 -12.315 -22.603  0.00  0.00    +0.034 C 
ATOM     14  C   UNL     1      35.019  -7.629 -24.494  0.00  0.00    +0.034 C 
ATOM     15  C   UNL     1      35.568 -10.224 -25.643  0.00  0.00    +0.034 C 
ENDROOT
BRANCH  12  16
ATOM     16  O   UNL     1      34.130 -12.433 -24.645  0.00  0.00    -0.506 OA
ATOM     17  H   UNL     1      33.647 -12.724 -25.393  0.00  0.00    +0.292 HD
ENDBRANCH  12  16
TORSDOF 1
ENDMDL
MODEL 8
REMARK VINA RESULT:      -7.0      1.342      3.104
REMARK  Name = 99479
REMARK  1 active torsions:
REMARK  status: ('A' for Active; 'I' for Inactive)
REMARK    1  A    between atoms: C_12  and  O_16
REMARK                            x       y       z     vdW  Elec       q    Type
REMARK                         _______ _______ _______ _____ _____    ______ ____
ROOT
ATOM      1  O   UNL     1      34.475 -17.511 -23.539  0.00  0.00    -0.483 OA
ATOM      2  C   UNL     1      34.890 -18.256 -22.378  0.00  0.00    +0.134 C 
ATOM      3  C   UNL     1      33.933 -18.042 -21.193  0.00  0.00    +0.045 C 
ATOM      4  C   UNL     1      33.817 -16.568 -20.831  0.00  0.00    +0.033 C 
ATOM      5  C   UNL     1      33.638 -15.744 -22.072  0.00  0.00    +0.010 A 
ATOM      6  C   UNL     1      33.979 -16.251 -23.330  0.00  0.00    +0.130 A 
ATOM      7  C   UNL     1      34.846 -19.734 -22.790  0.00  0.00    +0.044 C 
ATOM      8  C   UNL     1      36.342 -17.886 -22.042  0.00  0.00    +0.044 C 
ATOM      9  C   UNL     1      33.151 -14.434 -21.972  0.00  0.00    +0.010 A 
ATOM     10  C   UNL     1      33.801 -15.470 -24.475  0.00  0.00    +0.011 A 
ATOM     11  C   UNL     1      33.304 -14.172 -24.367  0.00  0.00    +0.010 A 
ATOM     12  C   UNL     1      32.983 -13.653 -23.115  0.00  0.00    +0.125 A 
ATOM     13  C   UNL     1      32.795 -13.850 -20.640  0.00  0.00    +0.034 C 
ATOM     14  C   UNL     1      34.136 -16.027 -25.824  0.00  0.00    +0.034 C 
ATOM     15  C   UNL     1      33.112 -13.334 -25.591  0.00  0.00    +0.034 C 
ENDROOT
BRANCH  12  16
ATOM     16  O   UNL     1      32.503 -12.380 -23.009  0.00  0.00    -0.506 OA
ATOM     17  H   UNL     1      32.227 -11.917 -23.776  0.00  0.00    +0.292 HD
ENDBRANCH  12  16
TORSDOF 1
ENDMDL
MODEL 9
REMARK VINA RESULT:      -6.7      8.542     10.892
REMARK  Name = 99479
REMARK  1 active torsions:
REMARK  status: ('A' for Active; 'I' for Inactive)
REMARK    1  A    between atoms: C_12  and  O_16
REMARK                            x       y       z     vdW  Elec       q    Type
REMARK                         _______ _______ _______ _____ _____    ______ ____
ROOT
ATOM      1  O   UNL     1      32.052  -6.600 -22.279  0.00  0.00    -0.483 OA
ATOM      2  C   UNL     1      32.745  -7.860 -22.201  0.00  0.00    +0.134 C 
ATOM      3  C   UNL     1      34.162  -7.768 -22.792  0.00  0.00    +0.045 C 
ATOM      4  C   UNL     1      34.131  -7.299 -24.240  0.00  0.00    +0.033 C 
ATOM      5  C   UNL     1      33.203  -6.130 -24.385  0.00  0.00    +0.010 A 
ATOM      6  C   UNL     1      32.229  -5.858 -23.418  0.00  0.00    +0.130 A 
ATOM      7  C   UNL     1      32.853  -8.187 -20.705  0.00  0.00    +0.044 C 
ATOM      8  C   UNL     1      31.889  -8.941 -22.877  0.00  0.00    +0.044 C 
ATOM      9  C   UNL     1      33.286  -5.312 -25.520  0.00  0.00    +0.010 A 
ATOM     10  C   UNL     1      31.376  -4.762 -23.569  0.00  0.00    +0.011 A 
ATOM     11  C   UNL     1      31.474  -3.947 -24.695  0.00  0.00    +0.010 A 
ATOM     12  C   UNL     1      32.427  -4.224 -25.672  0.00  0.00    +0.125 A 
ATOM     13  C   UNL     1      34.302  -5.585 -26.586  0.00  0.00    +0.034 C 
ATOM     14  C   UNL     1      30.356  -4.453 -22.515  0.00  0.00    +0.034 C 
ATOM     15  C   UNL     1      30.563  -2.772 -24.858  0.00  0.00    +0.034 C 
ENDROOT
BRANCH  12  16
ATOM     16  O   UNL     1      32.519  -3.430 -26.778  0.00  0.00    -0.506 OA
ATOM     17  H   UNL     1      31.777  -3.319 -27.339  0.00  0.00    +0.292 HD
ENDBRANCH  12  16
TORSDOF 1
ENDMDL
