MODEL 1
REMARK VINA RESULT:      -3.0      0.000      0.000
REMARK  Name = 4113
REMARK  1 active torsions:
REMARK  status: ('A' for Active; 'I' for Inactive)
REMARK    1  A    between atoms: N_1  and  O_4
REMARK                            x       y       z     vdW  Elec       q    Type
REMARK                         _______ _______ _______ _____ _____    ______ ____
ROOT
ATOM      1  N   UNL     1      25.980 -20.466 -17.940  0.00  0.00    -0.214 NA
ATOM      2  H   UNL     1      25.477 -20.632 -18.812  0.00  0.00    +0.150 HD
ATOM      3  H   UNL     1      26.984 -20.484 -18.118  0.00  0.00    +0.150 HD
ENDROOT
BRANCH   1   4
ATOM      4  O   UNL     1      25.639 -21.504 -16.978  0.00  0.00    -0.286 OA
ATOM      5  C   UNL     1      26.855 -22.055 -16.496  0.00  0.00    +0.200 C 
ENDBRANCH   1   4
TORSDOF 1
ENDMDL
MODEL 2
REMARK VINA RESULT:      -2.8     15.117     15.117
REMARK  Name = 4113
REMARK  1 active torsions:
REMARK  status: ('A' for Active; 'I' for Inactive)
REMARK    1  A    between atoms: N_1  and  O_4
REMARK                            x       y       z     vdW  Elec       q    Type
REMARK                         _______ _______ _______ _____ _____    ______ ____
ROOT
ATOM      1  N   UNL     1      40.461 -25.909 -15.952  0.00  0.00    -0.214 NA
ATOM      2  H   UNL     1      41.180 -26.431 -16.456  0.00  0.00    +0.150 HD
ATOM      3  H   UNL     1      40.272 -25.034 -16.441  0.00  0.00    +0.150 HD
ENDROOT
BRANCH   1   4
ATOM      4  O   UNL     1      40.926 -25.622 -14.603  0.00  0.00    -0.286 OA
ATOM      5  C   UNL     1      39.779 -25.466 -13.780  0.00  0.00    +0.200 C 
ENDBRANCH   1   4
TORSDOF 1
ENDMDL
MODEL 3
REMARK VINA RESULT:      -2.8     12.483     12.483
REMARK  Name = 4113
REMARK  1 active torsions:
REMARK  status: ('A' for Active; 'I' for Inactive)
REMARK    1  A    between atoms: N_1  and  O_4
REMARK                            x       y       z     vdW  Elec       q    Type
REMARK                         _______ _______ _______ _____ _____    ______ ____
ROOT
ATOM      1  N   UNL     1      35.322 -24.816  -9.970  0.00  0.00    -0.214 NA
ATOM      2  H   UNL     1      34.713 -24.597 -10.759  0.00  0.00    +0.150 HD
ATOM      3  H   UNL     1      34.801 -24.708  -9.099  0.00  0.00    +0.150 HD
ENDROOT
BRANCH   1   4
ATOM      4  O   UNL     1      36.462 -23.912  -9.970  0.00  0.00    -0.286 OA
ATOM      5  C   UNL     1      36.691 -23.514 -11.314  0.00  0.00    +0.200 C 
ENDBRANCH   1   4
TORSDOF 1
ENDMDL
MODEL 4
REMARK VINA RESULT:      -2.7     16.887     16.887
REMARK  Name = 4113
REMARK  1 active torsions:
REMARK  status: ('A' for Active; 'I' for Inactive)
REMARK    1  A    between atoms: N_1  and  O_4
REMARK                            x       y       z     vdW  Elec       q    Type
REMARK                         _______ _______ _______ _____ _____    ______ ____
ROOT
ATOM      1  N   UNL     1      40.838 -13.242 -13.092  0.00  0.00    -0.214 NA
ATOM      2  H   UNL     1      40.948 -13.600 -12.142  0.00  0.00    +0.150 HD
ATOM      3  H   UNL     1      40.012 -12.646 -13.137  0.00  0.00    +0.150 HD
ENDROOT
BRANCH   1   4
ATOM      4  O   UNL     1      40.684 -14.357 -14.015  0.00  0.00    -0.286 OA
ATOM      5  C   UNL     1      41.194 -13.943 -15.274  0.00  0.00    +0.200 C 
ENDBRANCH   1   4
TORSDOF 1
ENDMDL
MODEL 5
REMARK VINA RESULT:      -2.7     12.141     12.141
REMARK  Name = 4113
REMARK  1 active torsions:
REMARK  status: ('A' for Active; 'I' for Inactive)
REMARK    1  A    between atoms: N_1  and  O_4
REMARK                            x       y       z     vdW  Elec       q    Type
REMARK                         _______ _______ _______ _____ _____    ______ ____
ROOT
ATOM      1  N   UNL     1      36.751 -27.652 -16.798  0.00  0.00    -0.214 NA
ATOM      2  H   UNL     1      36.128 -27.628 -17.606  0.00  0.00    +0.150 HD
ATOM      3  H   UNL     1      36.796 -28.603 -16.432  0.00  0.00    +0.150 HD
ENDROOT
BRANCH   1   4
ATOM      4  O   UNL     1      36.242 -26.759 -15.767  0.00  0.00    -0.286 OA
ATOM      5  C   UNL     1      37.297 -26.525 -14.846  0.00  0.00    +0.200 C 
ENDBRANCH   1   4
TORSDOF 1
ENDMDL
MODEL 6
REMARK VINA RESULT:      -2.7     13.310     13.310
REMARK  Name = 4113
REMARK  1 active torsions:
REMARK  status: ('A' for Active; 'I' for Inactive)
REMARK    1  A    between atoms: N_1  and  O_4
REMARK                            x       y       z     vdW  Elec       q    Type
REMARK                         _______ _______ _______ _____ _____    ______ ____
ROOT
ATOM      1  N   UNL     1      37.391 -22.433 -11.247  0.00  0.00    -0.214 NA
ATOM      2  H   UNL     1      36.754 -23.106 -10.819  0.00  0.00    +0.150 HD
ATOM      3  H   UNL     1      36.946 -22.017 -12.066  0.00  0.00    +0.150 HD
ENDROOT
BRANCH   1   4
ATOM      4  O   UNL     1      38.614 -23.109 -11.649  0.00  0.00    -0.286 OA
ATOM      5  C   UNL     1      38.246 -24.354 -12.224  0.00  0.00    +0.200 C 
ENDBRANCH   1   4
TORSDOF 1
ENDMDL
MODEL 7
REMARK VINA RESULT:      -2.7      1.091      1.091
REMARK  Name = 4113
REMARK  1 active torsions:
REMARK  status: ('A' for Active; 'I' for Inactive)
REMARK    1  A    between atoms: N_1  and  O_4
REMARK                            x       y       z     vdW  Elec       q    Type
REMARK                         _______ _______ _______ _____ _____    ______ ____
ROOT
ATOM      1  N   UNL     1      25.569 -21.228 -17.327  0.00  0.00    -0.214 NA
ATOM      2  H   UNL     1      25.251 -20.855 -18.223  0.00  0.00    +0.150 HD
ATOM      3  H   UNL     1      25.258 -20.613 -16.574  0.00  0.00    +0.150 HD
ENDROOT
BRANCH   1   4
ATOM      4  O   UNL     1      27.022 -21.304 -17.321  0.00  0.00    -0.286 OA
ATOM      5  C   UNL     1      27.392 -22.343 -16.427  0.00  0.00    +0.200 C 
ENDBRANCH   1   4
TORSDOF 1
ENDMDL
MODEL 8
REMARK VINA RESULT:      -2.6      2.831      2.831
REMARK  Name = 4113
REMARK  1 active torsions:
REMARK  status: ('A' for Active; 'I' for Inactive)
REMARK    1  A    between atoms: N_1  and  O_4
REMARK                            x       y       z     vdW  Elec       q    Type
REMARK                         _______ _______ _______ _____ _____    ______ ____
ROOT
ATOM      1  N   UNL     1      27.751 -23.315 -17.785  0.00  0.00    -0.214 NA
ATOM      2  H   UNL     1      27.181 -22.877 -18.509  0.00  0.00    +0.150 HD
ATOM      3  H   UNL     1      27.143 -23.743 -17.087  0.00  0.00    +0.150 HD
ENDROOT
BRANCH   1   4
ATOM      4  O   UNL     1      28.588 -22.308 -17.150  0.00  0.00    -0.286 OA
ATOM      5  C   UNL     1      28.479 -22.485 -15.746  0.00  0.00    +0.200 C 
ENDBRANCH   1   4
TORSDOF 1
ENDMDL
MODEL 9
REMARK VINA RESULT:      -2.5     12.017     12.017
REMARK  Name = 4113
REMARK  1 active torsions:
REMARK  status: ('A' for Active; 'I' for Inactive)
REMARK    1  A    between atoms: N_1  and  O_4
REMARK                            x       y       z     vdW  Elec       q    Type
REMARK                         _______ _______ _______ _____ _____    ______ ____
ROOT
ATOM      1  N   UNL     1      35.384 -24.958 -10.401  0.00  0.00    -0.214 NA
ATOM      2  H   UNL     1      35.159 -23.999 -10.666  0.00  0.00    +0.150 HD
ATOM      3  H   UNL     1      35.856 -24.958  -9.496  0.00  0.00    +0.150 HD
ENDROOT
BRANCH   1   4
ATOM      4  O   UNL     1      36.257 -25.548 -11.404  0.00  0.00    -0.286 OA
ATOM      5  C   UNL     1      36.069 -24.826 -12.612  0.00  0.00    +0.200 C 
ENDBRANCH   1   4
TORSDOF 1
ENDMDL
