MODEL 1
REMARK VINA RESULT:     -11.4      0.000      0.000
REMARK  Name = 11313622
REMARK  3 active torsions:
REMARK  status: ('A' for Active; 'I' for Inactive)
REMARK    1  A    between atoms: N_4  and  C_8
REMARK    2  A    between atoms: N_5  and  C_18
REMARK    3  A    between atoms: C_18  and  C_19
REMARK                            x       y       z     vdW  Elec       q    Type
REMARK                         _______ _______ _______ _____ _____    ______ ____
ROOT
ATOM      1  S   UNL     1      33.757 -15.853 -24.145  0.00  0.00    +0.060 S 
ATOM      2  O   UNL     1      34.845 -15.781 -20.516  0.00  0.00    -0.245 OA
ATOM      3  O   UNL     1      35.069 -18.086 -24.560  0.00  0.00    -0.258 OA
ATOM      4  N   UNL     1      33.840 -15.217 -22.559  0.00  0.00    -0.226 N 
ATOM      5  N   UNL     1      35.114 -17.126 -22.420  0.00  0.00    -0.237 N 
ATOM      6  C   UNL     1      34.623 -16.015 -21.703  0.00  0.00    +0.344 A 
ATOM      7  C   UNL     1      34.767 -17.226 -23.746  0.00  0.00    +0.312 A 
ENDROOT
BRANCH   4   8
ATOM      8  C   UNL     1      33.203 -14.036 -22.158  0.00  0.00    +0.075 C 
ATOM      9  C   UNL     1      33.266 -12.863 -22.929  0.00  0.00    +0.017 C 
ATOM     10  C   UNL     1      32.603 -11.699 -22.473  0.00  0.00    +0.001 C 
ATOM     11  C   UNL     1      32.496 -14.061 -20.956  0.00  0.00    +0.018 C 
ATOM     12  C   UNL     1      33.974 -12.820 -24.142  0.00  0.00    +0.001 C 
ATOM     13  C   UNL     1      31.897 -11.741 -21.260  0.00  0.00    +0.000 C 
ATOM     14  C   UNL     1      31.844 -12.916 -20.507  0.00  0.00    +0.002 C 
ATOM     15  C   UNL     1      32.668 -10.526 -23.242  0.00  0.00    +0.000 C 
ATOM     16  C   UNL     1      34.026 -11.646 -24.893  0.00  0.00    +0.000 C 
ATOM     17  C   UNL     1      33.374 -10.501 -24.445  0.00  0.00    +0.000 C 
ENDBRANCH   4   8
BRANCH   5  18
ATOM     18  C   UNL     1      35.956 -18.111 -21.765  0.00  0.00    +0.141 C 
BRANCH  18  19
ATOM     19  C   UNL     1      35.126 -19.168 -21.088  0.00  0.00    +0.001 C 
ATOM     20  C   UNL     1      35.755 -20.203 -20.410  0.00  0.00    -0.002 C 
ATOM     21  C   UNL     1      33.740 -19.093 -21.150  0.00  0.00    -0.002 C 
ATOM     22  C   UNL     1      34.986 -21.183 -19.783  0.00  0.00    -0.000 C 
ATOM     23  C   UNL     1      32.971 -20.073 -20.522  0.00  0.00    -0.000 C 
ATOM     24  C   UNL     1      33.594 -21.118 -19.838  0.00  0.00    -0.000 C 
ENDBRANCH  18  19
ENDBRANCH   5  18
TORSDOF 3
ENDMDL
MODEL 2
REMARK VINA RESULT:     -11.3      3.096      4.865
REMARK  Name = 11313622
REMARK  3 active torsions:
REMARK  status: ('A' for Active; 'I' for Inactive)
REMARK    1  A    between atoms: N_4  and  C_8
REMARK    2  A    between atoms: N_5  and  C_18
REMARK    3  A    between atoms: C_18  and  C_19
REMARK                            x       y       z     vdW  Elec       q    Type
REMARK                         _______ _______ _______ _____ _____    ______ ____
ROOT
ATOM      1  S   UNL     1      32.719 -19.599 -20.611  0.00  0.00    +0.060 S 
ATOM      2  O   UNL     1      36.500 -19.384 -20.727  0.00  0.00    -0.245 OA
ATOM      3  O   UNL     1      32.823 -22.067 -19.728  0.00  0.00    -0.258 OA
ATOM      4  N   UNL     1      34.224 -18.840 -20.896  0.00  0.00    -0.226 N 
ATOM      5  N   UNL     1      34.830 -20.930 -20.152  0.00  0.00    -0.237 N 
ATOM      6  C   UNL     1      35.314 -19.684 -20.604  0.00  0.00    +0.344 A 
ATOM      7  C   UNL     1      33.467 -21.091 -20.083  0.00  0.00    +0.312 A 
ENDROOT
BRANCH   4   8
ATOM      8  C   UNL     1      34.359 -17.528 -21.368  0.00  0.00    +0.075 C 
ATOM      9  C   UNL     1      34.471 -17.242 -22.738  0.00  0.00    +0.017 C 
ATOM     10  C   UNL     1      34.606 -15.898 -23.157  0.00  0.00    +0.001 C 
ATOM     11  C   UNL     1      34.381 -16.503 -20.422  0.00  0.00    +0.018 C 
ATOM     12  C   UNL     1      34.452 -18.263 -23.704  0.00  0.00    +0.001 C 
ATOM     13  C   UNL     1      34.626 -14.877 -22.192  0.00  0.00    +0.000 C 
ATOM     14  C   UNL     1      34.514 -15.179 -20.833  0.00  0.00    +0.002 C 
ATOM     15  C   UNL     1      34.719 -15.612 -24.527  0.00  0.00    +0.000 C 
ATOM     16  C   UNL     1      34.564 -17.961 -25.061  0.00  0.00    +0.000 C 
ATOM     17  C   UNL     1      34.697 -16.638 -25.472  0.00  0.00    +0.000 C 
ENDBRANCH   4   8
BRANCH   5  18
ATOM     18  C   UNL     1      35.754 -21.987 -19.784  0.00  0.00    +0.141 C 
BRANCH  18  19
ATOM     19  C   UNL     1      35.876 -22.103 -18.289  0.00  0.00    +0.001 C 
ATOM     20  C   UNL     1      34.892 -22.768 -17.570  0.00  0.00    -0.002 C 
ATOM     21  C   UNL     1      36.973 -21.543 -17.647  0.00  0.00    -0.002 C 
ATOM     22  C   UNL     1      35.005 -22.874 -16.184  0.00  0.00    -0.000 C 
ATOM     23  C   UNL     1      37.087 -21.650 -16.261  0.00  0.00    -0.000 C 
ATOM     24  C   UNL     1      36.102 -22.316 -15.529  0.00  0.00    -0.000 C 
ENDBRANCH  18  19
ENDBRANCH   5  18
TORSDOF 3
ENDMDL
MODEL 3
REMARK VINA RESULT:     -11.2      1.697      2.381
REMARK  Name = 11313622
REMARK  3 active torsions:
REMARK  status: ('A' for Active; 'I' for Inactive)
REMARK    1  A    between atoms: N_4  and  C_8
REMARK    2  A    between atoms: N_5  and  C_18
REMARK    3  A    between atoms: C_18  and  C_19
REMARK                            x       y       z     vdW  Elec       q    Type
REMARK                         _______ _______ _______ _____ _____    ______ ____
ROOT
ATOM      1  S   UNL     1      32.716 -14.142 -25.221  0.00  0.00    +0.060 S 
ATOM      2  O   UNL     1      34.857 -14.013 -22.098  0.00  0.00    -0.245 OA
ATOM      3  O   UNL     1      33.856 -16.376 -25.988  0.00  0.00    -0.258 OA
ATOM      4  N   UNL     1      33.273 -13.483 -23.745  0.00  0.00    -0.226 N 
ATOM      5  N   UNL     1      34.544 -15.385 -23.976  0.00  0.00    -0.237 N 
ATOM      6  C   UNL     1      34.285 -14.266 -23.157  0.00  0.00    +0.344 A 
ATOM      7  C   UNL     1      33.809 -15.506 -25.132  0.00  0.00    +0.312 A 
ENDROOT
BRANCH   4   8
ATOM      8  C   UNL     1      32.779 -12.298 -23.184  0.00  0.00    +0.075 C 
ATOM      9  C   UNL     1      33.343 -11.047 -23.482  0.00  0.00    +0.017 C 
ATOM     10  C   UNL     1      32.803  -9.884 -22.885  0.00  0.00    +0.001 C 
ATOM     11  C   UNL     1      31.697 -12.402 -22.309  0.00  0.00    +0.018 C 
ATOM     12  C   UNL     1      34.433 -10.926 -24.361  0.00  0.00    +0.001 C 
ATOM     13  C   UNL     1      31.714 -10.006 -22.006  0.00  0.00    +0.000 C 
ATOM     14  C   UNL     1      31.166 -11.258 -21.721  0.00  0.00    +0.002 C 
ATOM     15  C   UNL     1      33.368  -8.633 -23.182  0.00  0.00    +0.000 C 
ATOM     16  C   UNL     1      34.980  -9.674 -24.646  0.00  0.00    +0.000 C 
ATOM     17  C   UNL     1      34.449  -8.530 -24.057  0.00  0.00    +0.000 C 
ENDBRANCH   4   8
BRANCH   5  18
ATOM     18  C   UNL     1      35.553 -16.358 -23.596  0.00  0.00    +0.141 C 
BRANCH  18  19
ATOM     19  C   UNL     1      34.949 -17.479 -22.795  0.00  0.00    +0.001 C 
ATOM     20  C   UNL     1      34.230 -17.189 -21.644  0.00  0.00    -0.002 C 
ATOM     21  C   UNL     1      35.118 -18.791 -23.219  0.00  0.00    -0.002 C 
ATOM     22  C   UNL     1      33.671 -18.228 -20.901  0.00  0.00    -0.000 C 
ATOM     23  C   UNL     1      34.558 -19.830 -22.477  0.00  0.00    -0.000 C 
ATOM     24  C   UNL     1      33.834 -19.549 -21.317  0.00  0.00    -0.000 C 
ENDBRANCH  18  19
ENDBRANCH   5  18
TORSDOF 3
ENDMDL
MODEL 4
REMARK VINA RESULT:     -11.1      3.902      5.874
REMARK  Name = 11313622
REMARK  3 active torsions:
REMARK  status: ('A' for Active; 'I' for Inactive)
REMARK    1  A    between atoms: N_4  and  C_8
REMARK    2  A    between atoms: N_5  and  C_18
REMARK    3  A    between atoms: C_18  and  C_19
REMARK                            x       y       z     vdW  Elec       q    Type
REMARK                         _______ _______ _______ _____ _____    ______ ____
ROOT
ATOM      1  S   UNL     1      34.088  -9.714 -23.915  0.00  0.00    +0.060 S 
ATOM      2  O   UNL     1      31.196 -11.010 -21.839  0.00  0.00    -0.245 OA
ATOM      3  O   UNL     1      34.413 -12.059 -25.042  0.00  0.00    -0.258 OA
ATOM      4  N   UNL     1      32.825  -9.601 -22.767  0.00  0.00    -0.226 N 
ATOM      5  N   UNL     1      32.708 -11.792 -23.453  0.00  0.00    -0.237 N 
ATOM      6  C   UNL     1      32.140 -10.820 -22.603  0.00  0.00    +0.344 A 
ATOM      7  C   UNL     1      33.766 -11.403 -24.240  0.00  0.00    +0.312 A 
ENDROOT
BRANCH   4   8
ATOM      8  C   UNL     1      32.509  -8.428 -22.068  0.00  0.00    +0.075 C 
ATOM      9  C   UNL     1      31.999  -7.294 -22.720  0.00  0.00    +0.017 C 
ATOM     10  C   UNL     1      31.698  -6.137 -21.962  0.00  0.00    +0.001 C 
ATOM     11  C   UNL     1      32.720  -8.424 -20.689  0.00  0.00    +0.018 C 
ATOM     12  C   UNL     1      31.781  -7.281 -24.108  0.00  0.00    +0.001 C 
ATOM     13  C   UNL     1      31.917  -6.149 -20.574  0.00  0.00    +0.000 C 
ATOM     14  C   UNL     1      32.424  -7.287 -19.943  0.00  0.00    +0.002 C 
ATOM     15  C   UNL     1      31.190  -5.002 -22.613  0.00  0.00    +0.000 C 
ATOM     16  C   UNL     1      31.274  -6.145 -24.738  0.00  0.00    +0.000 C 
ATOM     17  C   UNL     1      30.979  -5.007 -23.993  0.00  0.00    +0.000 C 
ENDBRANCH   4   8
BRANCH   5  18
ATOM     18  C   UNL     1      32.184 -13.146 -23.477  0.00  0.00    +0.141 C 
BRANCH  18  19
ATOM     19  C   UNL     1      32.967 -14.046 -22.561  0.00  0.00    +0.001 C 
ATOM     20  C   UNL     1      32.622 -14.127 -21.219  0.00  0.00    -0.002 C 
ATOM     21  C   UNL     1      34.026 -14.787 -23.071  0.00  0.00    -0.002 C 
ATOM     22  C   UNL     1      33.348 -14.961 -20.370  0.00  0.00    -0.000 C 
ATOM     23  C   UNL     1      34.752 -15.622 -22.223  0.00  0.00    -0.000 C 
ATOM     24  C   UNL     1      34.413 -15.709 -20.872  0.00  0.00    -0.000 C 
ENDBRANCH  18  19
ENDBRANCH   5  18
TORSDOF 3
ENDMDL
MODEL 5
REMARK VINA RESULT:     -10.7      4.017      9.317
REMARK  Name = 11313622
REMARK  3 active torsions:
REMARK  status: ('A' for Active; 'I' for Inactive)
REMARK    1  A    between atoms: N_4  and  C_8
REMARK    2  A    between atoms: N_5  and  C_18
REMARK    3  A    between atoms: C_18  and  C_19
REMARK                            x       y       z     vdW  Elec       q    Type
REMARK                         _______ _______ _______ _____ _____    ______ ____
ROOT
ATOM      1  S   UNL     1      32.114 -10.934 -22.750  0.00  0.00    +0.060 S 
ATOM      2  O   UNL     1      35.145 -10.166 -24.890  0.00  0.00    -0.245 OA
ATOM      3  O   UNL     1      32.228  -8.568 -21.625  0.00  0.00    -0.258 OA
ATOM      4  N   UNL     1      33.311 -11.266 -23.926  0.00  0.00    -0.226 N 
ATOM      5  N   UNL     1      33.823  -9.128 -23.253  0.00  0.00    -0.237 N 
ATOM      6  C   UNL     1      34.196 -10.185 -24.109  0.00  0.00    +0.344 A 
ATOM      7  C   UNL     1      32.732  -9.327 -22.440  0.00  0.00    +0.312 A 
ENDROOT
BRANCH   4   8
ATOM      8  C   UNL     1      33.403 -12.476 -24.626  0.00  0.00    +0.075 C 
ATOM      9  C   UNL     1      33.759 -13.675 -23.988  0.00  0.00    +0.017 C 
ATOM     10  C   UNL     1      33.836 -14.867 -24.747  0.00  0.00    +0.001 C 
ATOM     11  C   UNL     1      33.127 -12.451 -25.994  0.00  0.00    +0.018 C 
ATOM     12  C   UNL     1      34.040 -13.718 -22.612  0.00  0.00    +0.001 C 
ATOM     13  C   UNL     1      33.556 -14.824 -26.123  0.00  0.00    +0.000 C 
ATOM     14  C   UNL     1      33.203 -13.623 -26.741  0.00  0.00    +0.002 C 
ATOM     15  C   UNL     1      34.193 -16.066 -24.110  0.00  0.00    +0.000 C 
ATOM     16  C   UNL     1      34.392 -14.918 -21.995  0.00  0.00    +0.000 C 
ATOM     17  C   UNL     1      34.469 -16.090 -22.742  0.00  0.00    +0.000 C 
ENDBRANCH   4   8
BRANCH   5  18
ATOM     18  C   UNL     1      34.578  -7.888 -23.243  0.00  0.00    +0.141 C 
BRANCH  18  19
ATOM     19  C   UNL     1      34.022  -6.908 -24.241  0.00  0.00    +0.001 C 
ATOM     20  C   UNL     1      32.737  -6.412 -24.071  0.00  0.00    -0.002 C 
ATOM     21  C   UNL     1      34.803  -6.512 -25.319  0.00  0.00    -0.002 C 
ATOM     22  C   UNL     1      32.222  -5.504 -24.995  0.00  0.00    -0.000 C 
ATOM     23  C   UNL     1      34.289  -5.604 -26.243  0.00  0.00    -0.000 C 
ATOM     24  C   UNL     1      32.997  -5.099 -26.081  0.00  0.00    -0.000 C 
ENDBRANCH  18  19
ENDBRANCH   5  18
TORSDOF 3
ENDMDL
MODEL 6
REMARK VINA RESULT:     -10.6      3.815      8.981
REMARK  Name = 11313622
REMARK  3 active torsions:
REMARK  status: ('A' for Active; 'I' for Inactive)
REMARK    1  A    between atoms: N_4  and  C_8
REMARK    2  A    between atoms: N_5  and  C_18
REMARK    3  A    between atoms: C_18  and  C_19
REMARK                            x       y       z     vdW  Elec       q    Type
REMARK                         _______ _______ _______ _____ _____    ______ ____
ROOT
ATOM      1  S   UNL     1      34.911 -10.346 -24.611  0.00  0.00    +0.060 S 
ATOM      2  O   UNL     1      31.804 -11.511 -22.782  0.00  0.00    -0.245 OA
ATOM      3  O   UNL     1      34.779  -7.990 -23.466  0.00  0.00    -0.258 OA
ATOM      4  N   UNL     1      33.688 -11.461 -24.179  0.00  0.00    -0.226 N 
ATOM      5  N   UNL     1      33.150  -9.597 -22.944  0.00  0.00    -0.237 N 
ATOM      6  C   UNL     1      32.776 -10.921 -23.250  0.00  0.00    +0.344 A 
ATOM      7  C   UNL     1      34.268  -9.096 -23.569  0.00  0.00    +0.312 A 
ENDROOT
BRANCH   4   8
ATOM      8  C   UNL     1      33.601 -12.762 -24.691  0.00  0.00    +0.075 C 
ATOM      9  C   UNL     1      33.880 -13.888 -23.899  0.00  0.00    +0.017 C 
ATOM     10  C   UNL     1      33.777 -15.178 -24.470  0.00  0.00    +0.001 C 
ATOM     11  C   UNL     1      33.227 -12.905 -26.027  0.00  0.00    +0.018 C 
ATOM     12  C   UNL     1      34.259 -13.762 -22.552  0.00  0.00    +0.001 C 
ATOM     13  C   UNL     1      33.399 -15.305 -25.817  0.00  0.00    +0.000 C 
ATOM     14  C   UNL     1      33.126 -14.174 -26.589  0.00  0.00    +0.002 C 
ATOM     15  C   UNL     1      34.057 -16.304 -23.680  0.00  0.00    +0.000 C 
ATOM     16  C   UNL     1      34.531 -14.892 -21.781  0.00  0.00    +0.000 C 
ATOM     17  C   UNL     1      34.431 -16.161 -22.343  0.00  0.00    +0.000 C 
ENDBRANCH   4   8
BRANCH   5  18
ATOM     18  C   UNL     1      32.370  -8.809 -22.007  0.00  0.00    +0.141 C 
BRANCH  18  19
ATOM     19  C   UNL     1      31.900  -7.527 -22.638  0.00  0.00    +0.001 C 
ATOM     20  C   UNL     1      32.089  -6.325 -21.969  0.00  0.00    -0.002 C 
ATOM     21  C   UNL     1      31.285  -7.561 -23.882  0.00  0.00    -0.002 C 
ATOM     22  C   UNL     1      31.653  -5.136 -22.553  0.00  0.00    -0.000 C 
ATOM     23  C   UNL     1      30.849  -6.372 -24.467  0.00  0.00    -0.000 C 
ATOM     24  C   UNL     1      31.034  -5.159 -23.802  0.00  0.00    -0.000 C 
ENDBRANCH  18  19
ENDBRANCH   5  18
TORSDOF 3
ENDMDL
MODEL 7
REMARK VINA RESULT:     -10.5      4.963      7.454
REMARK  Name = 11313622
REMARK  3 active torsions:
REMARK  status: ('A' for Active; 'I' for Inactive)
REMARK    1  A    between atoms: N_4  and  C_8
REMARK    2  A    between atoms: N_5  and  C_18
REMARK    3  A    between atoms: C_18  and  C_19
REMARK                            x       y       z     vdW  Elec       q    Type
REMARK                         _______ _______ _______ _____ _____    ______ ____
ROOT
ATOM      1  S   UNL     1      32.514  -7.972 -20.202  0.00  0.00    +0.060 S 
ATOM      2  O   UNL     1      30.679  -9.561 -23.111  0.00  0.00    -0.245 OA
ATOM      3  O   UNL     1      32.341 -10.184 -18.802  0.00  0.00    -0.258 OA
ATOM      4  N   UNL     1      31.818  -8.015 -21.763  0.00  0.00    -0.226 N 
ATOM      5  N   UNL     1      31.420 -10.133 -20.960  0.00  0.00    -0.237 N 
ATOM      6  C   UNL     1      31.245  -9.267 -22.060  0.00  0.00    +0.344 A 
ATOM      7  C   UNL     1      32.076  -9.632 -19.860  0.00  0.00    +0.312 A 
ENDROOT
BRANCH   4   8
ATOM      8  C   UNL     1      31.817  -6.928 -22.648  0.00  0.00    +0.075 C 
ATOM      9  C   UNL     1      32.799  -6.783 -23.641  0.00  0.00    +0.017 C 
ATOM     10  C   UNL     1      32.749  -5.664 -24.505  0.00  0.00    +0.001 C 
ATOM     11  C   UNL     1      30.800  -5.985 -22.507  0.00  0.00    +0.018 C 
ATOM     12  C   UNL     1      33.831  -7.724 -23.795  0.00  0.00    +0.001 C 
ATOM     13  C   UNL     1      31.718  -4.722 -24.350  0.00  0.00    +0.000 C 
ATOM     14  C   UNL     1      30.750  -4.884 -23.357  0.00  0.00    +0.002 C 
ATOM     15  C   UNL     1      33.731  -5.517 -25.498  0.00  0.00    +0.000 C 
ATOM     16  C   UNL     1      34.798  -7.562 -24.788  0.00  0.00    +0.000 C 
ATOM     17  C   UNL     1      34.748  -6.462 -25.638  0.00  0.00    +0.000 C 
ENDBRANCH   4   8
BRANCH   5  18
ATOM     18  C   UNL     1      30.916 -11.493 -21.006  0.00  0.00    +0.141 C 
BRANCH  18  19
ATOM     19  C   UNL     1      31.981 -12.449 -21.468  0.00  0.00    +0.001 C 
ATOM     20  C   UNL     1      32.488 -12.340 -22.756  0.00  0.00    -0.002 C 
ATOM     21  C   UNL     1      32.445 -13.429 -20.599  0.00  0.00    -0.002 C 
ATOM     22  C   UNL     1      33.476 -13.227 -23.184  0.00  0.00    -0.000 C 
ATOM     23  C   UNL     1      33.433 -14.315 -21.027  0.00  0.00    -0.000 C 
ATOM     24  C   UNL     1      33.949 -14.214 -22.320  0.00  0.00    -0.000 C 
ENDBRANCH  18  19
ENDBRANCH   5  18
TORSDOF 3
ENDMDL
MODEL 8
REMARK VINA RESULT:     -10.4      4.889      7.605
REMARK  Name = 11313622
REMARK  3 active torsions:
REMARK  status: ('A' for Active; 'I' for Inactive)
REMARK    1  A    between atoms: N_4  and  C_8
REMARK    2  A    between atoms: N_5  and  C_18
REMARK    3  A    between atoms: C_18  and  C_19
REMARK                            x       y       z     vdW  Elec       q    Type
REMARK                         _______ _______ _______ _____ _____    ______ ____
ROOT
ATOM      1  S   UNL     1      32.958  -7.864 -20.763  0.00  0.00    +0.060 S 
ATOM      2  O   UNL     1      31.732  -9.912 -23.705  0.00  0.00    -0.245 OA
ATOM      3  O   UNL     1      31.863  -9.534 -19.063  0.00  0.00    -0.258 OA
ATOM      4  N   UNL     1      32.760  -8.242 -22.420  0.00  0.00    -0.226 N 
ATOM      5  N   UNL     1      31.653  -9.957 -21.361  0.00  0.00    -0.237 N 
ATOM      6  C   UNL     1      32.018  -9.423 -22.614  0.00  0.00    +0.344 A 
ATOM      7  C   UNL     1      32.058  -9.271 -20.240  0.00  0.00    +0.312 A 
ENDROOT
BRANCH   4   8
ATOM      8  C   UNL     1      33.277  -7.464 -23.464  0.00  0.00    +0.075 C 
ATOM      9  C   UNL     1      32.570  -6.371 -23.991  0.00  0.00    +0.017 C 
ATOM     10  C   UNL     1      33.141  -5.622 -25.047  0.00  0.00    +0.001 C 
ATOM     11  C   UNL     1      34.528  -7.815 -23.970  0.00  0.00    +0.018 C 
ATOM     12  C   UNL     1      31.308  -6.005 -23.493  0.00  0.00    +0.001 C 
ATOM     13  C   UNL     1      34.402  -5.988 -25.545  0.00  0.00    +0.000 C 
ATOM     14  C   UNL     1      35.090  -7.078 -25.009  0.00  0.00    +0.002 C 
ATOM     15  C   UNL     1      32.434  -4.529 -25.575  0.00  0.00    +0.000 C 
ATOM     16  C   UNL     1      30.621  -4.915 -24.029  0.00  0.00    +0.000 C 
ATOM     17  C   UNL     1      31.182  -4.179 -25.068  0.00  0.00    +0.000 C 
ENDBRANCH   4   8
BRANCH   5  18
ATOM     18  C   UNL     1      30.876 -11.180 -21.280  0.00  0.00    +0.141 C 
BRANCH  18  19
ATOM     19  C   UNL     1      31.756 -12.391 -21.432  0.00  0.00    +0.001 C 
ATOM     20  C   UNL     1      32.143 -12.802 -22.700  0.00  0.00    -0.002 C 
ATOM     21  C   UNL     1      32.171 -13.081 -20.301  0.00  0.00    -0.002 C 
ATOM     22  C   UNL     1      32.959 -13.924 -22.841  0.00  0.00    -0.000 C 
ATOM     23  C   UNL     1      32.988 -14.203 -20.441  0.00  0.00    -0.000 C 
ATOM     24  C   UNL     1      33.381 -14.625 -21.712  0.00  0.00    -0.000 C 
ENDBRANCH  18  19
ENDBRANCH   5  18
TORSDOF 3
ENDMDL
MODEL 9
REMARK VINA RESULT:     -10.4      3.440      8.770
REMARK  Name = 11313622
REMARK  3 active torsions:
REMARK  status: ('A' for Active; 'I' for Inactive)
REMARK    1  A    between atoms: N_4  and  C_8
REMARK    2  A    between atoms: N_5  and  C_18
REMARK    3  A    between atoms: C_18  and  C_19
REMARK                            x       y       z     vdW  Elec       q    Type
REMARK                         _______ _______ _______ _____ _____    ______ ____
ROOT
ATOM      1  S   UNL     1      31.966 -12.089 -22.397  0.00  0.00    +0.060 S 
ATOM      2  O   UNL     1      34.636 -11.039 -24.871  0.00  0.00    -0.245 OA
ATOM      3  O   UNL     1      31.802  -9.652 -21.442  0.00  0.00    -0.258 OA
ATOM      4  N   UNL     1      33.092 -12.326 -23.662  0.00  0.00    -0.226 N 
ATOM      5  N   UNL     1      33.316 -10.089 -23.180  0.00  0.00    -0.237 N 
ATOM      6  C   UNL     1      33.774 -11.141 -24.000  0.00  0.00    +0.344 A 
ATOM      7  C   UNL     1      32.346 -10.387 -22.252  0.00  0.00    +0.312 A 
ENDROOT
BRANCH   4   8
ATOM      8  C   UNL     1      33.313 -13.559 -24.290  0.00  0.00    +0.075 C 
ATOM      9  C   UNL     1      33.887 -14.644 -23.608  0.00  0.00    +0.017 C 
ATOM     10  C   UNL     1      34.086 -15.865 -24.294  0.00  0.00    +0.001 C 
ATOM     11  C   UNL     1      32.941 -13.674 -25.630  0.00  0.00    +0.018 C 
ATOM     12  C   UNL     1      34.267 -14.543 -22.259  0.00  0.00    +0.001 C 
ATOM     13  C   UNL     1      33.707 -15.965 -25.643  0.00  0.00    +0.000 C 
ATOM     14  C   UNL     1      33.137 -14.876 -26.305  0.00  0.00    +0.002 C 
ATOM     15  C   UNL     1      34.662 -16.950 -23.613  0.00  0.00    +0.000 C 
ATOM     16  C   UNL     1      34.836 -15.632 -21.598  0.00  0.00    +0.000 C 
ATOM     17  C   UNL     1      35.033 -16.833 -22.273  0.00  0.00    +0.000 C 
ENDBRANCH   4   8
BRANCH   5  18
ATOM     18  C   UNL     1      33.862  -8.751 -23.325  0.00  0.00    +0.141 C 
BRANCH  18  19
ATOM     19  C   UNL     1      32.773  -7.714 -23.283  0.00  0.00    +0.001 C 
ATOM     20  C   UNL     1      31.765  -7.741 -24.238  0.00  0.00    -0.002 C 
ATOM     21  C   UNL     1      32.788  -6.745 -22.289  0.00  0.00    -0.002 C 
ATOM     22  C   UNL     1      30.756  -6.779 -24.200  0.00  0.00    -0.000 C 
ATOM     23  C   UNL     1      31.778  -5.784 -22.250  0.00  0.00    -0.000 C 
ATOM     24  C   UNL     1      30.762  -5.801 -23.206  0.00  0.00    -0.000 C 
ENDBRANCH  18  19
ENDBRANCH   5  18
TORSDOF 3
ENDMDL
