MODEL 1
REMARK VINA RESULT:     -11.6      0.000      0.000
REMARK  Name = 16102897
REMARK  8 active torsions:
REMARK  status: ('A' for Active; 'I' for Inactive)
REMARK    1  A    between atoms: C_2  and  C_19
REMARK    2  A    between atoms: C_7  and  C_9
REMARK    3  A    between atoms: C_10  and  C_16
REMARK    4  A    between atoms: C_16  and  O_17
REMARK    5  A    between atoms: C_19  and  N_22
REMARK    6  A    between atoms: C_23  and  C_25
REMARK    7  A    between atoms: C_25  and  N_29
REMARK    8  A    between atoms: C_30  and  C_35
REMARK                            x       y       z     vdW  Elec       q    Type
REMARK                         _______ _______ _______ _____ _____    ______ ____
ROOT
ATOM      1  F   UNL     1      36.561 -21.624 -19.578  0.00  0.00    -0.204 F 
ATOM      2  C   UNL     1      34.205 -21.342 -19.513  0.00  0.00    +0.023 C 
ATOM      3  C   UNL     1      35.454 -21.036 -20.052  0.00  0.00    +0.138 C 
ATOM      4  C   UNL     1      33.059 -20.725 -20.014  0.00  0.00    -0.000 C 
ATOM      5  C   UNL     1      35.558 -20.112 -21.093  0.00  0.00    +0.029 C 
ATOM      6  C   UNL     1      33.162 -19.801 -21.054  0.00  0.00    -0.000 C 
ATOM      7  C   UNL     1      34.412 -19.495 -21.594  0.00  0.00    +0.002 C 
ENDROOT
BRANCH   7   9
ATOM      8 CL   UNL     1      34.548 -14.558 -23.251  0.00  0.00    -0.082 Cl
ATOM      9  C   UNL     1      34.519 -18.538 -22.673  0.00  0.00    +0.007 C 
ATOM     10  C   UNL     1      34.481 -17.164 -22.434  0.00  0.00    +0.086 C 
ATOM     11  C   UNL     1      34.664 -19.015 -23.976  0.00  0.00    +0.000 C 
ATOM     12  C   UNL     1      34.587 -16.267 -23.498  0.00  0.00    +0.064 C 
ATOM     13  C   UNL     1      34.770 -18.119 -25.040  0.00  0.00    +0.001 C 
ATOM     14  C   UNL     1      34.732 -16.745 -24.800  0.00  0.00    +0.012 C 
BRANCH  10  16
ATOM     15  O   UNL     1      35.264 -16.542 -20.270  0.00  0.00    -0.245 OA
ATOM     16  C   UNL     1      34.332 -16.667 -21.066  0.00  0.00    +0.342 C 
BRANCH  16  17
ATOM     17  O   UNL     1      33.031 -16.359 -20.792  0.00  0.00    -0.441 OA
ATOM     18  C   UNL     1      32.770 -15.023 -20.348  0.00  0.00    +0.256 C 
ENDBRANCH  16  17
ENDBRANCH  10  16
ENDBRANCH   7   9
BRANCH   2  19
ATOM     19  C   UNL     1      34.091 -22.329 -18.400  0.00  0.00    +0.096 C 
ATOM     20  C   UNL     1      33.718 -23.741 -18.873  0.00  0.00    +0.026 C 
BRANCH  19  22
ATOM     21  O   UNL     1      34.333 -23.081 -15.601  0.00  0.00    -0.273 OA
ATOM     22  N   UNL     1      35.305 -22.405 -17.604  0.00  0.00    -0.301 N 
ATOM     23  C   UNL     1      35.307 -22.776 -16.278  0.00  0.00    +0.238 C 
ATOM     24  H   UNL     1      36.163 -22.183 -18.033  0.00  0.00    +0.150 HD
BRANCH  23  25
ATOM     25  C   UNL     1      36.665 -22.789 -15.659  0.00  0.00    +0.126 C 
ATOM     26  C   UNL     1      37.499 -21.550 -15.806  0.00  0.00    +0.029 C 
ATOM     27  C   UNL     1      37.844 -22.783 -16.588  0.00  0.00    +0.029 C 
BRANCH  25  29
ATOM     28  O   UNL     1      36.829 -25.653 -15.412  0.00  0.00    -0.266 OA
ATOM     29  N   UNL     1      36.735 -23.541 -14.444  0.00  0.00    -0.293 N 
ATOM     30  C   UNL     1      36.812 -24.925 -14.423  0.00  0.00    +0.318 C 
ATOM     31  H   UNL     1      36.727 -23.055 -13.588  0.00  0.00    +0.150 HD
BRANCH  30  35
ATOM     32  F   UNL     1      35.737 -25.194 -12.329  0.00  0.00    -0.162 F 
ATOM     33  F   UNL     1      37.905 -24.956 -12.322  0.00  0.00    -0.162 F 
ATOM     34  F   UNL     1      37.016 -26.820 -13.014  0.00  0.00    -0.162 F 
ATOM     35  C   UNL     1      36.868 -25.472 -13.028  0.00  0.00    +0.469 C 
ENDBRANCH  30  35
ENDBRANCH  25  29
ENDBRANCH  23  25
ENDBRANCH  19  22
ENDBRANCH   2  19
TORSDOF 8
ENDMDL
MODEL 2
REMARK VINA RESULT:     -10.1      3.312      4.455
REMARK  Name = 16102897
REMARK  8 active torsions:
REMARK  status: ('A' for Active; 'I' for Inactive)
REMARK    1  A    between atoms: C_2  and  C_19
REMARK    2  A    between atoms: C_7  and  C_9
REMARK    3  A    between atoms: C_10  and  C_16
REMARK    4  A    between atoms: C_16  and  O_17
REMARK    5  A    between atoms: C_19  and  N_22
REMARK    6  A    between atoms: C_23  and  C_25
REMARK    7  A    between atoms: C_25  and  N_29
REMARK    8  A    between atoms: C_30  and  C_35
REMARK                            x       y       z     vdW  Elec       q    Type
REMARK                         _______ _______ _______ _____ _____    ______ ____
ROOT
ATOM      1  F   UNL     1      32.618 -20.730 -20.585  0.00  0.00    -0.204 F 
ATOM      2  C   UNL     1      34.869 -19.978 -20.507  0.00  0.00    +0.023 C 
ATOM      3  C   UNL     1      33.512 -19.740 -20.722  0.00  0.00    +0.138 C 
ATOM      4  C   UNL     1      35.791 -18.942 -20.651  0.00  0.00    -0.000 C 
ATOM      5  C   UNL     1      33.075 -18.464 -21.082  0.00  0.00    +0.029 C 
ATOM      6  C   UNL     1      35.355 -17.667 -21.012  0.00  0.00    -0.000 C 
ATOM      7  C   UNL     1      33.998 -17.428 -21.227  0.00  0.00    +0.002 C 
ENDROOT
BRANCH   7   9
ATOM      8 CL   UNL     1      33.787 -13.538 -24.687  0.00  0.00    -0.082 Cl
ATOM      9  C   UNL     1      33.547 -16.105 -21.599  0.00  0.00    +0.007 C 
ATOM     10  C   UNL     1      33.868 -15.548 -22.837  0.00  0.00    +0.086 C 
ATOM     11  C   UNL     1      32.773 -15.384 -20.690  0.00  0.00    +0.000 C 
ATOM     12  C   UNL     1      33.416 -14.269 -23.166  0.00  0.00    +0.064 C 
ATOM     13  C   UNL     1      32.321 -14.105 -21.018  0.00  0.00    +0.001 C 
ATOM     14  C   UNL     1      32.643 -13.549 -22.256  0.00  0.00    +0.012 C 
BRANCH  10  16
ATOM     15  O   UNL     1      35.901 -16.209 -23.891  0.00  0.00    -0.245 OA
ATOM     16  C   UNL     1      34.677 -16.308 -23.790  0.00  0.00    +0.342 C 
BRANCH  16  17
ATOM     17  O   UNL     1      33.901 -17.141 -24.544  0.00  0.00    -0.441 OA
ATOM     18  C   UNL     1      34.444 -18.434 -24.833  0.00  0.00    +0.256 C 
ENDBRANCH  16  17
ENDBRANCH  10  16
ENDBRANCH   7   9
BRANCH   2  19
ATOM     19  C   UNL     1      35.337 -21.341 -20.123  0.00  0.00    +0.096 C 
ATOM     20  C   UNL     1      36.864 -21.501 -20.179  0.00  0.00    +0.026 C 
BRANCH  19  22
ATOM     21  O   UNL     1      33.928 -23.776 -19.386  0.00  0.00    -0.273 OA
ATOM     22  N   UNL     1      34.873 -21.732 -18.802  0.00  0.00    -0.301 N 
ATOM     23  C   UNL     1      34.212 -22.917 -18.562  0.00  0.00    +0.238 C 
ATOM     24  H   UNL     1      35.040 -21.124 -18.046  0.00  0.00    +0.150 HD
BRANCH  23  25
ATOM     25  C   UNL     1      33.830 -23.113 -17.132  0.00  0.00    +0.126 C 
ATOM     26  C   UNL     1      34.833 -22.711 -16.091  0.00  0.00    +0.029 C 
ATOM     27  C   UNL     1      34.574 -24.164 -16.361  0.00  0.00    +0.029 C 
BRANCH  25  29
ATOM     28  O   UNL     1      32.287 -24.250 -14.984  0.00  0.00    -0.266 OA
ATOM     29  N   UNL     1      32.437 -22.911 -16.879  0.00  0.00    -0.293 N 
ATOM     30  C   UNL     1      31.776 -23.503 -15.813  0.00  0.00    +0.318 C 
ATOM     31  H   UNL     1      31.927 -22.328 -17.486  0.00  0.00    +0.150 HD
BRANCH  30  35
ATOM     32  F   UNL     1      29.952 -22.405 -16.853  0.00  0.00    -0.162 F 
ATOM     33  F   UNL     1      30.015 -22.402 -14.672  0.00  0.00    -0.162 F 
ATOM     34  F   UNL     1      29.522 -24.232 -15.746  0.00  0.00    -0.162 F 
ATOM     35  C   UNL     1      30.322 -23.137 -15.771  0.00  0.00    +0.469 C 
ENDBRANCH  30  35
ENDBRANCH  25  29
ENDBRANCH  23  25
ENDBRANCH  19  22
ENDBRANCH   2  19
TORSDOF 8
ENDMDL
MODEL 3
REMARK VINA RESULT:     -10.0      2.041      3.608
REMARK  Name = 16102897
REMARK  8 active torsions:
REMARK  status: ('A' for Active; 'I' for Inactive)
REMARK    1  A    between atoms: C_2  and  C_19
REMARK    2  A    between atoms: C_7  and  C_9
REMARK    3  A    between atoms: C_10  and  C_16
REMARK    4  A    between atoms: C_16  and  O_17
REMARK    5  A    between atoms: C_19  and  N_22
REMARK    6  A    between atoms: C_23  and  C_25
REMARK    7  A    between atoms: C_25  and  N_29
REMARK    8  A    between atoms: C_30  and  C_35
REMARK                            x       y       z     vdW  Elec       q    Type
REMARK                         _______ _______ _______ _____ _____    ______ ____
ROOT
ATOM      1  F   UNL     1      32.612 -20.761 -20.544  0.00  0.00    -0.204 F 
ATOM      2  C   UNL     1      34.866 -20.018 -20.469  0.00  0.00    +0.023 C 
ATOM      3  C   UNL     1      33.509 -19.774 -20.682  0.00  0.00    +0.138 C 
ATOM      4  C   UNL     1      35.791 -18.984 -20.615  0.00  0.00    -0.000 C 
ATOM      5  C   UNL     1      33.077 -18.497 -21.042  0.00  0.00    +0.029 C 
ATOM      6  C   UNL     1      35.360 -17.708 -20.975  0.00  0.00    -0.000 C 
ATOM      7  C   UNL     1      34.003 -17.464 -21.188  0.00  0.00    +0.002 C 
ENDROOT
BRANCH   7   9
ATOM      8 CL   UNL     1      33.800 -13.575 -24.649  0.00  0.00    -0.082 Cl
ATOM      9  C   UNL     1      33.555 -16.140 -21.561  0.00  0.00    +0.007 C 
ATOM     10  C   UNL     1      33.877 -15.585 -22.799  0.00  0.00    +0.086 C 
ATOM     11  C   UNL     1      32.786 -15.416 -20.651  0.00  0.00    +0.000 C 
ATOM     12  C   UNL     1      33.429 -14.304 -23.127  0.00  0.00    +0.064 C 
ATOM     13  C   UNL     1      32.338 -14.136 -20.979  0.00  0.00    +0.001 C 
ATOM     14  C   UNL     1      32.659 -13.581 -22.217  0.00  0.00    +0.012 C 
BRANCH  10  16
ATOM     15  O   UNL     1      35.910 -16.278 -23.833  0.00  0.00    -0.245 OA
ATOM     16  C   UNL     1      34.682 -16.348 -23.753  0.00  0.00    +0.342 C 
BRANCH  16  17
ATOM     17  O   UNL     1      33.898 -17.146 -24.535  0.00  0.00    -0.441 OA
ATOM     18  C   UNL     1      34.392 -18.463 -24.804  0.00  0.00    +0.256 C 
ENDBRANCH  16  17
ENDBRANCH  10  16
ENDBRANCH   7   9
BRANCH   2  19
ATOM     19  C   UNL     1      35.331 -21.382 -20.085  0.00  0.00    +0.096 C 
ATOM     20  C   UNL     1      36.859 -21.504 -19.995  0.00  0.00    +0.026 C 
BRANCH  19  22
ATOM     21  O   UNL     1      33.970 -23.898 -19.559  0.00  0.00    -0.273 OA
ATOM     22  N   UNL     1      34.749 -21.830 -18.830  0.00  0.00    -0.301 N 
ATOM     23  C   UNL     1      34.124 -23.049 -18.689  0.00  0.00    +0.238 C 
ATOM     24  H   UNL     1      34.807 -21.236 -18.047  0.00  0.00    +0.150 HD
BRANCH  23  25
ATOM     25  C   UNL     1      33.604 -23.302 -17.313  0.00  0.00    +0.126 C 
ATOM     26  C   UNL     1      32.147 -23.637 -17.179  0.00  0.00    +0.029 C 
ATOM     27  C   UNL     1      32.651 -22.293 -16.742  0.00  0.00    +0.029 C 
BRANCH  25  29
ATOM     28  O   UNL     1      35.881 -22.072 -16.051  0.00  0.00    -0.266 OA
ATOM     29  N   UNL     1      34.552 -23.938 -16.451  0.00  0.00    -0.293 N 
ATOM     30  C   UNL     1      35.622 -23.261 -15.886  0.00  0.00    +0.318 C 
ATOM     31  H   UNL     1      34.439 -24.896 -16.251  0.00  0.00    +0.150 HD
BRANCH  30  35
ATOM     32  F   UNL     1      37.766 -24.161 -15.431  0.00  0.00    -0.162 F 
ATOM     33  F   UNL     1      36.040 -25.439 -15.050  0.00  0.00    -0.162 F 
ATOM     34  F   UNL     1      36.467 -23.760 -13.728  0.00  0.00    -0.162 F 
ATOM     35  C   UNL     1      36.470 -24.152 -15.027  0.00  0.00    +0.469 C 
ENDBRANCH  30  35
ENDBRANCH  25  29
ENDBRANCH  23  25
ENDBRANCH  19  22
ENDBRANCH   2  19
TORSDOF 8
ENDMDL
MODEL 4
REMARK VINA RESULT:      -9.7      1.846      2.913
REMARK  Name = 16102897
REMARK  8 active torsions:
REMARK  status: ('A' for Active; 'I' for Inactive)
REMARK    1  A    between atoms: C_2  and  C_19
REMARK    2  A    between atoms: C_7  and  C_9
REMARK    3  A    between atoms: C_10  and  C_16
REMARK    4  A    between atoms: C_16  and  O_17
REMARK    5  A    between atoms: C_19  and  N_22
REMARK    6  A    between atoms: C_23  and  C_25
REMARK    7  A    between atoms: C_25  and  N_29
REMARK    8  A    between atoms: C_30  and  C_35
REMARK                            x       y       z     vdW  Elec       q    Type
REMARK                         _______ _______ _______ _____ _____    ______ ____
ROOT
ATOM      1  F   UNL     1      32.904 -21.458 -19.790  0.00  0.00    -0.204 F 
ATOM      2  C   UNL     1      35.240 -21.033 -19.788  0.00  0.00    +0.023 C 
ATOM      3  C   UNL     1      33.954 -20.770 -20.261  0.00  0.00    +0.138 C 
ATOM      4  C   UNL     1      36.326 -20.312 -20.283  0.00  0.00    -0.000 C 
ATOM      5  C   UNL     1      33.755 -19.787 -21.231  0.00  0.00    +0.029 C 
ATOM      6  C   UNL     1      36.127 -19.330 -21.253  0.00  0.00    -0.000 C 
ATOM      7  C   UNL     1      34.842 -19.067 -21.727  0.00  0.00    +0.002 C 
ENDROOT
BRANCH   7   9
ATOM      8 CL   UNL     1      33.762 -14.131 -22.995  0.00  0.00    -0.082 Cl
ATOM      9  C   UNL     1      34.636 -18.048 -22.732  0.00  0.00    +0.007 C 
ATOM     10  C   UNL     1      34.331 -16.732 -22.383  0.00  0.00    +0.086 C 
ATOM     11  C   UNL     1      34.748 -18.405 -24.076  0.00  0.00    +0.000 C 
ATOM     12  C   UNL     1      34.139 -15.773 -23.378  0.00  0.00    +0.064 C 
ATOM     13  C   UNL     1      34.555 -17.445 -25.071  0.00  0.00    +0.001 C 
ATOM     14  C   UNL     1      34.251 -16.130 -24.722  0.00  0.00    +0.012 C 
BRANCH  10  16
ATOM     15  O   UNL     1      35.179 -16.122 -20.240  0.00  0.00    -0.245 OA
ATOM     16  C   UNL     1      34.217 -16.361 -20.973  0.00  0.00    +0.342 C 
BRANCH  16  17
ATOM     17  O   UNL     1      32.910 -16.311 -20.579  0.00  0.00    -0.441 OA
ATOM     18  C   UNL     1      32.452 -15.067 -20.040  0.00  0.00    +0.256 C 
ENDBRANCH  16  17
ENDBRANCH  10  16
ENDBRANCH   7   9
BRANCH   2  19
ATOM     19  C   UNL     1      35.456 -22.083 -18.751  0.00  0.00    +0.096 C 
ATOM     20  C   UNL     1      36.734 -21.873 -17.926  0.00  0.00    +0.026 C 
BRANCH  19  22
ATOM     21  O   UNL     1      33.754 -24.405 -18.337  0.00  0.00    -0.273 OA
ATOM     22  N   UNL     1      34.326 -22.204 -17.844  0.00  0.00    -0.301 N 
ATOM     23  C   UNL     1      33.583 -23.358 -17.725  0.00  0.00    +0.238 C 
ATOM     24  H   UNL     1      34.083 -21.427 -17.291  0.00  0.00    +0.150 HD
BRANCH  23  25
ATOM     25  C   UNL     1      32.473 -23.258 -16.732  0.00  0.00    +0.126 C 
ATOM     26  C   UNL     1      31.071 -23.368 -17.255  0.00  0.00    +0.029 C 
ATOM     27  C   UNL     1      31.599 -22.040 -16.799  0.00  0.00    +0.029 C 
BRANCH  25  29
ATOM     28  O   UNL     1      34.751 -22.627 -15.089  0.00  0.00    -0.266 OA
ATOM     29  N   UNL     1      32.792 -23.823 -15.457  0.00  0.00    -0.293 N 
ATOM     30  C   UNL     1      33.917 -23.455 -14.735  0.00  0.00    +0.318 C 
ATOM     31  H   UNL     1      32.188 -24.502 -15.078  0.00  0.00    +0.150 HD
BRANCH  30  35
ATOM     32  F   UNL     1      35.131 -24.986 -13.394  0.00  0.00    -0.162 F 
ATOM     33  F   UNL     1      32.957 -25.001 -13.217  0.00  0.00    -0.162 F 
ATOM     34  F   UNL     1      34.107 -23.354 -12.375  0.00  0.00    -0.162 F 
ATOM     35  C   UNL     1      34.027 -24.196 -13.435  0.00  0.00    +0.469 C 
ENDBRANCH  30  35
ENDBRANCH  25  29
ENDBRANCH  23  25
ENDBRANCH  19  22
ENDBRANCH   2  19
TORSDOF 8
ENDMDL
MODEL 5
REMARK VINA RESULT:      -9.7      9.423     14.619
REMARK  Name = 16102897
REMARK  8 active torsions:
REMARK  status: ('A' for Active; 'I' for Inactive)
REMARK    1  A    between atoms: C_2  and  C_19
REMARK    2  A    between atoms: C_7  and  C_9
REMARK    3  A    between atoms: C_10  and  C_16
REMARK    4  A    between atoms: C_16  and  O_17
REMARK    5  A    between atoms: C_19  and  N_22
REMARK    6  A    between atoms: C_23  and  C_25
REMARK    7  A    between atoms: C_25  and  N_29
REMARK    8  A    between atoms: C_30  and  C_35
REMARK                            x       y       z     vdW  Elec       q    Type
REMARK                         _______ _______ _______ _____ _____    ______ ____
ROOT
ATOM      1  F   UNL     1      30.597 -11.854 -21.321  0.00  0.00    -0.204 F 
ATOM      2  C   UNL     1      32.269 -10.744 -22.589  0.00  0.00    +0.023 C 
ATOM      3  C   UNL     1      31.621 -11.911 -22.185  0.00  0.00    +0.138 C 
ATOM      4  C   UNL     1      33.332 -10.812 -23.489  0.00  0.00    -0.000 C 
ATOM      5  C   UNL     1      32.036 -13.147 -22.680  0.00  0.00    +0.029 C 
ATOM      6  C   UNL     1      33.749 -12.049 -23.983  0.00  0.00    -0.000 C 
ATOM      7  C   UNL     1      33.100 -13.216 -23.579  0.00  0.00    +0.002 C 
ENDROOT
BRANCH   7   9
ATOM      8 CL   UNL     1      35.307 -17.874 -22.818  0.00  0.00    -0.082 Cl
ATOM      9  C   UNL     1      33.531 -14.497 -24.093  0.00  0.00    +0.007 C 
ATOM     10  C   UNL     1      34.143 -15.443 -23.270  0.00  0.00    +0.086 C 
ATOM     11  C   UNL     1      33.323 -14.779 -25.443  0.00  0.00    +0.000 C 
ATOM     12  C   UNL     1      34.547 -16.670 -23.798  0.00  0.00    +0.064 C 
ATOM     13  C   UNL     1      33.726 -16.006 -25.971  0.00  0.00    +0.001 C 
ATOM     14  C   UNL     1      34.338 -16.951 -25.147  0.00  0.00    +0.012 C 
BRANCH  10  16
ATOM     15  O   UNL     1      35.250 -14.409 -21.430  0.00  0.00    -0.245 OA
ATOM     16  C   UNL     1      34.358 -15.146 -21.854  0.00  0.00    +0.342 C 
BRANCH  16  17
ATOM     17  O   UNL     1      33.443 -15.787 -21.070  0.00  0.00    -0.441 OA
ATOM     18  C   UNL     1      32.825 -15.008 -20.040  0.00  0.00    +0.256 C 
ENDBRANCH  16  17
ENDBRANCH  10  16
ENDBRANCH   7   9
BRANCH   2  19
ATOM     19  C   UNL     1      31.827  -9.421 -22.061  0.00  0.00    +0.096 C 
ATOM     20  C   UNL     1      31.971  -9.293 -20.538  0.00  0.00    +0.026 C 
BRANCH  19  22
ATOM     21  O   UNL     1      30.918  -7.796 -24.296  0.00  0.00    -0.273 OA
ATOM     22  N   UNL     1      32.524  -8.313 -22.693  0.00  0.00    -0.301 N 
ATOM     23  C   UNL     1      31.999  -7.606 -23.753  0.00  0.00    +0.238 C 
ATOM     24  H   UNL     1      33.409  -8.056 -22.348  0.00  0.00    +0.150 HD
BRANCH  23  25
ATOM     25  C   UNL     1      32.885  -6.509 -24.242  0.00  0.00    +0.126 C 
ATOM     26  C   UNL     1      33.803  -6.825 -25.386  0.00  0.00    +0.029 C 
ATOM     27  C   UNL     1      34.359  -6.658 -24.002  0.00  0.00    +0.029 C 
BRANCH  25  29
ATOM     28  O   UNL     1      31.769  -5.272 -21.893  0.00  0.00    -0.266 OA
ATOM     29  N   UNL     1      32.289  -5.211 -24.159  0.00  0.00    -0.293 N 
ATOM     30  C   UNL     1      31.776  -4.696 -22.978  0.00  0.00    +0.318 C 
ATOM     31  H   UNL     1      32.240  -4.661 -24.974  0.00  0.00    +0.150 HD
BRANCH  30  35
ATOM     32  F   UNL     1      30.648  -3.160 -24.386  0.00  0.00    -0.162 F 
ATOM     33  F   UNL     1      32.146  -2.356 -23.019  0.00  0.00    -0.162 F 
ATOM     34  F   UNL     1      30.230  -3.053 -22.249  0.00  0.00    -0.162 F 
ATOM     35  C   UNL     1      31.203  -3.322 -23.157  0.00  0.00    +0.469 C 
ENDBRANCH  30  35
ENDBRANCH  25  29
ENDBRANCH  23  25
ENDBRANCH  19  22
ENDBRANCH   2  19
TORSDOF 8
ENDMDL
MODEL 6
REMARK VINA RESULT:      -9.4      3.464      4.548
REMARK  Name = 16102897
REMARK  8 active torsions:
REMARK  status: ('A' for Active; 'I' for Inactive)
REMARK    1  A    between atoms: C_2  and  C_19
REMARK    2  A    between atoms: C_7  and  C_9
REMARK    3  A    between atoms: C_10  and  C_16
REMARK    4  A    between atoms: C_16  and  O_17
REMARK    5  A    between atoms: C_19  and  N_22
REMARK    6  A    between atoms: C_23  and  C_25
REMARK    7  A    between atoms: C_25  and  N_29
REMARK    8  A    between atoms: C_30  and  C_35
REMARK                            x       y       z     vdW  Elec       q    Type
REMARK                         _______ _______ _______ _____ _____    ______ ____
ROOT
ATOM      1  F   UNL     1      32.478 -21.408 -19.047  0.00  0.00    -0.204 F 
ATOM      2  C   UNL     1      34.841 -21.503 -19.271  0.00  0.00    +0.023 C 
ATOM      3  C   UNL     1      33.596 -21.021 -19.679  0.00  0.00    +0.138 C 
ATOM      4  C   UNL     1      35.997 -21.094 -19.933  0.00  0.00    -0.000 C 
ATOM      5  C   UNL     1      33.509 -20.132 -20.750  0.00  0.00    +0.029 C 
ATOM      6  C   UNL     1      35.911 -20.205 -21.005  0.00  0.00    -0.000 C 
ATOM      7  C   UNL     1      34.666 -19.724 -21.413  0.00  0.00    +0.002 C 
ENDROOT
BRANCH   7   9
ATOM      8 CL   UNL     1      34.188 -14.858 -23.212  0.00  0.00    -0.082 Cl
ATOM      9  C   UNL     1      34.577 -18.801 -22.523  0.00  0.00    +0.007 C 
ATOM     10  C   UNL     1      34.440 -17.428 -22.320  0.00  0.00    +0.086 C 
ATOM     11  C   UNL     1      34.630 -19.312 -23.820  0.00  0.00    +0.000 C 
ATOM     12  C   UNL     1      34.356 -16.566 -23.414  0.00  0.00    +0.064 C 
ATOM     13  C   UNL     1      34.546 -18.449 -24.914  0.00  0.00    +0.001 C 
ATOM     14  C   UNL     1      34.410 -17.076 -24.710  0.00  0.00    +0.012 C 
BRANCH  10  16
ATOM     15  O   UNL     1      35.377 -16.709 -20.249  0.00  0.00    -0.245 OA
ATOM     16  C   UNL     1      34.387 -16.896 -20.958  0.00  0.00    +0.342 C 
BRANCH  16  17
ATOM     17  O   UNL     1      33.102 -16.631 -20.581  0.00  0.00    -0.441 OA
ATOM     18  C   UNL     1      32.798 -15.271 -20.253  0.00  0.00    +0.256 C 
ENDBRANCH  16  17
ENDBRANCH  10  16
ENDBRANCH   7   9
BRANCH   2  19
ATOM     19  C   UNL     1      34.936 -22.454 -18.126  0.00  0.00    +0.096 C 
ATOM     20  C   UNL     1      36.230 -22.302 -17.313  0.00  0.00    +0.026 C 
BRANCH  19  22
ATOM     21  O   UNL     1      33.880 -24.508 -16.359  0.00  0.00    -0.273 OA
ATOM     22  N   UNL     1      33.801 -22.350 -17.225  0.00  0.00    -0.301 N 
ATOM     23  C   UNL     1      33.382 -23.391 -16.426  0.00  0.00    +0.238 C 
ATOM     24  H   UNL     1      33.310 -21.497 -17.184  0.00  0.00    +0.150 HD
BRANCH  23  25
ATOM     25  C   UNL     1      32.198 -23.060 -15.579  0.00  0.00    +0.126 C 
ATOM     26  C   UNL     1      32.393 -22.047 -14.489  0.00  0.00    +0.029 C 
ATOM     27  C   UNL     1      32.235 -23.499 -14.144  0.00  0.00    +0.029 C 
BRANCH  25  29
ATOM     28  O   UNL     1      29.773 -24.375 -14.754  0.00  0.00    -0.266 OA
ATOM     29  N   UNL     1      30.958 -23.094 -16.291  0.00  0.00    -0.293 N 
ATOM     30  C   UNL     1      29.837 -23.756 -15.813  0.00  0.00    +0.318 C 
ATOM     31  H   UNL     1      30.898 -22.628 -17.156  0.00  0.00    +0.150 HD
BRANCH  30  35
ATOM     32  F   UNL     1      28.311 -24.853 -17.254  0.00  0.00    -0.162 F 
ATOM     33  F   UNL     1      28.936 -22.836 -17.802  0.00  0.00    -0.162 F 
ATOM     34  F   UNL     1      27.571 -23.138 -16.131  0.00  0.00    -0.162 F 
ATOM     35  C   UNL     1      28.669 -23.645 -16.746  0.00  0.00    +0.469 C 
ENDBRANCH  30  35
ENDBRANCH  25  29
ENDBRANCH  23  25
ENDBRANCH  19  22
ENDBRANCH   2  19
TORSDOF 8
ENDMDL
MODEL 7
REMARK VINA RESULT:      -9.4      5.036     10.432
REMARK  Name = 16102897
REMARK  8 active torsions:
REMARK  status: ('A' for Active; 'I' for Inactive)
REMARK    1  A    between atoms: C_2  and  C_19
REMARK    2  A    between atoms: C_7  and  C_9
REMARK    3  A    between atoms: C_10  and  C_16
REMARK    4  A    between atoms: C_16  and  O_17
REMARK    5  A    between atoms: C_19  and  N_22
REMARK    6  A    between atoms: C_23  and  C_25
REMARK    7  A    between atoms: C_25  and  N_29
REMARK    8  A    between atoms: C_30  and  C_35
REMARK                            x       y       z     vdW  Elec       q    Type
REMARK                         _______ _______ _______ _____ _____    ______ ____
ROOT
ATOM      1  F   UNL     1      33.045 -19.866 -21.534  0.00  0.00    -0.204 F 
ATOM      2  C   UNL     1      35.386 -19.523 -21.732  0.00  0.00    +0.023 C 
ATOM      3  C   UNL     1      34.283 -20.033 -21.048  0.00  0.00    +0.138 C 
ATOM      4  C   UNL     1      36.670 -19.703 -21.219  0.00  0.00    -0.000 C 
ATOM      5  C   UNL     1      34.464 -20.725 -19.850  0.00  0.00    +0.029 C 
ATOM      6  C   UNL     1      36.851 -20.393 -20.020  0.00  0.00    -0.000 C 
ATOM      7  C   UNL     1      35.748 -20.904 -19.336  0.00  0.00    +0.002 C 
ENDROOT
BRANCH   7   9
ATOM      8 CL   UNL     1      34.132 -24.454 -15.883  0.00  0.00    -0.082 Cl
ATOM      9  C   UNL     1      35.937 -21.620 -18.094  0.00  0.00    +0.007 C 
ATOM     10  C   UNL     1      35.023 -22.581 -17.662  0.00  0.00    +0.086 C 
ATOM     11  C   UNL     1      37.063 -21.333 -17.322  0.00  0.00    +0.000 C 
ATOM     12  C   UNL     1      35.234 -23.255 -16.458  0.00  0.00    +0.064 C 
ATOM     13  C   UNL     1      37.274 -22.006 -16.118  0.00  0.00    +0.001 C 
ATOM     14  C   UNL     1      36.360 -22.967 -15.687  0.00  0.00    +0.012 C 
BRANCH  10  16
ATOM     15  O   UNL     1      33.827 -23.710 -19.388  0.00  0.00    -0.245 OA
ATOM     16  C   UNL     1      33.844 -22.882 -18.475  0.00  0.00    +0.342 C 
BRANCH  16  17
ATOM     17  O   UNL     1      32.772 -22.132 -18.087  0.00  0.00    -0.441 OA
ATOM     18  C   UNL     1      31.814 -22.775 -17.239  0.00  0.00    +0.256 C 
ENDBRANCH  16  17
ENDBRANCH  10  16
ENDBRANCH   7   9
BRANCH   2  19
ATOM     19  C   UNL     1      35.195 -18.783 -23.014  0.00  0.00    +0.096 C 
ATOM     20  C   UNL     1      34.570 -19.640 -24.125  0.00  0.00    +0.026 C 
BRANCH  19  22
ATOM     21  O   UNL     1      35.972 -16.042 -23.597  0.00  0.00    -0.273 OA
ATOM     22  N   UNL     1      34.397 -17.580 -22.844  0.00  0.00    -0.301 N 
ATOM     23  C   UNL     1      34.866 -16.322 -23.154  0.00  0.00    +0.238 C 
ATOM     24  H   UNL     1      33.482 -17.669 -22.492  0.00  0.00    +0.150 HD
BRANCH  23  25
ATOM     25  C   UNL     1      33.876 -15.234 -22.903  0.00  0.00    +0.126 C 
ATOM     26  C   UNL     1      33.912 -14.568 -21.558  0.00  0.00    +0.029 C 
ATOM     27  C   UNL     1      32.793 -15.507 -21.900  0.00  0.00    +0.029 C 
BRANCH  25  29
ATOM     28  O   UNL     1      33.475 -16.213 -25.581  0.00  0.00    -0.266 OA
ATOM     29  N   UNL     1      33.575 -14.454 -24.064  0.00  0.00    -0.293 N 
ATOM     30  C   UNL     1      33.398 -15.016 -25.319  0.00  0.00    +0.318 C 
ATOM     31  H   UNL     1      33.491 -13.477 -23.967  0.00  0.00    +0.150 HD
BRANCH  30  35
ATOM     32  F   UNL     1      33.361 -12.727 -25.930  0.00  0.00    -0.162 F 
ATOM     33  F   UNL     1      31.795 -14.009 -26.744  0.00  0.00    -0.162 F 
ATOM     34  F   UNL     1      33.836 -14.173 -27.490  0.00  0.00    -0.162 F 
ATOM     35  C   UNL     1      33.098 -13.986 -26.367  0.00  0.00    +0.469 C 
ENDBRANCH  30  35
ENDBRANCH  25  29
ENDBRANCH  23  25
ENDBRANCH  19  22
ENDBRANCH   2  19
TORSDOF 8
ENDMDL
MODEL 8
REMARK VINA RESULT:      -9.3      4.134      9.964
REMARK  Name = 16102897
REMARK  8 active torsions:
REMARK  status: ('A' for Active; 'I' for Inactive)
REMARK    1  A    between atoms: C_2  and  C_19
REMARK    2  A    between atoms: C_7  and  C_9
REMARK    3  A    between atoms: C_10  and  C_16
REMARK    4  A    between atoms: C_16  and  O_17
REMARK    5  A    between atoms: C_19  and  N_22
REMARK    6  A    between atoms: C_23  and  C_25
REMARK    7  A    between atoms: C_25  and  N_29
REMARK    8  A    between atoms: C_30  and  C_35
REMARK                            x       y       z     vdW  Elec       q    Type
REMARK                         _______ _______ _______ _____ _____    ______ ____
ROOT
ATOM      1  F   UNL     1      36.851 -21.389 -18.157  0.00  0.00    -0.204 F 
ATOM      2  C   UNL     1      34.693 -22.377 -18.091  0.00  0.00    +0.023 C 
ATOM      3  C   UNL     1      35.925 -22.100 -17.498  0.00  0.00    +0.138 C 
ATOM      4  C   UNL     1      33.736 -23.116 -17.397  0.00  0.00    -0.000 C 
ATOM      5  C   UNL     1      36.200 -22.564 -16.211  0.00  0.00    +0.029 C 
ATOM      6  C   UNL     1      34.010 -23.580 -16.111  0.00  0.00    -0.000 C 
ATOM      7  C   UNL     1      35.242 -23.304 -15.518  0.00  0.00    +0.002 C 
ENDROOT
BRANCH   7   9
ATOM      8 CL   UNL     1      38.116 -26.205 -12.282  0.00  0.00    -0.082 Cl
ATOM      9  C   UNL     1      35.527 -23.784 -14.184  0.00  0.00    +0.007 C 
ATOM     10  C   UNL     1      36.578 -24.668 -13.936  0.00  0.00    +0.086 C 
ATOM     11  C   UNL     1      34.724 -23.345 -13.131  0.00  0.00    +0.000 C 
ATOM     12  C   UNL     1      36.825 -25.112 -12.637  0.00  0.00    +0.064 C 
ATOM     13  C   UNL     1      34.972 -23.789 -11.832  0.00  0.00    +0.001 C 
ATOM     14  C   UNL     1      36.023 -24.672 -11.585  0.00  0.00    +0.012 C 
BRANCH  10  16
ATOM     15  O   UNL     1      37.135 -26.066 -15.785  0.00  0.00    -0.245 OA
ATOM     16  C   UNL     1      37.420 -25.125 -15.042  0.00  0.00    +0.342 C 
BRANCH  16  17
ATOM     17  O   UNL     1      38.555 -24.373 -15.143  0.00  0.00    -0.441 OA
ATOM     18  C   UNL     1      39.798 -25.081 -15.086  0.00  0.00    +0.256 C 
ENDBRANCH  16  17
ENDBRANCH  10  16
ENDBRANCH   7   9
BRANCH   2  19
ATOM     19  C   UNL     1      34.396 -21.883 -19.467  0.00  0.00    +0.096 C 
ATOM     20  C   UNL     1      32.918 -21.527 -19.682  0.00  0.00    +0.026 C 
BRANCH  19  22
ATOM     21  O   UNL     1      33.896 -19.945 -21.577  0.00  0.00    -0.273 OA
ATOM     22  N   UNL     1      35.212 -20.735 -19.829  0.00  0.00    -0.301 N 
ATOM     23  C   UNL     1      34.880 -19.875 -20.852  0.00  0.00    +0.238 C 
ATOM     24  H   UNL     1      36.038 -20.566 -19.320  0.00  0.00    +0.150 HD
BRANCH  23  25
ATOM     25  C   UNL     1      35.860 -18.766 -21.046  0.00  0.00    +0.126 C 
ATOM     26  C   UNL     1      36.821 -18.889 -22.193  0.00  0.00    +0.029 C 
ATOM     27  C   UNL     1      37.306 -19.072 -20.785  0.00  0.00    +0.029 C 
BRANCH  25  29
ATOM     28  O   UNL     1      34.449 -16.953 -22.782  0.00  0.00    -0.266 OA
ATOM     29  N   UNL     1      35.342 -17.478 -20.701  0.00  0.00    -0.293 N 
ATOM     30  C   UNL     1      34.673 -16.671 -21.608  0.00  0.00    +0.318 C 
ATOM     31  H   UNL     1      35.467 -17.151 -19.780  0.00  0.00    +0.150 HD
BRANCH  30  35
ATOM     32  F   UNL     1      32.946 -15.417 -20.579  0.00  0.00    -0.162 F 
ATOM     33  F   UNL     1      34.326 -14.343 -21.882  0.00  0.00    -0.162 F 
ATOM     34  F   UNL     1      34.989 -15.033 -19.925  0.00  0.00    -0.162 F 
ATOM     35  C   UNL     1      34.236 -15.371 -21.001  0.00  0.00    +0.469 C 
ENDBRANCH  30  35
ENDBRANCH  25  29
ENDBRANCH  23  25
ENDBRANCH  19  22
ENDBRANCH   2  19
TORSDOF 8
ENDMDL
MODEL 9
REMARK VINA RESULT:      -9.3      1.945      3.067
REMARK  Name = 16102897
REMARK  8 active torsions:
REMARK  status: ('A' for Active; 'I' for Inactive)
REMARK    1  A    between atoms: C_2  and  C_19
REMARK    2  A    between atoms: C_7  and  C_9
REMARK    3  A    between atoms: C_10  and  C_16
REMARK    4  A    between atoms: C_16  and  O_17
REMARK    5  A    between atoms: C_19  and  N_22
REMARK    6  A    between atoms: C_23  and  C_25
REMARK    7  A    between atoms: C_25  and  N_29
REMARK    8  A    between atoms: C_30  and  C_35
REMARK                            x       y       z     vdW  Elec       q    Type
REMARK                         _______ _______ _______ _____ _____    ______ ____
ROOT
ATOM      1  F   UNL     1      37.372 -19.313 -20.548  0.00  0.00    -0.204 F 
ATOM      2  C   UNL     1      35.172 -20.204 -20.490  0.00  0.00    +0.023 C 
ATOM      3  C   UNL     1      36.049 -19.135 -20.671  0.00  0.00    +0.138 C 
ATOM      4  C   UNL     1      33.798 -20.009 -20.622  0.00  0.00    -0.000 C 
ATOM      5  C   UNL     1      35.551 -17.869 -20.984  0.00  0.00    +0.029 C 
ATOM      6  C   UNL     1      33.300 -18.744 -20.933  0.00  0.00    -0.000 C 
ATOM      7  C   UNL     1      34.177 -17.675 -21.114  0.00  0.00    +0.002 C 
ENDROOT
BRANCH   7   9
ATOM      8 CL   UNL     1      33.627 -13.747 -24.493  0.00  0.00    -0.082 Cl
ATOM      9  C   UNL     1      33.660 -16.363 -21.438  0.00  0.00    +0.007 C 
ATOM     10  C   UNL     1      33.887 -15.778 -22.684  0.00  0.00    +0.086 C 
ATOM     11  C   UNL     1      32.919 -15.681 -20.472  0.00  0.00    +0.000 C 
ATOM     12  C   UNL     1      33.374 -14.511 -22.964  0.00  0.00    +0.064 C 
ATOM     13  C   UNL     1      32.406 -14.414 -20.752  0.00  0.00    +0.001 C 
ATOM     14  C   UNL     1      32.633 -13.830 -21.998  0.00  0.00    +0.012 C 
BRANCH  10  16
ATOM     15  O   UNL     1      35.875 -16.358 -23.865  0.00  0.00    -0.245 OA
ATOM     16  C   UNL     1      34.662 -16.497 -23.695  0.00  0.00    +0.342 C 
BRANCH  16  17
ATOM     17  O   UNL     1      33.868 -17.339 -24.419  0.00  0.00    -0.441 OA
ATOM     18  C   UNL     1      34.460 -18.574 -24.837  0.00  0.00    +0.256 C 
ENDBRANCH  16  17
ENDBRANCH  10  16
ENDBRANCH   7   9
BRANCH   2  19
ATOM     19  C   UNL     1      35.702 -21.558 -20.156  0.00  0.00    +0.096 C 
ATOM     20  C   UNL     1      36.895 -21.979 -21.028  0.00  0.00    +0.026 C 
BRANCH  19  22
ATOM     21  O   UNL     1      34.414 -23.157 -18.097  0.00  0.00    -0.273 OA
ATOM     22  N   UNL     1      36.080 -21.674 -18.758  0.00  0.00    -0.301 N 
ATOM     23  C   UNL     1      35.397 -22.466 -17.861  0.00  0.00    +0.238 C 
ATOM     24  H   UNL     1      36.859 -21.164 -18.438  0.00  0.00    +0.150 HD
BRANCH  23  25
ATOM     25  C   UNL     1      35.961 -22.435 -16.480  0.00  0.00    +0.126 C 
ATOM     26  C   UNL     1      37.014 -21.406 -16.190  0.00  0.00    +0.029 C 
ATOM     27  C   UNL     1      37.393 -22.852 -16.313  0.00  0.00    +0.029 C 
BRANCH  25  29
ATOM     28  O   UNL     1      35.358 -25.069 -15.486  0.00  0.00    -0.266 OA
ATOM     29  N   UNL     1      35.010 -22.770 -15.465  0.00  0.00    -0.293 N 
ATOM     30  C   UNL     1      34.787 -24.074 -15.049  0.00  0.00    +0.318 C 
ATOM     31  H   UNL     1      34.493 -22.045 -15.046  0.00  0.00    +0.150 HD
BRANCH  30  35
ATOM     32  F   UNL     1      32.994 -23.026 -13.909  0.00  0.00    -0.162 F 
ATOM     33  F   UNL     1      34.281 -24.352 -12.751  0.00  0.00    -0.162 F 
ATOM     34  F   UNL     1      32.875 -25.183 -14.193  0.00  0.00    -0.162 F 
ATOM     35  C   UNL     1      33.739 -24.159 -13.979  0.00  0.00    +0.469 C 
ENDBRANCH  30  35
ENDBRANCH  25  29
ENDBRANCH  23  25
ENDBRANCH  19  22
ENDBRANCH   2  19
TORSDOF 8
ENDMDL
