MODEL 1
REMARK VINA RESULT:      -7.6      0.000      0.000
REMARK  Name = 2815031
REMARK  9 active torsions:
REMARK  status: ('A' for Active; 'I' for Inactive)
REMARK    1  A    between atoms: N_1  and  C_13
REMARK    2  A    between atoms: C_13  and  C_14
REMARK    3  A    between atoms: C_14  and  N_15
REMARK    4  A    between atoms: N_15  and  C_18
REMARK    5  A    between atoms: C_18  and  C_19
REMARK    6  A    between atoms: C_19  and  C_20
REMARK    7  A    between atoms: C_20  and  C_21
REMARK    8  A    between atoms: C_21  and  C_22
REMARK    9  A    between atoms: C_22  and  O_23
REMARK                            x       y       z     vdW  Elec       q    Type
REMARK                         _______ _______ _______ _____ _____    ______ ____
ROOT
ATOM      1  N   UNL     1      34.822 -19.492 -21.108  0.00  0.00    -0.274 N 
ATOM      2  N   UNL     1      32.910 -20.465 -20.563  0.00  0.00    -0.242 NA
ATOM      3  N   UNL     1      36.357 -20.709 -19.678  0.00  0.00    -0.228 NA
ATOM      4  N   UNL     1      35.172 -22.375 -18.347  0.00  0.00    -0.229 NA
ATOM      5  C   UNL     1      35.146 -20.422 -20.177  0.00  0.00    +0.150 C 
ATOM      6  C   UNL     1      33.940 -21.021 -19.848  0.00  0.00    +0.140 C 
ATOM      7  C   UNL     1      33.478 -19.545 -21.314  0.00  0.00    +0.221 C 
ATOM      8  C   UNL     1      33.981 -22.033 -18.894  0.00  0.00    +0.143 C 
ATOM      9  C   UNL     1      36.270 -21.702 -18.766  0.00  0.00    +0.253 C 
ATOM     10  N   UNL     1      32.805 -22.697 -18.501  0.00  0.00    -0.342 N 
ATOM     11  H   UNL     1      32.846 -23.412 -17.826  0.00  0.00    +0.144 HD
ATOM     12  H   UNL     1      31.942 -22.447 -18.902  0.00  0.00    +0.144 HD
ENDROOT
BRANCH   1  13
ATOM     13  C   UNL     1      35.746 -18.584 -21.780  0.00  0.00    +0.071 C 
BRANCH  13  14
ATOM     14  C   UNL     1      35.291 -18.255 -23.199  0.00  0.00    -0.060 C 
BRANCH  14  15
ATOM     15  N   UNL     1      35.362 -16.820 -23.428  0.00  0.00    +0.385 N 
ATOM     16  H   UNL     1      36.333 -16.554 -23.592  0.00  0.00    -0.084 HD
ATOM     17  H   UNL     1      34.789 -16.590 -24.241  0.00  0.00    -0.084 HD
BRANCH  15  18
ATOM     18  C   UNL     1      34.853 -16.082 -22.277  0.00  0.00    -0.082 C 
BRANCH  18  19
ATOM     19  C   UNL     1      34.439 -14.671 -22.691  0.00  0.00    -0.023 C 
BRANCH  19  20
ATOM     20  C   UNL     1      33.151 -14.694 -23.519  0.00  0.00    +0.000 C 
BRANCH  20  21
ATOM     21  C   UNL     1      33.385 -14.134 -24.925  0.00  0.00    +0.032 C 
BRANCH  21  22
ATOM     22  C   UNL     1      33.122 -15.171 -26.010  0.00  0.00    +0.137 C 
BRANCH  22  23
ATOM     23  O   UNL     1      34.189 -16.108 -26.053  0.00  0.00    -0.382 OA
ATOM     24  H   UNL     1      34.623 -16.064 -26.919  0.00  0.00    +0.210 HD
ENDBRANCH  22  23
ENDBRANCH  21  22
ENDBRANCH  20  21
ENDBRANCH  19  20
ENDBRANCH  18  19
ENDBRANCH  15  18
ENDBRANCH  14  15
ENDBRANCH  13  14
ENDBRANCH   1  13
TORSDOF 9
ENDMDL
MODEL 2
REMARK VINA RESULT:      -7.5      1.554      2.065
REMARK  Name = 2815031
REMARK  9 active torsions:
REMARK  status: ('A' for Active; 'I' for Inactive)
REMARK    1  A    between atoms: N_1  and  C_13
REMARK    2  A    between atoms: C_13  and  C_14
REMARK    3  A    between atoms: C_14  and  N_15
REMARK    4  A    between atoms: N_15  and  C_18
REMARK    5  A    between atoms: C_18  and  C_19
REMARK    6  A    between atoms: C_19  and  C_20
REMARK    7  A    between atoms: C_20  and  C_21
REMARK    8  A    between atoms: C_21  and  C_22
REMARK    9  A    between atoms: C_22  and  O_23
REMARK                            x       y       z     vdW  Elec       q    Type
REMARK                         _______ _______ _______ _____ _____    ______ ____
ROOT
ATOM      1  N   UNL     1      34.943 -19.524 -21.085  0.00  0.00    -0.274 N 
ATOM      2  N   UNL     1      33.007 -20.480 -20.600  0.00  0.00    -0.242 NA
ATOM      3  N   UNL     1      36.418 -20.735 -19.588  0.00  0.00    -0.228 NA
ATOM      4  N   UNL     1      35.175 -22.380 -18.284  0.00  0.00    -0.229 NA
ATOM      5  C   UNL     1      35.227 -20.446 -20.134  0.00  0.00    +0.150 C 
ATOM      6  C   UNL     1      34.007 -21.035 -19.842  0.00  0.00    +0.140 C 
ATOM      7  C   UNL     1      33.608 -19.571 -21.339  0.00  0.00    +0.221 C 
ATOM      8  C   UNL     1      34.007 -22.037 -18.877  0.00  0.00    +0.143 C 
ATOM      9  C   UNL     1      36.291 -21.718 -18.670  0.00  0.00    +0.253 C 
ATOM     10  N   UNL     1      32.814 -22.690 -18.520  0.00  0.00    -0.342 N 
ATOM     11  H   UNL     1      32.826 -23.398 -17.837  0.00  0.00    +0.144 HD
ATOM     12  H   UNL     1      31.966 -22.438 -18.955  0.00  0.00    +0.144 HD
ENDROOT
BRANCH   1  13
ATOM     13  C   UNL     1      35.897 -18.629 -21.733  0.00  0.00    +0.071 C 
BRANCH  13  14
ATOM     14  C   UNL     1      35.500 -18.318 -23.173  0.00  0.00    -0.060 C 
BRANCH  14  15
ATOM     15  N   UNL     1      35.507 -16.880 -23.396  0.00  0.00    +0.385 N 
ATOM     16  H   UNL     1      35.137 -16.411 -22.570  0.00  0.00    -0.084 HD
ATOM     17  H   UNL     1      36.467 -16.582 -23.574  0.00  0.00    -0.084 HD
BRANCH  15  18
ATOM     18  C   UNL     1      34.689 -16.528 -24.552  0.00  0.00    -0.082 C 
BRANCH  18  19
ATOM     19  C   UNL     1      33.831 -15.303 -24.241  0.00  0.00    -0.023 C 
BRANCH  19  20
ATOM     20  C   UNL     1      34.240 -14.666 -22.910  0.00  0.00    +0.000 C 
BRANCH  20  21
ATOM     21  C   UNL     1      33.087 -14.694 -21.903  0.00  0.00    +0.032 C 
BRANCH  21  22
ATOM     22  C   UNL     1      33.525 -15.218 -20.540  0.00  0.00    +0.137 C 
BRANCH  22  23
ATOM     23  O   UNL     1      34.915 -15.510 -20.557  0.00  0.00    -0.382 OA
ATOM     24  H   UNL     1      35.194 -15.807 -19.677  0.00  0.00    +0.210 HD
ENDBRANCH  22  23
ENDBRANCH  21  22
ENDBRANCH  20  21
ENDBRANCH  19  20
ENDBRANCH  18  19
ENDBRANCH  15  18
ENDBRANCH  14  15
ENDBRANCH  13  14
ENDBRANCH   1  13
TORSDOF 9
ENDMDL
MODEL 3
REMARK VINA RESULT:      -7.5      3.229      7.638
REMARK  Name = 2815031
REMARK  9 active torsions:
REMARK  status: ('A' for Active; 'I' for Inactive)
REMARK    1  A    between atoms: N_1  and  C_13
REMARK    2  A    between atoms: C_13  and  C_14
REMARK    3  A    between atoms: C_14  and  N_15
REMARK    4  A    between atoms: N_15  and  C_18
REMARK    5  A    between atoms: C_18  and  C_19
REMARK    6  A    between atoms: C_19  and  C_20
REMARK    7  A    between atoms: C_20  and  C_21
REMARK    8  A    between atoms: C_21  and  C_22
REMARK    9  A    between atoms: C_22  and  O_23
REMARK                            x       y       z     vdW  Elec       q    Type
REMARK                         _______ _______ _______ _____ _____    ______ ____
ROOT
ATOM      1  N   UNL     1      34.950 -16.921 -23.873  0.00  0.00    -0.274 N 
ATOM      2  N   UNL     1      33.778 -16.780 -25.745  0.00  0.00    -0.242 NA
ATOM      3  N   UNL     1      34.625 -14.688 -22.983  0.00  0.00    -0.228 NA
ATOM      4  N   UNL     1      33.226 -13.353 -24.470  0.00  0.00    -0.229 NA
ATOM      5  C   UNL     1      34.455 -15.660 -23.892  0.00  0.00    +0.150 C 
ATOM      6  C   UNL     1      33.725 -15.589 -25.067  0.00  0.00    +0.140 C 
ATOM      7  C   UNL     1      34.526 -17.562 -24.995  0.00  0.00    +0.221 C 
ATOM      8  C   UNL     1      33.096 -14.379 -25.345  0.00  0.00    +0.143 C 
ATOM      9  C   UNL     1      33.971 -13.568 -23.360  0.00  0.00    +0.253 C 
ATOM     10  N   UNL     1      32.333 -14.218 -26.515  0.00  0.00    -0.342 N 
ATOM     11  H   UNL     1      31.892 -13.358 -26.701  0.00  0.00    +0.144 HD
ATOM     12  H   UNL     1      32.240 -14.966 -27.148  0.00  0.00    +0.144 HD
ENDROOT
BRANCH   1  13
ATOM     13  C   UNL     1      35.793 -17.503 -22.833  0.00  0.00    +0.071 C 
BRANCH  13  14
ATOM     14  C   UNL     1      35.052 -17.635 -21.505  0.00  0.00    -0.060 C 
BRANCH  14  15
ATOM     15  N   UNL     1      35.714 -18.614 -20.656  0.00  0.00    +0.385 N 
ATOM     16  H   UNL     1      36.701 -18.662 -20.908  0.00  0.00    -0.084 HD
ATOM     17  H   UNL     1      35.609 -18.326 -19.683  0.00  0.00    -0.084 HD
BRANCH  15  18
ATOM     18  C   UNL     1      35.115 -19.934 -20.818  0.00  0.00    -0.082 C 
BRANCH  18  19
ATOM     19  C   UNL     1      33.591 -19.837 -20.762  0.00  0.00    -0.023 C 
BRANCH  19  20
ATOM     20  C   UNL     1      33.003 -20.910 -19.842  0.00  0.00    +0.000 C 
BRANCH  20  21
ATOM     21  C   UNL     1      34.060 -21.945 -19.449  0.00  0.00    +0.032 C 
BRANCH  21  22
ATOM     22  C   UNL     1      33.663 -22.731 -18.205  0.00  0.00    +0.137 C 
BRANCH  22  23
ATOM     23  O   UNL     1      32.265 -22.612 -17.983  0.00  0.00    -0.382 OA
ATOM     24  H   UNL     1      31.786 -22.914 -18.770  0.00  0.00    +0.210 HD
ENDBRANCH  22  23
ENDBRANCH  21  22
ENDBRANCH  20  21
ENDBRANCH  19  20
ENDBRANCH  18  19
ENDBRANCH  15  18
ENDBRANCH  14  15
ENDBRANCH  13  14
ENDBRANCH   1  13
TORSDOF 9
ENDMDL
MODEL 4
REMARK VINA RESULT:      -7.4      3.337      7.468
REMARK  Name = 2815031
REMARK  9 active torsions:
REMARK  status: ('A' for Active; 'I' for Inactive)
REMARK    1  A    between atoms: N_1  and  C_13
REMARK    2  A    between atoms: C_13  and  C_14
REMARK    3  A    between atoms: C_14  and  N_15
REMARK    4  A    between atoms: N_15  and  C_18
REMARK    5  A    between atoms: C_18  and  C_19
REMARK    6  A    between atoms: C_19  and  C_20
REMARK    7  A    between atoms: C_20  and  C_21
REMARK    8  A    between atoms: C_21  and  C_22
REMARK    9  A    between atoms: C_22  and  O_23
REMARK                            x       y       z     vdW  Elec       q    Type
REMARK                         _______ _______ _______ _____ _____    ______ ____
ROOT
ATOM      1  N   UNL     1      33.972 -14.906 -22.298  0.00  0.00    -0.274 N 
ATOM      2  N   UNL     1      32.654 -13.642 -23.548  0.00  0.00    -0.242 NA
ATOM      3  N   UNL     1      34.819 -16.445 -23.971  0.00  0.00    -0.228 NA
ATOM      4  N   UNL     1      33.890 -15.939 -26.169  0.00  0.00    -0.229 NA
ATOM      5  C   UNL     1      34.080 -15.407 -23.552  0.00  0.00    +0.150 C 
ATOM      6  C   UNL     1      33.251 -14.605 -24.321  0.00  0.00    +0.140 C 
ATOM      7  C   UNL     1      33.113 -13.853 -22.332  0.00  0.00    +0.221 C 
ATOM      8  C   UNL     1      33.169 -14.902 -25.678  0.00  0.00    +0.143 C 
ATOM      9  C   UNL     1      34.658 -16.636 -25.298  0.00  0.00    +0.253 C 
ATOM     10  N   UNL     1      32.354 -14.140 -26.532  0.00  0.00    -0.342 N 
ATOM     11  H   UNL     1      32.304 -14.359 -27.490  0.00  0.00    +0.144 HD
ATOM     12  H   UNL     1      31.832 -13.386 -26.171  0.00  0.00    +0.144 HD
ENDROOT
BRANCH   1  13
ATOM     13  C   UNL     1      34.656 -15.403 -21.108  0.00  0.00    +0.071 C 
BRANCH  13  14
ATOM     14  C   UNL     1      34.260 -16.840 -20.780  0.00  0.00    -0.060 C 
BRANCH  14  15
ATOM     15  N   UNL     1      35.408 -17.722 -20.924  0.00  0.00    +0.385 N 
ATOM     16  H   UNL     1      36.127 -17.250 -21.473  0.00  0.00    -0.084 HD
ATOM     17  H   UNL     1      35.763 -17.950 -19.995  0.00  0.00    -0.084 HD
BRANCH  15  18
ATOM     18  C   UNL     1      35.031 -18.962 -21.596  0.00  0.00    -0.082 C 
BRANCH  18  19
ATOM     19  C   UNL     1      34.828 -20.079 -20.573  0.00  0.00    -0.023 C 
BRANCH  19  20
ATOM     20  C   UNL     1      33.342 -20.401 -20.397  0.00  0.00    +0.000 C 
BRANCH  20  21
ATOM     21  C   UNL     1      33.129 -21.463 -19.314  0.00  0.00    +0.032 C 
BRANCH  21  22
ATOM     22  C   UNL     1      34.323 -22.401 -19.183  0.00  0.00    +0.137 C 
BRANCH  22  23
ATOM     23  O   UNL     1      33.951 -23.717 -19.567  0.00  0.00    -0.382 OA
ATOM     24  H   UNL     1      32.985 -23.799 -19.545  0.00  0.00    +0.210 HD
ENDBRANCH  22  23
ENDBRANCH  21  22
ENDBRANCH  20  21
ENDBRANCH  19  20
ENDBRANCH  18  19
ENDBRANCH  15  18
ENDBRANCH  14  15
ENDBRANCH  13  14
ENDBRANCH   1  13
TORSDOF 9
ENDMDL
MODEL 5
REMARK VINA RESULT:      -7.3      4.106      5.959
REMARK  Name = 2815031
REMARK  9 active torsions:
REMARK  status: ('A' for Active; 'I' for Inactive)
REMARK    1  A    between atoms: N_1  and  C_13
REMARK    2  A    between atoms: C_13  and  C_14
REMARK    3  A    between atoms: C_14  and  N_15
REMARK    4  A    between atoms: N_15  and  C_18
REMARK    5  A    between atoms: C_18  and  C_19
REMARK    6  A    between atoms: C_19  and  C_20
REMARK    7  A    between atoms: C_20  and  C_21
REMARK    8  A    between atoms: C_21  and  C_22
REMARK    9  A    between atoms: C_22  and  O_23
REMARK                            x       y       z     vdW  Elec       q    Type
REMARK                         _______ _______ _______ _____ _____    ______ ____
ROOT
ATOM      1  N   UNL     1      34.479 -14.975 -22.202  0.00  0.00    -0.274 N 
ATOM      2  N   UNL     1      34.931 -16.137 -20.374  0.00  0.00    -0.242 NA
ATOM      3  N   UNL     1      34.790 -16.683 -23.896  0.00  0.00    -0.228 NA
ATOM      4  N   UNL     1      35.430 -18.808 -22.882  0.00  0.00    -0.229 NA
ATOM      5  C   UNL     1      34.772 -16.225 -22.636  0.00  0.00    +0.150 C 
ATOM      6  C   UNL     1      35.051 -16.938 -21.481  0.00  0.00    +0.140 C 
ATOM      7  C   UNL     1      34.584 -14.958 -20.847  0.00  0.00    +0.221 C 
ATOM      8  C   UNL     1      35.391 -18.279 -21.636  0.00  0.00    +0.143 C 
ATOM      9  C   UNL     1      35.132 -17.990 -23.920  0.00  0.00    +0.253 C 
ATOM     10  N   UNL     1      35.688 -19.078 -20.519  0.00  0.00    -0.342 N 
ATOM     11  H   UNL     1      35.927 -20.025 -20.641  0.00  0.00    +0.144 HD
ATOM     12  H   UNL     1      35.658 -18.690 -19.614  0.00  0.00    +0.144 HD
ENDROOT
BRANCH   1  13
ATOM     13  C   UNL     1      34.112 -13.835 -23.038  0.00  0.00    +0.071 C 
BRANCH  13  14
ATOM     14  C   UNL     1      32.614 -13.801 -23.330  0.00  0.00    -0.060 C 
BRANCH  14  15
ATOM     15  N   UNL     1      31.886 -13.328 -22.162  0.00  0.00    +0.385 N 
ATOM     16  H   UNL     1      30.933 -13.693 -22.191  0.00  0.00    -0.084 HD
ATOM     17  H   UNL     1      32.366 -13.654 -21.324  0.00  0.00    -0.084 HD
BRANCH  15  18
ATOM     18  C   UNL     1      31.837 -11.870 -22.134  0.00  0.00    -0.082 C 
BRANCH  18  19
ATOM     19  C   UNL     1      30.899 -11.391 -21.028  0.00  0.00    -0.023 C 
BRANCH  19  20
ATOM     20  C   UNL     1      31.671 -11.095 -19.739  0.00  0.00    +0.000 C 
BRANCH  20  21
ATOM     21  C   UNL     1      31.590  -9.610 -19.372  0.00  0.00    +0.032 C 
BRANCH  21  22
ATOM     22  C   UNL     1      32.347  -8.730 -20.360  0.00  0.00    +0.137 C 
BRANCH  22  23
ATOM     23  O   UNL     1      33.079  -7.734 -19.660  0.00  0.00    -0.382 OA
ATOM     24  H   UNL     1      33.915  -7.564 -20.121  0.00  0.00    +0.210 HD
ENDBRANCH  22  23
ENDBRANCH  21  22
ENDBRANCH  20  21
ENDBRANCH  19  20
ENDBRANCH  18  19
ENDBRANCH  15  18
ENDBRANCH  14  15
ENDBRANCH  13  14
ENDBRANCH   1  13
TORSDOF 9
ENDMDL
MODEL 6
REMARK VINA RESULT:      -7.2      8.668      9.975
REMARK  Name = 2815031
REMARK  9 active torsions:
REMARK  status: ('A' for Active; 'I' for Inactive)
REMARK    1  A    between atoms: N_1  and  C_13
REMARK    2  A    between atoms: C_13  and  C_14
REMARK    3  A    between atoms: C_14  and  N_15
REMARK    4  A    between atoms: N_15  and  C_18
REMARK    5  A    between atoms: C_18  and  C_19
REMARK    6  A    between atoms: C_19  and  C_20
REMARK    7  A    between atoms: C_20  and  C_21
REMARK    8  A    between atoms: C_21  and  C_22
REMARK    9  A    between atoms: C_22  and  O_23
REMARK                            x       y       z     vdW  Elec       q    Type
REMARK                         _______ _______ _______ _____ _____    ______ ____
ROOT
ATOM      1  N   UNL     1      35.872 -23.830 -15.406  0.00  0.00    -0.274 N 
ATOM      2  N   UNL     1      37.931 -23.269 -14.824  0.00  0.00    -0.242 NA
ATOM      3  N   UNL     1      36.044 -26.249 -15.353  0.00  0.00    -0.228 NA
ATOM      4  N   UNL     1      38.294 -26.947 -14.716  0.00  0.00    -0.229 NA
ATOM      5  C   UNL     1      36.523 -25.003 -15.220  0.00  0.00    +0.150 C 
ATOM      6  C   UNL     1      37.809 -24.635 -14.856  0.00  0.00    +0.140 C 
ATOM      7  C   UNL     1      36.742 -22.815 -15.161  0.00  0.00    +0.221 C 
ATOM      8  C   UNL     1      38.710 -25.664 -14.600  0.00  0.00    +0.143 C 
ATOM      9  C   UNL     1      37.006 -27.157 -15.081  0.00  0.00    +0.253 C 
ATOM     10  N   UNL     1      40.034 -25.381 -14.223  0.00  0.00    -0.342 N 
ATOM     11  H   UNL     1      40.662 -26.117 -14.044  0.00  0.00    +0.144 HD
ATOM     12  H   UNL     1      40.333 -24.446 -14.138  0.00  0.00    +0.144 HD
ENDROOT
BRANCH   1  13
ATOM     13  C   UNL     1      34.475 -23.671 -15.801  0.00  0.00    +0.071 C 
BRANCH  13  14
ATOM     14  C   UNL     1      33.548 -23.577 -14.592  0.00  0.00    -0.060 C 
BRANCH  14  15
ATOM     15  N   UNL     1      33.230 -24.909 -14.098  0.00  0.00    +0.385 N 
ATOM     16  H   UNL     1      33.509 -25.600 -14.795  0.00  0.00    -0.084 HD
ATOM     17  H   UNL     1      33.735 -25.061 -13.225  0.00  0.00    -0.084 HD
BRANCH  15  18
ATOM     18  C   UNL     1      31.801 -25.041 -13.839  0.00  0.00    -0.082 C 
BRANCH  18  19
ATOM     19  C   UNL     1      31.085 -23.723 -14.130  0.00  0.00    -0.023 C 
BRANCH  19  20
ATOM     20  C   UNL     1      29.827 -23.953 -14.973  0.00  0.00    +0.000 C 
BRANCH  20  21
ATOM     21  C   UNL     1      29.125 -22.630 -15.294  0.00  0.00    +0.032 C 
BRANCH  21  22
ATOM     22  C   UNL     1      27.888 -22.830 -16.161  0.00  0.00    +0.137 C 
BRANCH  22  23
ATOM     23  O   UNL     1      27.721 -21.720 -17.031  0.00  0.00    -0.382 OA
ATOM     24  H   UNL     1      26.818 -21.376 -16.947  0.00  0.00    +0.210 HD
ENDBRANCH  22  23
ENDBRANCH  21  22
ENDBRANCH  20  21
ENDBRANCH  19  20
ENDBRANCH  18  19
ENDBRANCH  15  18
ENDBRANCH  14  15
ENDBRANCH  13  14
ENDBRANCH   1  13
TORSDOF 9
ENDMDL
MODEL 7
REMARK VINA RESULT:      -7.2      4.335      6.770
REMARK  Name = 2815031
REMARK  9 active torsions:
REMARK  status: ('A' for Active; 'I' for Inactive)
REMARK    1  A    between atoms: N_1  and  C_13
REMARK    2  A    between atoms: C_13  and  C_14
REMARK    3  A    between atoms: C_14  and  N_15
REMARK    4  A    between atoms: N_15  and  C_18
REMARK    5  A    between atoms: C_18  and  C_19
REMARK    6  A    between atoms: C_19  and  C_20
REMARK    7  A    between atoms: C_20  and  C_21
REMARK    8  A    between atoms: C_21  and  C_22
REMARK    9  A    between atoms: C_22  and  O_23
REMARK                            x       y       z     vdW  Elec       q    Type
REMARK                         _______ _______ _______ _____ _____    ______ ____
ROOT
ATOM      1  N   UNL     1      36.935 -22.985 -15.593  0.00  0.00    -0.274 N 
ATOM      2  N   UNL     1      35.757 -24.211 -14.176  0.00  0.00    -0.242 NA
ATOM      3  N   UNL     1      39.092 -24.083 -15.436  0.00  0.00    -0.228 NA
ATOM      4  N   UNL     1      39.006 -25.950 -13.868  0.00  0.00    -0.229 NA
ATOM      5  C   UNL     1      37.798 -23.918 -15.124  0.00  0.00    +0.150 C 
ATOM      6  C   UNL     1      37.046 -24.676 -14.240  0.00  0.00    +0.140 C 
ATOM      7  C   UNL     1      35.725 -23.189 -15.006  0.00  0.00    +0.221 C 
ATOM      8  C   UNL     1      37.698 -25.726 -13.601  0.00  0.00    +0.143 C 
ATOM      9  C   UNL     1      39.613 -25.127 -14.756  0.00  0.00    +0.253 C 
ATOM     10  N   UNL     1      37.011 -26.548 -12.689  0.00  0.00    -0.342 N 
ATOM     11  H   UNL     1      37.482 -27.288 -12.243  0.00  0.00    +0.144 HD
ATOM     12  H   UNL     1      36.060 -26.383 -12.498  0.00  0.00    +0.144 HD
ENDROOT
BRANCH   1  13
ATOM     13  C   UNL     1      37.239 -21.937 -16.563  0.00  0.00    +0.071 C 
BRANCH  13  14
ATOM     14  C   UNL     1      36.288 -21.970 -17.756  0.00  0.00    -0.060 C 
BRANCH  14  15
ATOM     15  N   UNL     1      36.631 -20.918 -18.701  0.00  0.00    +0.385 N 
ATOM     16  H   UNL     1      36.411 -20.012 -18.288  0.00  0.00    -0.084 HD
ATOM     17  H   UNL     1      37.628 -20.980 -18.910  0.00  0.00    -0.084 HD
BRANCH  15  18
ATOM     18  C   UNL     1      35.883 -21.070 -19.944  0.00  0.00    -0.082 C 
BRANCH  18  19
ATOM     19  C   UNL     1      34.401 -21.294 -19.647  0.00  0.00    -0.023 C 
BRANCH  19  20
ATOM     20  C   UNL     1      33.528 -20.302 -20.419  0.00  0.00    +0.000 C 
BRANCH  20  21
ATOM     21  C   UNL     1      34.338 -19.563 -21.488  0.00  0.00    +0.032 C 
BRANCH  21  22
ATOM     22  C   UNL     1      34.271 -18.050 -21.319  0.00  0.00    +0.137 C 
BRANCH  22  23
ATOM     23  O   UNL     1      35.433 -17.586 -20.646  0.00  0.00    -0.382 OA
ATOM     24  H   UNL     1      35.195 -16.849 -20.062  0.00  0.00    +0.210 HD
ENDBRANCH  22  23
ENDBRANCH  21  22
ENDBRANCH  20  21
ENDBRANCH  19  20
ENDBRANCH  18  19
ENDBRANCH  15  18
ENDBRANCH  14  15
ENDBRANCH  13  14
ENDBRANCH   1  13
TORSDOF 9
ENDMDL
MODEL 8
REMARK VINA RESULT:      -7.1      4.388      8.163
REMARK  Name = 2815031
REMARK  9 active torsions:
REMARK  status: ('A' for Active; 'I' for Inactive)
REMARK    1  A    between atoms: N_1  and  C_13
REMARK    2  A    between atoms: C_13  and  C_14
REMARK    3  A    between atoms: C_14  and  N_15
REMARK    4  A    between atoms: N_15  and  C_18
REMARK    5  A    between atoms: C_18  and  C_19
REMARK    6  A    between atoms: C_19  and  C_20
REMARK    7  A    between atoms: C_20  and  C_21
REMARK    8  A    between atoms: C_21  and  C_22
REMARK    9  A    between atoms: C_22  and  O_23
REMARK                            x       y       z     vdW  Elec       q    Type
REMARK                         _______ _______ _______ _____ _____    ______ ____
ROOT
ATOM      1  N   UNL     1      34.651 -22.032 -18.633  0.00  0.00    -0.274 N 
ATOM      2  N   UNL     1      36.404 -20.929 -19.414  0.00  0.00    -0.242 NA
ATOM      3  N   UNL     1      32.879 -21.034 -19.955  0.00  0.00    -0.228 NA
ATOM      4  N   UNL     1      33.772 -19.348 -21.476  0.00  0.00    -0.229 NA
ATOM      5  C   UNL     1      34.154 -21.187 -19.568  0.00  0.00    +0.150 C 
ATOM      6  C   UNL     1      35.263 -20.506 -20.047  0.00  0.00    +0.140 C 
ATOM      7  C   UNL     1      35.997 -21.852 -18.567  0.00  0.00    +0.221 C 
ATOM      8  C   UNL     1      35.037 -19.555 -21.038  0.00  0.00    +0.143 C 
ATOM      9  C   UNL     1      32.786 -20.089 -20.915  0.00  0.00    +0.253 C 
ATOM     10  N   UNL     1      36.104 -18.819 -21.582  0.00  0.00    -0.342 N 
ATOM     11  H   UNL     1      35.932 -18.149 -22.283  0.00  0.00    +0.144 HD
ATOM     12  H   UNL     1      37.022 -18.973 -21.262  0.00  0.00    +0.144 HD
ENDROOT
BRANCH   1  13
ATOM     13  C   UNL     1      33.883 -22.978 -17.829  0.00  0.00    +0.071 C 
BRANCH  13  14
ATOM     14  C   UNL     1      34.472 -23.149 -16.431  0.00  0.00    -0.060 C 
BRANCH  14  15
ATOM     15  N   UNL     1      33.462 -23.666 -15.521  0.00  0.00    +0.385 N 
ATOM     16  H   UNL     1      33.565 -24.679 -15.447  0.00  0.00    -0.084 HD
ATOM     17  H   UNL     1      33.591 -23.229 -14.608  0.00  0.00    -0.084 HD
BRANCH  15  18
ATOM     18  C   UNL     1      32.120 -23.357 -16.001  0.00  0.00    -0.082 C 
BRANCH  18  19
ATOM     19  C   UNL     1      31.249 -22.849 -14.852  0.00  0.00    -0.023 C 
BRANCH  19  20
ATOM     20  C   UNL     1      29.768 -23.136 -15.113  0.00  0.00    +0.000 C 
BRANCH  20  21
ATOM     21  C   UNL     1      29.353 -22.681 -16.515  0.00  0.00    +0.032 C 
BRANCH  21  22
ATOM     22  C   UNL     1      27.843 -22.731 -16.714  0.00  0.00    +0.137 C 
BRANCH  22  23
ATOM     23  O   UNL     1      27.516 -23.698 -17.702  0.00  0.00    -0.382 OA
ATOM     24  H   UNL     1      27.379 -24.559 -17.278  0.00  0.00    +0.210 HD
ENDBRANCH  22  23
ENDBRANCH  21  22
ENDBRANCH  20  21
ENDBRANCH  19  20
ENDBRANCH  18  19
ENDBRANCH  15  18
ENDBRANCH  14  15
ENDBRANCH  13  14
ENDBRANCH   1  13
TORSDOF 9
ENDMDL
MODEL 9
REMARK VINA RESULT:      -7.0      3.386      8.032
REMARK  Name = 2815031
REMARK  9 active torsions:
REMARK  status: ('A' for Active; 'I' for Inactive)
REMARK    1  A    between atoms: N_1  and  C_13
REMARK    2  A    between atoms: C_13  and  C_14
REMARK    3  A    between atoms: C_14  and  N_15
REMARK    4  A    between atoms: N_15  and  C_18
REMARK    5  A    between atoms: C_18  and  C_19
REMARK    6  A    between atoms: C_19  and  C_20
REMARK    7  A    between atoms: C_20  and  C_21
REMARK    8  A    between atoms: C_21  and  C_22
REMARK    9  A    between atoms: C_22  and  O_23
REMARK                            x       y       z     vdW  Elec       q    Type
REMARK                         _______ _______ _______ _____ _____    ______ ____
ROOT
ATOM      1  N   UNL     1      34.434 -16.466 -24.208  0.00  0.00    -0.274 N 
ATOM      2  N   UNL     1      34.633 -14.649 -22.961  0.00  0.00    -0.242 NA
ATOM      3  N   UNL     1      33.500 -15.509 -26.232  0.00  0.00    -0.228 NA
ATOM      4  N   UNL     1      33.212 -13.097 -26.002  0.00  0.00    -0.229 NA
ATOM      5  C   UNL     1      33.976 -15.450 -24.979  0.00  0.00    +0.150 C 
ATOM      6  C   UNL     1      34.108 -14.322 -24.185  0.00  0.00    +0.140 C 
ATOM      7  C   UNL     1      34.818 -15.952 -23.009  0.00  0.00    +0.221 C 
ATOM      8  C   UNL     1      33.704 -13.112 -24.740  0.00  0.00    +0.143 C 
ATOM      9  C   UNL     1      33.141 -14.279 -26.660  0.00  0.00    +0.253 C 
ATOM     10  N   UNL     1      33.803 -11.917 -24.006  0.00  0.00    -0.342 N 
ATOM     11  H   UNL     1      33.515 -11.067 -24.408  0.00  0.00    +0.144 HD
ATOM     12  H   UNL     1      34.163 -11.931 -23.089  0.00  0.00    +0.144 HD
ENDROOT
BRANCH   1  13
ATOM     13  C   UNL     1      34.508 -17.874 -24.588  0.00  0.00    +0.071 C 
BRANCH  13  14
ATOM     14  C   UNL     1      35.467 -18.656 -23.696  0.00  0.00    -0.060 C 
BRANCH  14  15
ATOM     15  N   UNL     1      34.727 -19.368 -22.665  0.00  0.00    +0.385 N 
ATOM     16  H   UNL     1      33.771 -19.014 -22.635  0.00  0.00    -0.084 HD
ATOM     17  H   UNL     1      34.732 -20.363 -22.888  0.00  0.00    -0.084 HD
BRANCH  15  18
ATOM     18  C   UNL     1      35.346 -19.181 -21.357  0.00  0.00    -0.082 C 
BRANCH  18  19
ATOM     19  C   UNL     1      35.016 -20.358 -20.441  0.00  0.00    -0.023 C 
BRANCH  19  20
ATOM     20  C   UNL     1      33.503 -20.505 -20.254  0.00  0.00    +0.000 C 
BRANCH  20  21
ATOM     21  C   UNL     1      33.173 -21.600 -19.236  0.00  0.00    +0.032 C 
BRANCH  21  22
ATOM     22  C   UNL     1      34.246 -22.681 -19.184  0.00  0.00    +0.137 C 
BRANCH  22  23
ATOM     23  O   UNL     1      33.702 -23.878 -18.646  0.00  0.00    -0.382 OA
ATOM     24  H   UNL     1      34.311 -24.241 -17.984  0.00  0.00    +0.210 HD
ENDBRANCH  22  23
ENDBRANCH  21  22
ENDBRANCH  20  21
ENDBRANCH  19  20
ENDBRANCH  18  19
ENDBRANCH  15  18
ENDBRANCH  14  15
ENDBRANCH  13  14
ENDBRANCH   1  13
TORSDOF 9
ENDMDL
