MODEL 1
REMARK VINA RESULT:      -7.2      0.000      0.000
REMARK  Name = 8614
REMARK  4 active torsions:
REMARK  status: ('A' for Active; 'I' for Inactive)
REMARK    1  A    between atoms: N_2  and  C_12
REMARK    2  A    between atoms: C_3  and  C_6
REMARK    3  A    between atoms: C_12  and  C_14
REMARK    4  A    between atoms: C_14  and  O_15
REMARK                            x       y       z     vdW  Elec       q    Type
REMARK                         _______ _______ _______ _____ _____    ______ ____
ROOT
ATOM      1  O   UNL     1      37.662 -22.716 -13.937  0.00  0.00    -0.270 OA
ATOM      2  N   UNL     1      38.225 -24.598 -15.169  0.00  0.00    -0.291 N 
ATOM      3  C   UNL     1      37.559 -23.384 -14.980  0.00  0.00    +0.247 C 
ATOM      4  H   UNL     1      38.096 -25.072 -16.022  0.00  0.00    +0.150 HD
ENDROOT
BRANCH   3   6
ATOM      5  I   UNL     1      34.367 -24.300 -14.608  0.00  0.00    -0.042 I 
ATOM      6  C   UNL     1      36.698 -22.928 -16.064  0.00  0.00    +0.059 C 
ATOM      7  C   UNL     1      35.330 -23.201 -16.107  0.00  0.00    +0.034 C 
ATOM      8  C   UNL     1      37.295 -22.190 -17.087  0.00  0.00    +0.005 C 
ATOM      9  C   UNL     1      34.560 -22.736 -17.173  0.00  0.00    +0.006 C 
ATOM     10  C   UNL     1      36.524 -21.725 -18.153  0.00  0.00    +0.000 C 
ATOM     11  C   UNL     1      35.157 -21.999 -18.196  0.00  0.00    +0.000 C 
ENDBRANCH   3   6
BRANCH   2  12
ATOM     12  C   UNL     1      39.094 -25.192 -14.179  0.00  0.00    +0.201 C 
BRANCH  12  14
ATOM     13  O   UNL     1      41.130 -26.475 -14.119  0.00  0.00    -0.248 OA
ATOM     14  C   UNL     1      40.273 -25.908 -14.786  0.00  0.00    +0.334 C 
BRANCH  14  15
ATOM     15  O   UNL     1      40.296 -25.863 -16.138  0.00  0.00    -0.479 OA
ATOM     16  H   UNL     1      41.114 -25.796 -16.590  0.00  0.00    +0.295 HD
ENDBRANCH  14  15
ENDBRANCH  12  14
ENDBRANCH   2  12
TORSDOF 4
ENDMDL
MODEL 2
REMARK VINA RESULT:      -7.2      7.397      9.205
REMARK  Name = 8614
REMARK  4 active torsions:
REMARK  status: ('A' for Active; 'I' for Inactive)
REMARK    1  A    between atoms: N_2  and  C_12
REMARK    2  A    between atoms: C_3  and  C_6
REMARK    3  A    between atoms: C_12  and  C_14
REMARK    4  A    between atoms: C_14  and  O_15
REMARK                            x       y       z     vdW  Elec       q    Type
REMARK                         _______ _______ _______ _____ _____    ______ ____
ROOT
ATOM      1  O   UNL     1      36.513 -18.634 -21.349  0.00  0.00    -0.270 OA
ATOM      2  N   UNL     1      34.440 -19.673 -21.325  0.00  0.00    -0.291 N 
ATOM      3  C   UNL     1      35.370 -18.754 -21.820  0.00  0.00    +0.247 C 
ATOM      4  H   UNL     1      33.552 -19.712 -21.749  0.00  0.00    +0.150 HD
ENDROOT
BRANCH   3   6
ATOM      5  I   UNL     1      34.405 -15.710 -20.836  0.00  0.00    -0.042 I 
ATOM      6  C   UNL     1      34.934 -17.904 -22.921  0.00  0.00    +0.059 C 
ATOM      7  C   UNL     1      34.491 -16.594 -22.732  0.00  0.00    +0.034 C 
ATOM      8  C   UNL     1      34.974 -18.448 -24.204  0.00  0.00    +0.005 C 
ATOM      9  C   UNL     1      34.087 -15.831 -23.827  0.00  0.00    +0.006 C 
ATOM     10  C   UNL     1      34.571 -17.684 -25.300  0.00  0.00    +0.000 C 
ATOM     11  C   UNL     1      34.126 -16.376 -25.111  0.00  0.00    +0.000 C 
ENDBRANCH   3   6
BRANCH   2  12
ATOM     12  C   UNL     1      34.714 -20.567 -20.224  0.00  0.00    +0.201 C 
BRANCH  12  14
ATOM     13  O   UNL     1      32.433 -20.663 -19.461  0.00  0.00    -0.248 OA
ATOM     14  C   UNL     1      33.478 -21.255 -19.704  0.00  0.00    +0.334 C 
BRANCH  14  15
ATOM     15  O   UNL     1      33.633 -22.587 -19.528  0.00  0.00    -0.479 OA
ATOM     16  H   UNL     1      34.338 -23.037 -19.951  0.00  0.00    +0.295 HD
ENDBRANCH  14  15
ENDBRANCH  12  14
ENDBRANCH   2  12
TORSDOF 4
ENDMDL
MODEL 3
REMARK VINA RESULT:      -7.1      7.327      9.067
REMARK  Name = 8614
REMARK  4 active torsions:
REMARK  status: ('A' for Active; 'I' for Inactive)
REMARK    1  A    between atoms: N_2  and  C_12
REMARK    2  A    between atoms: C_3  and  C_6
REMARK    3  A    between atoms: C_12  and  C_14
REMARK    4  A    between atoms: C_14  and  O_15
REMARK                            x       y       z     vdW  Elec       q    Type
REMARK                         _______ _______ _______ _____ _____    ______ ____
ROOT
ATOM      1  O   UNL     1      36.613 -18.690 -21.307  0.00  0.00    -0.270 OA
ATOM      2  N   UNL     1      34.458 -19.282 -20.688  0.00  0.00    -0.291 N 
ATOM      3  C   UNL     1      35.409 -18.399 -21.206  0.00  0.00    +0.247 C 
ATOM      4  H   UNL     1      33.521 -18.982 -20.639  0.00  0.00    +0.150 HD
ENDROOT
BRANCH   3   6
ATOM      5  I   UNL     1      34.735 -18.187 -24.472  0.00  0.00    -0.042 I 
ATOM      6  C   UNL     1      34.934 -17.082 -21.613  0.00  0.00    +0.059 C 
ATOM      7  C   UNL     1      34.596 -16.777 -22.931  0.00  0.00    +0.034 C 
ATOM      8  C   UNL     1      34.824 -16.108 -20.621  0.00  0.00    +0.005 C 
ATOM      9  C   UNL     1      34.148 -15.496 -23.257  0.00  0.00    +0.006 C 
ATOM     10  C   UNL     1      34.375 -14.828 -20.946  0.00  0.00    +0.000 C 
ATOM     11  C   UNL     1      34.038 -14.522 -22.265  0.00  0.00    +0.000 C 
ENDBRANCH   3   6
BRANCH   2  12
ATOM     12  C   UNL     1      34.777 -20.612 -20.222  0.00  0.00    +0.201 C 
BRANCH  12  14
ATOM     13  O   UNL     1      33.574 -22.572 -19.510  0.00  0.00    -0.248 OA
ATOM     14  C   UNL     1      33.570 -21.366 -19.726  0.00  0.00    +0.334 C 
BRANCH  14  15
ATOM     15  O   UNL     1      32.481 -20.584 -19.544  0.00  0.00    -0.479 OA
ATOM     16  H   UNL     1      32.453 -19.726 -19.918  0.00  0.00    +0.295 HD
ENDBRANCH  14  15
ENDBRANCH  12  14
ENDBRANCH   2  12
TORSDOF 4
ENDMDL
MODEL 4
REMARK VINA RESULT:      -7.0      1.941      2.747
REMARK  Name = 8614
REMARK  4 active torsions:
REMARK  status: ('A' for Active; 'I' for Inactive)
REMARK    1  A    between atoms: N_2  and  C_12
REMARK    2  A    between atoms: C_3  and  C_6
REMARK    3  A    between atoms: C_12  and  C_14
REMARK    4  A    between atoms: C_14  and  O_15
REMARK                            x       y       z     vdW  Elec       q    Type
REMARK                         _______ _______ _______ _____ _____    ______ ____
ROOT
ATOM      1  O   UNL     1      37.718 -22.955 -12.832  0.00  0.00    -0.270 OA
ATOM      2  N   UNL     1      37.977 -24.997 -13.899  0.00  0.00    -0.291 N 
ATOM      3  C   UNL     1      37.256 -23.850 -13.560  0.00  0.00    +0.247 C 
ATOM      4  H   UNL     1      37.545 -25.664 -14.481  0.00  0.00    +0.150 HD
ENDROOT
BRANCH   3   6
ATOM      5  I   UNL     1      37.069 -22.151 -16.432  0.00  0.00    -0.042 I 
ATOM      6  C   UNL     1      35.898 -23.745 -14.081  0.00  0.00    +0.059 C 
ATOM      7  C   UNL     1      35.595 -23.078 -15.268  0.00  0.00    +0.034 C 
ATOM      8  C   UNL     1      34.881 -24.348 -13.341  0.00  0.00    +0.005 C 
ATOM      9  C   UNL     1      34.275 -23.012 -15.714  0.00  0.00    +0.006 C 
ATOM     10  C   UNL     1      33.561 -24.283 -13.787  0.00  0.00    +0.000 C 
ATOM     11  C   UNL     1      33.258 -23.615 -14.974  0.00  0.00    +0.000 C 
ENDBRANCH   3   6
BRANCH   2  12
ATOM     12  C   UNL     1      39.323 -25.256 -13.442  0.00  0.00    +0.201 C 
BRANCH  12  14
ATOM     13  O   UNL     1      41.158 -26.602 -14.226  0.00  0.00    -0.248 OA
ATOM     14  C   UNL     1      40.186 -25.906 -14.492  0.00  0.00    +0.334 C 
BRANCH  14  15
ATOM     15  O   UNL     1      39.785 -25.646 -15.758  0.00  0.00    -0.479 OA
ATOM     16  H   UNL     1      38.875 -25.526 -15.946  0.00  0.00    +0.295 HD
ENDBRANCH  14  15
ENDBRANCH  12  14
ENDBRANCH   2  12
TORSDOF 4
ENDMDL
MODEL 5
REMARK VINA RESULT:      -6.9     11.790     13.905
REMARK  Name = 8614
REMARK  4 active torsions:
REMARK  status: ('A' for Active; 'I' for Inactive)
REMARK    1  A    between atoms: N_2  and  C_12
REMARK    2  A    between atoms: C_3  and  C_6
REMARK    3  A    between atoms: C_12  and  C_14
REMARK    4  A    between atoms: C_14  and  O_15
REMARK                            x       y       z     vdW  Elec       q    Type
REMARK                         _______ _______ _______ _____ _____    ______ ____
ROOT
ATOM      1  O   UNL     1      32.148 -13.878 -23.531  0.00  0.00    -0.270 OA
ATOM      2  N   UNL     1      34.203 -12.978 -24.119  0.00  0.00    -0.291 N 
ATOM      3  C   UNL     1      33.342 -14.041 -23.834  0.00  0.00    +0.247 C 
ATOM      4  H   UNL     1      35.137 -13.184 -24.352  0.00  0.00    +0.150 HD
ENDROOT
BRANCH   3   6
ATOM      5  I   UNL     1      34.234 -15.206 -20.832  0.00  0.00    -0.042 I 
ATOM      6  C   UNL     1      33.912 -15.382 -23.882  0.00  0.00    +0.059 C 
ATOM      7  C   UNL     1      34.351 -16.056 -22.742  0.00  0.00    +0.034 C 
ATOM      8  C   UNL     1      34.010 -15.991 -25.133  0.00  0.00    +0.005 C 
ATOM      9  C   UNL     1      34.888 -17.339 -22.854  0.00  0.00    +0.006 C 
ATOM     10  C   UNL     1      34.546 -17.273 -25.245  0.00  0.00    +0.000 C 
ATOM     11  C   UNL     1      34.986 -17.947 -24.106  0.00  0.00    +0.000 C 
ENDBRANCH   3   6
BRANCH   2  12
ATOM     12  C   UNL     1      33.793 -11.592 -24.090  0.00  0.00    +0.201 C 
BRANCH  12  14
ATOM     13  O   UNL     1      34.986 -10.791 -26.021  0.00  0.00    -0.248 OA
ATOM     14  C   UNL     1      34.743 -10.683 -24.825  0.00  0.00    +0.334 C 
BRANCH  14  15
ATOM     15  O   UNL     1      35.305  -9.737 -24.038  0.00  0.00    -0.479 OA
ATOM     16  H   UNL     1      36.171  -9.429 -24.220  0.00  0.00    +0.295 HD
ENDBRANCH  14  15
ENDBRANCH  12  14
ENDBRANCH   2  12
TORSDOF 4
ENDMDL
MODEL 6
REMARK VINA RESULT:      -6.8     11.842     13.985
REMARK  Name = 8614
REMARK  4 active torsions:
REMARK  status: ('A' for Active; 'I' for Inactive)
REMARK    1  A    between atoms: N_2  and  C_12
REMARK    2  A    between atoms: C_3  and  C_6
REMARK    3  A    between atoms: C_12  and  C_14
REMARK    4  A    between atoms: C_14  and  O_15
REMARK                            x       y       z     vdW  Elec       q    Type
REMARK                         _______ _______ _______ _____ _____    ______ ____
ROOT
ATOM      1  O   UNL     1      32.414 -14.031 -24.429  0.00  0.00    -0.270 OA
ATOM      2  N   UNL     1      34.238 -12.663 -24.009  0.00  0.00    -0.291 N 
ATOM      3  C   UNL     1      33.470 -13.813 -23.812  0.00  0.00    +0.247 C 
ATOM      4  H   UNL     1      35.065 -12.558 -23.484  0.00  0.00    +0.150 HD
ENDROOT
BRANCH   3   6
ATOM      5  I   UNL     1      34.485 -16.713 -25.127  0.00  0.00    -0.042 I 
ATOM      6  C   UNL     1      33.949 -14.763 -22.815  0.00  0.00    +0.059 C 
ATOM      7  C   UNL     1      34.419 -16.034 -23.148  0.00  0.00    +0.034 C 
ATOM      8  C   UNL     1      33.925 -14.356 -21.481  0.00  0.00    +0.005 C 
ATOM      9  C   UNL     1      34.863 -16.897 -22.146  0.00  0.00    +0.006 C 
ATOM     10  C   UNL     1      34.370 -15.219 -20.479  0.00  0.00    +0.000 C 
ATOM     11  C   UNL     1      34.839 -16.490 -20.812  0.00  0.00    +0.000 C 
ENDBRANCH   3   6
BRANCH   2  12
ATOM     12  C   UNL     1      33.884 -11.619 -24.944  0.00  0.00    +0.201 C 
BRANCH  12  14
ATOM     13  O   UNL     1      35.542 -10.467 -26.254  0.00  0.00    -0.248 OA
ATOM     14  C   UNL     1      34.997 -10.629 -25.169  0.00  0.00    +0.334 C 
BRANCH  14  15
ATOM     15  O   UNL     1      35.338  -9.937 -24.057  0.00  0.00    -0.479 OA
ATOM     16  H   UNL     1      36.183  -9.535 -23.997  0.00  0.00    +0.295 HD
ENDBRANCH  14  15
ENDBRANCH  12  14
ENDBRANCH   2  12
TORSDOF 4
ENDMDL
MODEL 7
REMARK VINA RESULT:      -6.8      3.115      4.016
REMARK  Name = 8614
REMARK  4 active torsions:
REMARK  status: ('A' for Active; 'I' for Inactive)
REMARK    1  A    between atoms: N_2  and  C_12
REMARK    2  A    between atoms: C_3  and  C_6
REMARK    3  A    between atoms: C_12  and  C_14
REMARK    4  A    between atoms: C_14  and  O_15
REMARK                            x       y       z     vdW  Elec       q    Type
REMARK                         _______ _______ _______ _____ _____    ______ ____
ROOT
ATOM      1  O   UNL     1      35.618 -22.565 -15.276  0.00  0.00    -0.270 OA
ATOM      2  N   UNL     1      35.389 -24.864 -15.078  0.00  0.00    -0.291 N 
ATOM      3  C   UNL     1      34.887 -23.569 -15.225  0.00  0.00    +0.247 C 
ATOM      4  H   UNL     1      34.748 -25.612 -15.046  0.00  0.00    +0.150 HD
ENDROOT
BRANCH   3   6
ATOM      5  I   UNL     1      33.773 -22.873 -18.298  0.00  0.00    -0.042 I 
ATOM      6  C   UNL     1      33.438 -23.427 -15.295  0.00  0.00    +0.059 C 
ATOM      7  C   UNL     1      32.765 -23.136 -16.482  0.00  0.00    +0.034 C 
ATOM      8  C   UNL     1      32.721 -23.594 -14.110  0.00  0.00    +0.005 C 
ATOM      9  C   UNL     1      31.375 -23.013 -16.483  0.00  0.00    +0.006 C 
ATOM     10  C   UNL     1      31.332 -23.471 -14.111  0.00  0.00    +0.000 C 
ATOM     11  C   UNL     1      30.659 -23.180 -15.298  0.00  0.00    +0.000 C 
ENDBRANCH   3   6
BRANCH   2  12
ATOM     12  C   UNL     1      36.798 -25.165 -14.971  0.00  0.00    +0.201 C 
BRANCH  12  14
ATOM     13  O   UNL     1      36.551 -27.235 -16.174  0.00  0.00    -0.248 OA
ATOM     14  C   UNL     1      37.119 -26.601 -15.293  0.00  0.00    +0.334 C 
BRANCH  14  15
ATOM     15  O   UNL     1      38.093 -27.126 -14.514  0.00  0.00    -0.479 OA
ATOM     16  H   UNL     1      38.657 -26.560 -14.024  0.00  0.00    +0.295 HD
ENDBRANCH  14  15
ENDBRANCH  12  14
ENDBRANCH   2  12
TORSDOF 4
ENDMDL
MODEL 8
REMARK VINA RESULT:      -6.7      8.031      9.849
REMARK  Name = 8614
REMARK  4 active torsions:
REMARK  status: ('A' for Active; 'I' for Inactive)
REMARK    1  A    between atoms: N_2  and  C_12
REMARK    2  A    between atoms: C_3  and  C_6
REMARK    3  A    between atoms: C_12  and  C_14
REMARK    4  A    between atoms: C_14  and  O_15
REMARK                            x       y       z     vdW  Elec       q    Type
REMARK                         _______ _______ _______ _____ _____    ______ ____
ROOT
ATOM      1  O   UNL     1      35.683 -17.251 -20.559  0.00  0.00    -0.270 OA
ATOM      2  N   UNL     1      33.902 -18.541 -21.294  0.00  0.00    -0.291 N 
ATOM      3  C   UNL     1      34.563 -17.327 -21.093  0.00  0.00    +0.247 C 
ATOM      4  H   UNL     1      33.016 -18.524 -21.725  0.00  0.00    +0.150 HD
ENDROOT
BRANCH   3   6
ATOM      5  I   UNL     1      34.728 -16.801 -24.389  0.00  0.00    -0.042 I 
ATOM      6  C   UNL     1      33.868 -16.119 -21.520  0.00  0.00    +0.059 C 
ATOM      7  C   UNL     1      33.813 -15.711 -22.853  0.00  0.00    +0.034 C 
ATOM      8  C   UNL     1      33.242 -15.359 -20.532  0.00  0.00    +0.005 C 
ATOM      9  C   UNL     1      33.132 -14.544 -23.197  0.00  0.00    +0.006 C 
ATOM     10  C   UNL     1      32.560 -14.191 -20.876  0.00  0.00    +0.000 C 
ATOM     11  C   UNL     1      32.506 -13.784 -22.209  0.00  0.00    +0.000 C 
ENDBRANCH   3   6
BRANCH   2  12
ATOM     12  C   UNL     1      34.449 -19.820 -20.904  0.00  0.00    +0.201 C 
BRANCH  12  14
ATOM     13  O   UNL     1      32.354 -20.278 -19.811  0.00  0.00    -0.248 OA
ATOM     14  C   UNL     1      33.493 -20.642 -20.079  0.00  0.00    +0.334 C 
BRANCH  14  15
ATOM     15  O   UNL     1      34.013 -21.819 -19.660  0.00  0.00    -0.479 OA
ATOM     16  H   UNL     1      34.908 -22.027 -19.843  0.00  0.00    +0.295 HD
ENDBRANCH  14  15
ENDBRANCH  12  14
ENDBRANCH   2  12
TORSDOF 4
ENDMDL
MODEL 9
REMARK VINA RESULT:      -6.5      3.109      4.443
REMARK  Name = 8614
REMARK  4 active torsions:
REMARK  status: ('A' for Active; 'I' for Inactive)
REMARK    1  A    between atoms: N_2  and  C_12
REMARK    2  A    between atoms: C_3  and  C_6
REMARK    3  A    between atoms: C_12  and  C_14
REMARK    4  A    between atoms: C_14  and  O_15
REMARK                            x       y       z     vdW  Elec       q    Type
REMARK                         _______ _______ _______ _____ _____    ______ ____
ROOT
ATOM      1  O   UNL     1      35.065 -24.961 -15.516  0.00  0.00    -0.270 OA
ATOM      2  N   UNL     1      35.425 -22.827 -14.684  0.00  0.00    -0.291 N 
ATOM      3  C   UNL     1      34.615 -23.856 -15.169  0.00  0.00    +0.247 C 
ATOM      4  H   UNL     1      34.998 -21.977 -14.428  0.00  0.00    +0.150 HD
ENDROOT
BRANCH   3   6
ATOM      5  I   UNL     1      33.700 -22.864 -18.227  0.00  0.00    -0.042 I 
ATOM      6  C   UNL     1      33.189 -23.574 -15.282  0.00  0.00    +0.059 C 
ATOM      7  C   UNL     1      32.596 -23.147 -16.471  0.00  0.00    +0.034 C 
ATOM      8  C   UNL     1      32.410 -23.748 -14.138  0.00  0.00    +0.005 C 
ATOM      9  C   UNL     1      31.225 -22.893 -16.514  0.00  0.00    +0.006 C 
ATOM     10  C   UNL     1      31.039 -23.496 -14.182  0.00  0.00    +0.000 C 
ATOM     11  C   UNL     1      30.447 -23.068 -15.370  0.00  0.00    +0.000 C 
ENDBRANCH   3   6
BRANCH   2  12
ATOM     12  C   UNL     1      36.858 -22.945 -14.536  0.00  0.00    +0.201 C 
BRANCH  12  14
ATOM     13  O   UNL     1      37.234 -21.974 -16.707  0.00  0.00    -0.248 OA
ATOM     14  C   UNL     1      37.600 -22.751 -15.834  0.00  0.00    +0.334 C 
BRANCH  14  15
ATOM     15  O   UNL     1      38.708 -23.520 -15.943  0.00  0.00    -0.479 OA
ATOM     16  H   UNL     1      39.536 -23.193 -15.652  0.00  0.00    +0.295 HD
ENDBRANCH  14  15
ENDBRANCH  12  14
ENDBRANCH   2  12
TORSDOF 4
ENDMDL
