MODEL 1
REMARK VINA RESULT:     -10.2      0.000      0.000
REMARK  Name = 7013169
REMARK  8 active torsions:
REMARK  status: ('A' for Active; 'I' for Inactive)
REMARK    1  A    between atoms: N_3  and  C_16
REMARK    2  A    between atoms: C_10  and  C_13
REMARK    3  A    between atoms: C_13  and  O_14
REMARK    4  A    between atoms: C_16  and  C_18
REMARK    5  A    between atoms: C_16  and  C_21
REMARK    6  A    between atoms: C_18  and  O_19
REMARK    7  A    between atoms: C_21  and  C_22
REMARK    8  A    between atoms: C_27  and  O_28
REMARK                            x       y       z     vdW  Elec       q    Type
REMARK                         _______ _______ _______ _____ _____    ______ ____
ROOT
ATOM      1  O   UNL     1      33.809 -12.298 -25.071  0.00  0.00    -0.269 OA
ATOM      2  O   UNL     1      32.002 -14.823 -21.631  0.00  0.00    -0.269 OA
ATOM      3  N   UNL     1      33.030 -13.920 -23.550  0.00  0.00    -0.213 N 
ATOM      4  C   UNL     1      32.730 -11.735 -23.037  0.00  0.00    +0.059 C 
ATOM      5  C   UNL     1      32.189 -12.490 -22.008  0.00  0.00    +0.058 C 
ATOM      6  C   UNL     1      33.272 -12.653 -24.038  0.00  0.00    +0.256 C 
ATOM      7  C   UNL     1      32.378 -13.903 -22.335  0.00  0.00    +0.256 C 
ATOM      8  C   UNL     1      32.706 -10.355 -23.022  0.00  0.00    +0.011 C 
ATOM      9  C   UNL     1      31.595 -11.907 -20.908  0.00  0.00    +0.005 C 
ATOM     10  C   UNL     1      32.110  -9.742 -21.916  0.00  0.00    +0.076 C 
ATOM     11  C   UNL     1      31.560 -10.510 -20.870  0.00  0.00    +0.007 C 
ENDROOT
BRANCH  10  13
ATOM     12  O   UNL     1      31.317  -7.568 -22.522  0.00  0.00    -0.245 OA
ATOM     13  C   UNL     1      32.054  -8.290 -21.843  0.00  0.00    +0.338 C 
BRANCH  13  14
ATOM     14  O   UNL     1      32.919  -7.781 -20.924  0.00  0.00    -0.477 OA
ATOM     15  H   UNL     1      32.674  -7.035 -20.413  0.00  0.00    +0.295 HD
ENDBRANCH  13  14
ENDBRANCH  10  13
BRANCH   3  16
ATOM     16  C   UNL     1      33.420 -15.135 -24.237  0.00  0.00    +0.186 C 
BRANCH  16  18
ATOM     17  O   UNL     1      34.102 -15.368 -26.546  0.00  0.00    -0.248 OA
ATOM     18  C   UNL     1      33.256 -14.991 -25.742  0.00  0.00    +0.333 C 
BRANCH  18  19
ATOM     19  O   UNL     1      32.098 -14.405 -26.135  0.00  0.00    -0.479 OA
ATOM     20  H   UNL     1      32.105 -13.768 -26.822  0.00  0.00    +0.295 HD
ENDBRANCH  18  19
ENDBRANCH  16  18
BRANCH  16  21
ATOM     21  C   UNL     1      34.868 -15.522 -23.902  0.00  0.00    +0.058 C 
BRANCH  21  22
ATOM     22  C   UNL     1      34.957 -16.813 -23.122  0.00  0.00    -0.020 C 
ATOM     23  C   UNL     1      35.018 -16.765 -21.739  0.00  0.00    -0.001 C 
ATOM     24  C   UNL     1      34.975 -18.018 -23.805  0.00  0.00    -0.001 C 
ATOM     25  C   UNL     1      35.100 -17.957 -21.018  0.00  0.00    +0.036 C 
ATOM     26  C   UNL     1      35.057 -19.209 -23.085  0.00  0.00    +0.036 C 
ATOM     27  C   UNL     1      35.119 -19.179 -21.691  0.00  0.00    +0.134 C 
BRANCH  27  28
ATOM     28  O   UNL     1      35.200 -20.341 -20.988  0.00  0.00    -0.506 OA
ATOM     29  H   UNL     1      35.561 -21.107 -21.388  0.00  0.00    +0.292 HD
ENDBRANCH  27  28
ENDBRANCH  21  22
ENDBRANCH  16  21
ENDBRANCH   3  16
TORSDOF 8
ENDMDL
MODEL 2
REMARK VINA RESULT:      -9.8      2.334      3.921
REMARK  Name = 7013169
REMARK  8 active torsions:
REMARK  status: ('A' for Active; 'I' for Inactive)
REMARK    1  A    between atoms: N_3  and  C_16
REMARK    2  A    between atoms: C_10  and  C_13
REMARK    3  A    between atoms: C_13  and  O_14
REMARK    4  A    between atoms: C_16  and  C_18
REMARK    5  A    between atoms: C_16  and  C_21
REMARK    6  A    between atoms: C_18  and  O_19
REMARK    7  A    between atoms: C_21  and  C_22
REMARK    8  A    between atoms: C_27  and  O_28
REMARK                            x       y       z     vdW  Elec       q    Type
REMARK                         _______ _______ _______ _____ _____    ______ ____
ROOT
ATOM      1  O   UNL     1      32.352 -16.371 -20.691  0.00  0.00    -0.269 OA
ATOM      2  O   UNL     1      35.151 -15.950 -24.361  0.00  0.00    -0.269 OA
ATOM      3  N   UNL     1      33.847 -16.578 -22.501  0.00  0.00    -0.213 N 
ATOM      4  C   UNL     1      32.899 -14.558 -22.118  0.00  0.00    +0.059 C 
ATOM      5  C   UNL     1      33.736 -14.432 -23.215  0.00  0.00    +0.058 C 
ATOM      6  C   UNL     1      32.970 -15.942 -21.649  0.00  0.00    +0.256 C 
ATOM      7  C   UNL     1      34.354 -15.734 -23.466  0.00  0.00    +0.256 C 
ATOM      8  C   UNL     1      32.169 -13.493 -21.629  0.00  0.00    +0.011 C 
ATOM      9  C   UNL     1      33.889 -13.235 -23.884  0.00  0.00    +0.005 C 
ATOM     10  C   UNL     1      32.308 -12.271 -22.292  0.00  0.00    +0.076 C 
ATOM     11  C   UNL     1      33.158 -12.142 -23.408  0.00  0.00    +0.007 C 
ENDROOT
BRANCH  10  13
ATOM     12  O   UNL     1      31.994  -9.954 -21.783  0.00  0.00    -0.245 OA
ATOM     13  C   UNL     1      31.563 -11.111 -21.823  0.00  0.00    +0.338 C 
BRANCH  13  14
ATOM     14  O   UNL     1      30.304 -11.430 -21.419  0.00  0.00    -0.477 OA
ATOM     15  H   UNL     1      29.616 -11.512 -22.050  0.00  0.00    +0.295 HD
ENDBRANCH  13  14
ENDBRANCH  10  13
BRANCH   3  16
ATOM     16  C   UNL     1      34.198 -17.981 -22.394  0.00  0.00    +0.186 C 
BRANCH  16  18
ATOM     17  O   UNL     1      34.233 -18.898 -24.633  0.00  0.00    -0.248 OA
ATOM     18  C   UNL     1      34.864 -18.477 -23.668  0.00  0.00    +0.333 C 
BRANCH  18  19
ATOM     19  O   UNL     1      36.219 -18.426 -23.660  0.00  0.00    -0.479 OA
ATOM     20  H   UNL     1      36.697 -18.792 -22.942  0.00  0.00    +0.295 HD
ENDBRANCH  18  19
ENDBRANCH  16  18
BRANCH  16  21
ATOM     21  C   UNL     1      35.116 -18.233 -21.190  0.00  0.00    +0.058 C 
BRANCH  21  22
ATOM     22  C   UNL     1      34.892 -19.591 -20.566  0.00  0.00    -0.020 C 
ATOM     23  C   UNL     1      35.987 -20.351 -20.189  0.00  0.00    -0.001 C 
ATOM     24  C   UNL     1      33.597 -20.048 -20.384  0.00  0.00    -0.001 C 
ATOM     25  C   UNL     1      35.780 -21.606 -19.613  0.00  0.00    +0.036 C 
ATOM     26  C   UNL     1      33.390 -21.301 -19.808  0.00  0.00    +0.036 C 
ATOM     27  C   UNL     1      34.481 -22.080 -19.422  0.00  0.00    +0.134 C 
BRANCH  27  28
ATOM     28  O   UNL     1      34.280 -23.303 -18.861  0.00  0.00    -0.506 OA
ATOM     29  H   UNL     1      33.451 -23.513 -18.479  0.00  0.00    +0.292 HD
ENDBRANCH  27  28
ENDBRANCH  21  22
ENDBRANCH  16  21
ENDBRANCH   3  16
TORSDOF 8
ENDMDL
MODEL 3
REMARK VINA RESULT:      -9.7      2.206      3.448
REMARK  Name = 7013169
REMARK  8 active torsions:
REMARK  status: ('A' for Active; 'I' for Inactive)
REMARK    1  A    between atoms: N_3  and  C_16
REMARK    2  A    between atoms: C_10  and  C_13
REMARK    3  A    between atoms: C_13  and  O_14
REMARK    4  A    between atoms: C_16  and  C_18
REMARK    5  A    between atoms: C_16  and  C_21
REMARK    6  A    between atoms: C_18  and  O_19
REMARK    7  A    between atoms: C_21  and  C_22
REMARK    8  A    between atoms: C_27  and  O_28
REMARK                            x       y       z     vdW  Elec       q    Type
REMARK                         _______ _______ _______ _____ _____    ______ ____
ROOT
ATOM      1  O   UNL     1      35.373 -15.663 -24.095  0.00  0.00    -0.269 OA
ATOM      2  O   UNL     1      32.053 -16.264 -20.918  0.00  0.00    -0.269 OA
ATOM      3  N   UNL     1      33.819 -16.378 -22.474  0.00  0.00    -0.213 N 
ATOM      4  C   UNL     1      33.826 -14.192 -23.064  0.00  0.00    +0.059 C 
ATOM      5  C   UNL     1      32.833 -14.372 -22.114  0.00  0.00    +0.058 C 
ATOM      6  C   UNL     1      34.464 -15.486 -23.304  0.00  0.00    +0.256 C 
ATOM      7  C   UNL     1      32.822 -15.783 -21.731  0.00  0.00    +0.256 C 
ATOM      8  C   UNL     1      34.084 -12.959 -23.628  0.00  0.00    +0.011 C 
ATOM      9  C   UNL     1      32.044 -13.328 -21.675  0.00  0.00    +0.005 C 
ATOM     10  C   UNL     1      33.298 -11.886 -23.197  0.00  0.00    +0.076 C 
ATOM     11  C   UNL     1      32.289 -12.068 -22.231  0.00  0.00    +0.007 C 
ENDROOT
BRANCH  10  13
ATOM     12  O   UNL     1      32.646  -9.720 -23.977  0.00  0.00    -0.245 OA
ATOM     13  C   UNL     1      33.524 -10.561 -23.755  0.00  0.00    +0.338 C 
BRANCH  13  14
ATOM     14  O   UNL     1      34.838 -10.324 -24.018  0.00  0.00    -0.477 OA
ATOM     15  H   UNL     1      35.495 -10.896 -23.674  0.00  0.00    +0.295 HD
ENDBRANCH  13  14
ENDBRANCH  10  13
BRANCH   3  16
ATOM     16  C   UNL     1      34.153 -17.786 -22.391  0.00  0.00    +0.186 C 
BRANCH  16  18
ATOM     17  O   UNL     1      34.107 -18.570 -24.680  0.00  0.00    -0.248 OA
ATOM     18  C   UNL     1      34.772 -18.280 -23.690  0.00  0.00    +0.333 C 
BRANCH  18  19
ATOM     19  O   UNL     1      36.124 -18.381 -23.674  0.00  0.00    -0.479 OA
ATOM     20  H   UNL     1      36.554 -18.996 -24.235  0.00  0.00    +0.295 HD
ENDBRANCH  18  19
ENDBRANCH  16  18
BRANCH  16  21
ATOM     21  C   UNL     1      35.104 -18.063 -21.218  0.00  0.00    +0.058 C 
BRANCH  21  22
ATOM     22  C   UNL     1      34.902 -19.436 -20.621  0.00  0.00    -0.020 C 
ATOM     23  C   UNL     1      36.009 -20.181 -20.248  0.00  0.00    -0.001 C 
ATOM     24  C   UNL     1      33.616 -19.923 -20.459  0.00  0.00    -0.001 C 
ATOM     25  C   UNL     1      35.823 -21.450 -19.696  0.00  0.00    +0.036 C 
ATOM     26  C   UNL     1      33.429 -21.190 -19.908  0.00  0.00    +0.036 C 
ATOM     27  C   UNL     1      34.533 -21.954 -19.526  0.00  0.00    +0.134 C 
BRANCH  27  28
ATOM     28  O   UNL     1      34.352 -23.191 -18.990  0.00  0.00    -0.506 OA
ATOM     29  H   UNL     1      34.751 -23.938 -19.389  0.00  0.00    +0.292 HD
ENDBRANCH  27  28
ENDBRANCH  21  22
ENDBRANCH  16  21
ENDBRANCH   3  16
TORSDOF 8
ENDMDL
MODEL 4
REMARK VINA RESULT:      -9.7      0.963      2.289
REMARK  Name = 7013169
REMARK  8 active torsions:
REMARK  status: ('A' for Active; 'I' for Inactive)
REMARK    1  A    between atoms: N_3  and  C_16
REMARK    2  A    between atoms: C_10  and  C_13
REMARK    3  A    between atoms: C_13  and  O_14
REMARK    4  A    between atoms: C_16  and  C_18
REMARK    5  A    between atoms: C_16  and  C_21
REMARK    6  A    between atoms: C_18  and  O_19
REMARK    7  A    between atoms: C_21  and  C_22
REMARK    8  A    between atoms: C_27  and  O_28
REMARK                            x       y       z     vdW  Elec       q    Type
REMARK                         _______ _______ _______ _____ _____    ______ ____
ROOT
ATOM      1  O   UNL     1      32.103 -14.724 -21.762  0.00  0.00    -0.269 OA
ATOM      2  O   UNL     1      33.903 -12.266 -25.254  0.00  0.00    -0.269 OA
ATOM      3  N   UNL     1      33.075 -13.858 -23.726  0.00  0.00    -0.213 N 
ATOM      4  C   UNL     1      32.386 -12.400 -22.136  0.00  0.00    +0.059 C 
ATOM      5  C   UNL     1      32.924 -11.665 -23.181  0.00  0.00    +0.058 C 
ATOM      6  C   UNL     1      32.484 -13.818 -22.481  0.00  0.00    +0.256 C 
ATOM      7  C   UNL     1      33.374 -12.602 -24.210  0.00  0.00    +0.256 C 
ATOM      8  C   UNL     1      31.873 -11.797 -21.006  0.00  0.00    +0.011 C 
ATOM      9  C   UNL     1      32.978 -10.287 -23.152  0.00  0.00    +0.005 C 
ATOM     10  C   UNL     1      31.916 -10.401 -20.955  0.00  0.00    +0.076 C 
ATOM     11  C   UNL     1      32.463  -9.653 -22.017  0.00  0.00    +0.007 C 
ENDROOT
BRANCH  10  13
ATOM     12  O   UNL     1      31.724  -8.577 -19.419  0.00  0.00    -0.245 OA
ATOM     13  C   UNL     1      31.391  -9.708 -19.789  0.00  0.00    +0.338 C 
BRANCH  13  14
ATOM     14  O   UNL     1      30.463 -10.445 -19.119  0.00  0.00    -0.477 OA
ATOM     15  H   UNL     1      30.110 -11.220 -19.510  0.00  0.00    +0.295 HD
ENDBRANCH  13  14
ENDBRANCH  10  13
BRANCH   3  16
ATOM     16  C   UNL     1      33.351 -15.085 -24.447  0.00  0.00    +0.186 C 
BRANCH  16  18
ATOM     17  O   UNL     1      33.850 -15.326 -26.802  0.00  0.00    -0.248 OA
ATOM     18  C   UNL     1      33.084 -14.917 -25.935  0.00  0.00    +0.333 C 
BRANCH  18  19
ATOM     19  O   UNL     1      31.930 -14.274 -26.238  0.00  0.00    -0.479 OA
ATOM     20  H   UNL     1      31.777 -13.974 -27.112  0.00  0.00    +0.295 HD
ENDBRANCH  18  19
ENDBRANCH  16  18
BRANCH  16  21
ATOM     21  C   UNL     1      34.799 -15.547 -24.223  0.00  0.00    +0.058 C 
BRANCH  21  22
ATOM     22  C   UNL     1      34.883 -16.793 -23.373  0.00  0.00    -0.020 C 
ATOM     23  C   UNL     1      34.861 -18.034 -23.988  0.00  0.00    -0.001 C 
ATOM     24  C   UNL     1      34.981 -16.670 -21.997  0.00  0.00    -0.001 C 
ATOM     25  C   UNL     1      34.938 -19.185 -23.203  0.00  0.00    +0.036 C 
ATOM     26  C   UNL     1      35.058 -17.820 -21.212  0.00  0.00    +0.036 C 
ATOM     27  C   UNL     1      35.037 -19.078 -21.815  0.00  0.00    +0.134 C 
BRANCH  27  28
ATOM     28  O   UNL     1      35.112 -20.201 -21.050  0.00  0.00    -0.506 OA
ATOM     29  H   UNL     1      34.457 -20.371 -20.402  0.00  0.00    +0.292 HD
ENDBRANCH  27  28
ENDBRANCH  21  22
ENDBRANCH  16  21
ENDBRANCH   3  16
TORSDOF 8
ENDMDL
MODEL 5
REMARK VINA RESULT:      -9.7      5.114     10.169
REMARK  Name = 7013169
REMARK  8 active torsions:
REMARK  status: ('A' for Active; 'I' for Inactive)
REMARK    1  A    between atoms: N_3  and  C_16
REMARK    2  A    between atoms: C_10  and  C_13
REMARK    3  A    between atoms: C_13  and  O_14
REMARK    4  A    between atoms: C_16  and  C_18
REMARK    5  A    between atoms: C_16  and  C_21
REMARK    6  A    between atoms: C_18  and  O_19
REMARK    7  A    between atoms: C_21  and  C_22
REMARK    8  A    between atoms: C_27  and  O_28
REMARK                            x       y       z     vdW  Elec       q    Type
REMARK                         _______ _______ _______ _____ _____    ______ ____
ROOT
ATOM      1  O   UNL     1      37.097 -20.196 -19.631  0.00  0.00    -0.269 OA
ATOM      2  O   UNL     1      32.881 -22.114 -19.475  0.00  0.00    -0.269 OA
ATOM      3  N   UNL     1      34.886 -20.958 -19.920  0.00  0.00    -0.213 N 
ATOM      4  C   UNL     1      36.057 -21.712 -18.135  0.00  0.00    +0.059 C 
ATOM      5  C   UNL     1      34.795 -22.286 -18.088  0.00  0.00    +0.058 C 
ATOM      6  C   UNL     1      36.120 -20.850 -19.314  0.00  0.00    +0.256 C 
ATOM      7  C   UNL     1      34.034 -21.800 -19.238  0.00  0.00    +0.256 C 
ATOM      8  C   UNL     1      37.015 -21.976 -17.178  0.00  0.00    +0.011 C 
ATOM      9  C   UNL     1      34.425 -23.154 -17.082  0.00  0.00    +0.005 C 
ATOM     10  C   UNL     1      36.662 -22.854 -16.149  0.00  0.00    +0.076 C 
ATOM     11  C   UNL     1      35.380 -23.437 -16.101  0.00  0.00    +0.007 C 
ENDROOT
BRANCH  10  13
ATOM     12  O   UNL     1      37.494 -22.927 -13.907  0.00  0.00    -0.245 OA
ATOM     13  C   UNL     1      37.631 -23.170 -15.110  0.00  0.00    +0.338 C 
BRANCH  13  14
ATOM     14  O   UNL     1      38.742 -23.782 -15.604  0.00  0.00    -0.477 OA
ATOM     15  H   UNL     1      39.435 -24.032 -15.025  0.00  0.00    +0.295 HD
ENDBRANCH  13  14
ENDBRANCH  10  13
BRANCH   3  16
ATOM     16  C   UNL     1      34.525 -20.264 -21.140  0.00  0.00    +0.186 C 
BRANCH  16  18
ATOM     17  O   UNL     1      33.158 -18.344 -20.592  0.00  0.00    -0.248 OA
ATOM     18  C   UNL     1      33.214 -19.509 -20.974  0.00  0.00    +0.333 C 
BRANCH  18  19
ATOM     19  O   UNL     1      32.103 -20.223 -21.277  0.00  0.00    -0.479 OA
ATOM     20  H   UNL     1      32.086 -21.148 -21.129  0.00  0.00    +0.295 HD
ENDBRANCH  18  19
ENDBRANCH  16  18
BRANCH  16  21
ATOM     21  C   UNL     1      35.635 -19.297 -21.578  0.00  0.00    +0.058 C 
BRANCH  21  22
ATOM     22  C   UNL     1      35.246 -18.481 -22.789  0.00  0.00    -0.020 C 
ATOM     23  C   UNL     1      34.797 -19.130 -23.927  0.00  0.00    -0.001 C 
ATOM     24  C   UNL     1      35.345 -17.101 -22.736  0.00  0.00    -0.001 C 
ATOM     25  C   UNL     1      34.438 -18.377 -25.046  0.00  0.00    +0.036 C 
ATOM     26  C   UNL     1      34.986 -16.347 -23.854  0.00  0.00    +0.036 C 
ATOM     27  C   UNL     1      34.533 -16.985 -25.008  0.00  0.00    +0.134 C 
BRANCH  27  28
ATOM     28  O   UNL     1      34.183 -16.251 -26.099  0.00  0.00    -0.506 OA
ATOM     29  H   UNL     1      33.576 -15.542 -26.013  0.00  0.00    +0.292 HD
ENDBRANCH  27  28
ENDBRANCH  21  22
ENDBRANCH  16  21
ENDBRANCH   3  16
TORSDOF 8
ENDMDL
MODEL 6
REMARK VINA RESULT:      -9.7      1.813      7.677
REMARK  Name = 7013169
REMARK  8 active torsions:
REMARK  status: ('A' for Active; 'I' for Inactive)
REMARK    1  A    between atoms: N_3  and  C_16
REMARK    2  A    between atoms: C_10  and  C_13
REMARK    3  A    between atoms: C_13  and  O_14
REMARK    4  A    between atoms: C_16  and  C_18
REMARK    5  A    between atoms: C_16  and  C_21
REMARK    6  A    between atoms: C_18  and  O_19
REMARK    7  A    between atoms: C_21  and  C_22
REMARK    8  A    between atoms: C_27  and  O_28
REMARK                            x       y       z     vdW  Elec       q    Type
REMARK                         _______ _______ _______ _____ _____    ______ ____
ROOT
ATOM      1  O   UNL     1      34.582 -14.313 -22.160  0.00  0.00    -0.269 OA
ATOM      2  O   UNL     1      33.895 -16.357 -26.262  0.00  0.00    -0.269 OA
ATOM      3  N   UNL     1      34.167 -14.952 -24.391  0.00  0.00    -0.213 N 
ATOM      4  C   UNL     1      34.691 -16.566 -22.891  0.00  0.00    +0.059 C 
ATOM      5  C   UNL     1      34.486 -17.177 -24.118  0.00  0.00    +0.058 C 
ATOM      6  C   UNL     1      34.483 -15.128 -23.060  0.00  0.00    +0.256 C 
ATOM      7  C   UNL     1      34.144 -16.139 -25.090  0.00  0.00    +0.256 C 
ATOM      8  C   UNL     1      35.029 -17.286 -21.763  0.00  0.00    +0.011 C 
ATOM      9  C   UNL     1      34.607 -18.541 -24.284  0.00  0.00    +0.005 C 
ATOM     10  C   UNL     1      35.159 -18.670 -21.908  0.00  0.00    +0.076 C 
ATOM     11  C   UNL     1      34.950 -19.292 -23.155  0.00  0.00    +0.007 C 
ENDROOT
BRANCH  10  13
ATOM     12  O   UNL     1      36.614 -19.486 -20.193  0.00  0.00    -0.245 OA
ATOM     13  C   UNL     1      35.513 -19.482 -20.754  0.00  0.00    +0.338 C 
BRANCH  13  14
ATOM     14  O   UNL     1      34.483 -20.265 -20.332  0.00  0.00    -0.477 OA
ATOM     15  H   UNL     1      34.413 -20.500 -19.427  0.00  0.00    +0.295 HD
ENDBRANCH  13  14
ENDBRANCH  10  13
BRANCH   3  16
ATOM     16  C   UNL     1      33.891 -13.660 -24.988  0.00  0.00    +0.186 C 
BRANCH  16  18
ATOM     17  O   UNL     1      33.775 -13.509 -27.400  0.00  0.00    -0.248 OA
ATOM     18  C   UNL     1      33.225 -13.816 -26.347  0.00  0.00    +0.333 C 
BRANCH  18  19
ATOM     19  O   UNL     1      31.968 -14.320 -26.310  0.00  0.00    -0.479 OA
ATOM     20  H   UNL     1      31.353 -14.096 -26.981  0.00  0.00    +0.295 HD
ENDBRANCH  18  19
ENDBRANCH  16  18
BRANCH  16  21
ATOM     21  C   UNL     1      33.012 -12.800 -24.069  0.00  0.00    +0.058 C 
BRANCH  21  22
ATOM     22  C   UNL     1      33.492 -11.370 -23.983  0.00  0.00    -0.020 C 
ATOM     23  C   UNL     1      34.615 -10.989 -24.699  0.00  0.00    -0.001 C 
ATOM     24  C   UNL     1      32.800 -10.469 -23.190  0.00  0.00    -0.001 C 
ATOM     25  C   UNL     1      35.059  -9.668 -24.619  0.00  0.00    +0.036 C 
ATOM     26  C   UNL     1      33.243  -9.149 -23.111  0.00  0.00    +0.036 C 
ATOM     27  C   UNL     1      34.372  -8.748 -23.825  0.00  0.00    +0.134 C 
BRANCH  27  28
ATOM     28  O   UNL     1      34.806  -7.461 -23.747  0.00  0.00    -0.506 OA
ATOM     29  H   UNL     1      34.186  -6.758 -23.723  0.00  0.00    +0.292 HD
ENDBRANCH  27  28
ENDBRANCH  21  22
ENDBRANCH  16  21
ENDBRANCH   3  16
TORSDOF 8
ENDMDL
MODEL 7
REMARK VINA RESULT:      -9.7      2.369      4.196
REMARK  Name = 7013169
REMARK  8 active torsions:
REMARK  status: ('A' for Active; 'I' for Inactive)
REMARK    1  A    between atoms: N_3  and  C_16
REMARK    2  A    between atoms: C_10  and  C_13
REMARK    3  A    between atoms: C_13  and  O_14
REMARK    4  A    between atoms: C_16  and  C_18
REMARK    5  A    between atoms: C_16  and  C_21
REMARK    6  A    between atoms: C_18  and  O_19
REMARK    7  A    between atoms: C_21  and  C_22
REMARK    8  A    between atoms: C_27  and  O_28
REMARK                            x       y       z     vdW  Elec       q    Type
REMARK                         _______ _______ _______ _____ _____    ______ ____
ROOT
ATOM      1  O   UNL     1      34.547 -15.483 -21.355  0.00  0.00    -0.269 OA
ATOM      2  O   UNL     1      33.670 -17.116 -25.603  0.00  0.00    -0.269 OA
ATOM      3  N   UNL     1      34.144 -16.701 -23.332  0.00  0.00    -0.213 N 
ATOM      4  C   UNL     1      34.034 -14.441 -23.422  0.00  0.00    +0.059 C 
ATOM      5  C   UNL     1      33.771 -14.929 -24.692  0.00  0.00    +0.058 C 
ATOM      6  C   UNL     1      34.279 -15.581 -22.539  0.00  0.00    +0.256 C 
ATOM      7  C   UNL     1      33.844 -16.389 -24.641  0.00  0.00    +0.256 C 
ATOM      8  C   UNL     1      34.040 -13.089 -23.145  0.00  0.00    +0.011 C 
ATOM      9  C   UNL     1      33.501 -14.093 -25.755  0.00  0.00    +0.005 C 
ATOM     10  C   UNL     1      33.767 -12.222 -24.207  0.00  0.00    +0.076 C 
ATOM     11  C   UNL     1      33.500 -12.718 -25.499  0.00  0.00    +0.007 C 
ENDROOT
BRANCH  10  13
ATOM     12  O   UNL     1      32.755 -10.101 -23.756  0.00  0.00    -0.245 OA
ATOM     13  C   UNL     1      33.760 -10.785 -23.977  0.00  0.00    +0.338 C 
BRANCH  13  14
ATOM     14  O   UNL     1      35.007 -10.243 -24.028  0.00  0.00    -0.477 OA
ATOM     15  H   UNL     1      35.510 -10.150 -23.243  0.00  0.00    +0.295 HD
ENDBRANCH  13  14
ENDBRANCH  10  13
BRANCH   3  16
ATOM     16  C   UNL     1      34.300 -18.057 -22.843  0.00  0.00    +0.186 C 
BRANCH  16  18
ATOM     17  O   UNL     1      35.239 -19.690 -24.361  0.00  0.00    -0.248 OA
ATOM     18  C   UNL     1      35.429 -18.774 -23.566  0.00  0.00    +0.333 C 
BRANCH  18  19
ATOM     19  O   UNL     1      36.673 -18.328 -23.264  0.00  0.00    -0.479 OA
ATOM     20  H   UNL     1      37.352 -18.939 -23.055  0.00  0.00    +0.295 HD
ENDBRANCH  18  19
ENDBRANCH  16  18
BRANCH  16  21
ATOM     21  C   UNL     1      34.552 -18.075 -21.328  0.00  0.00    +0.058 C 
BRANCH  21  22
ATOM     22  C   UNL     1      34.378 -19.451 -20.730  0.00  0.00    -0.020 C 
ATOM     23  C   UNL     1      33.099 -19.937 -20.512  0.00  0.00    -0.001 C 
ATOM     24  C   UNL     1      35.499 -20.199 -20.411  0.00  0.00    -0.001 C 
ATOM     25  C   UNL     1      32.937 -21.208 -19.958  0.00  0.00    +0.036 C 
ATOM     26  C   UNL     1      35.337 -21.469 -19.858  0.00  0.00    +0.036 C 
ATOM     27  C   UNL     1      34.057 -21.974 -19.632  0.00  0.00    +0.134 C 
BRANCH  27  28
ATOM     28  O   UNL     1      33.898 -23.213 -19.092  0.00  0.00    -0.506 OA
ATOM     29  H   UNL     1      34.645 -23.693 -18.793  0.00  0.00    +0.292 HD
ENDBRANCH  27  28
ENDBRANCH  21  22
ENDBRANCH  16  21
ENDBRANCH   3  16
TORSDOF 8
ENDMDL
MODEL 8
REMARK VINA RESULT:      -9.6     12.039     13.872
REMARK  Name = 7013169
REMARK  8 active torsions:
REMARK  status: ('A' for Active; 'I' for Inactive)
REMARK    1  A    between atoms: N_3  and  C_16
REMARK    2  A    between atoms: C_10  and  C_13
REMARK    3  A    between atoms: C_13  and  O_14
REMARK    4  A    between atoms: C_16  and  C_18
REMARK    5  A    between atoms: C_16  and  C_21
REMARK    6  A    between atoms: C_18  and  O_19
REMARK    7  A    between atoms: C_21  and  C_22
REMARK    8  A    between atoms: C_27  and  O_28
REMARK                            x       y       z     vdW  Elec       q    Type
REMARK                         _______ _______ _______ _____ _____    ______ ____
ROOT
ATOM      1  O   UNL     1      33.449 -22.715 -16.503  0.00  0.00    -0.269 OA
ATOM      2  O   UNL     1      32.340 -25.393 -12.886  0.00  0.00    -0.269 OA
ATOM      3  N   UNL     1      33.308 -24.072 -14.580  0.00  0.00    -0.213 N 
ATOM      4  C   UNL     1      31.390 -23.532 -15.657  0.00  0.00    +0.059 C 
ATOM      5  C   UNL     1      31.059 -24.333 -14.575  0.00  0.00    +0.058 C 
ATOM      6  C   UNL     1      32.843 -23.363 -15.668  0.00  0.00    +0.256 C 
ATOM      7  C   UNL     1      32.294 -24.687 -13.878  0.00  0.00    +0.256 C 
ATOM      8  C   UNL     1      30.433 -23.034 -16.518  0.00  0.00    +0.011 C 
ATOM      9  C   UNL     1      29.753 -24.679 -14.295  0.00  0.00    +0.005 C 
ATOM     10  C   UNL     1      29.103 -23.370 -16.253  0.00  0.00    +0.076 C 
ATOM     11  C   UNL     1      28.765 -24.184 -15.153  0.00  0.00    +0.007 C 
ENDROOT
BRANCH  10  13
ATOM     12  O   UNL     1      27.458 -23.540 -17.982  0.00  0.00    -0.245 OA
ATOM     13  C   UNL     1      28.049 -22.874 -17.125  0.00  0.00    +0.338 C 
BRANCH  13  14
ATOM     14  O   UNL     1      27.763 -21.563 -16.903  0.00  0.00    -0.477 OA
ATOM     15  H   UNL     1      27.079 -21.327 -16.307  0.00  0.00    +0.295 HD
ENDBRANCH  13  14
ENDBRANCH  10  13
BRANCH   3  16
ATOM     16  C   UNL     1      34.708 -24.159 -14.216  0.00  0.00    +0.186 C 
BRANCH  16  18
ATOM     17  O   UNL     1      35.540 -25.124 -12.159  0.00  0.00    -0.248 OA
ATOM     18  C   UNL     1      34.877 -24.249 -12.707  0.00  0.00    +0.333 C 
BRANCH  18  19
ATOM     19  O   UNL     1      34.233 -23.286 -12.004  0.00  0.00    -0.479 OA
ATOM     20  H   UNL     1      34.294 -23.268 -11.069  0.00  0.00    +0.295 HD
ENDBRANCH  18  19
ENDBRANCH  16  18
BRANCH  16  21
ATOM     21  C   UNL     1      35.384 -25.361 -14.892  0.00  0.00    +0.058 C 
BRANCH  21  22
ATOM     22  C   UNL     1      36.891 -25.256 -14.886  0.00  0.00    -0.020 C 
ATOM     23  C   UNL     1      37.644 -26.358 -14.516  0.00  0.00    -0.001 C 
ATOM     24  C   UNL     1      37.489 -24.062 -15.250  0.00  0.00    -0.001 C 
ATOM     25  C   UNL     1      39.037 -26.262 -14.510  0.00  0.00    +0.036 C 
ATOM     26  C   UNL     1      38.880 -23.965 -15.245  0.00  0.00    +0.036 C 
ATOM     27  C   UNL     1      39.654 -25.065 -14.875  0.00  0.00    +0.134 C 
BRANCH  27  28
ATOM     28  O   UNL     1      41.012 -24.971 -14.869  0.00  0.00    -0.506 OA
ATOM     29  H   UNL     1      41.531 -25.670 -15.214  0.00  0.00    +0.292 HD
ENDBRANCH  27  28
ENDBRANCH  21  22
ENDBRANCH  16  21
ENDBRANCH   3  16
TORSDOF 8
ENDMDL
MODEL 9
REMARK VINA RESULT:      -9.6      6.925     11.483
REMARK  Name = 7013169
REMARK  8 active torsions:
REMARK  status: ('A' for Active; 'I' for Inactive)
REMARK    1  A    between atoms: N_3  and  C_16
REMARK    2  A    between atoms: C_10  and  C_13
REMARK    3  A    between atoms: C_13  and  O_14
REMARK    4  A    between atoms: C_16  and  C_18
REMARK    5  A    between atoms: C_16  and  C_21
REMARK    6  A    between atoms: C_18  and  O_19
REMARK    7  A    between atoms: C_21  and  C_22
REMARK    8  A    between atoms: C_27  and  O_28
REMARK                            x       y       z     vdW  Elec       q    Type
REMARK                         _______ _______ _______ _____ _____    ______ ____
ROOT
ATOM      1  O   UNL     1      32.389 -22.383 -18.433  0.00  0.00    -0.269 OA
ATOM      2  O   UNL     1      36.765 -22.612 -16.923  0.00  0.00    -0.269 OA
ATOM      3  N   UNL     1      34.455 -22.763 -17.364  0.00  0.00    -0.213 N 
ATOM      4  C   UNL     1      34.426 -21.446 -19.206  0.00  0.00    +0.059 C 
ATOM      5  C   UNL     1      35.734 -21.515 -18.754  0.00  0.00    +0.058 C 
ATOM      6  C   UNL     1      33.593 -22.248 -18.309  0.00  0.00    +0.256 C 
ATOM      7  C   UNL     1      35.759 -22.362 -17.562  0.00  0.00    +0.256 C 
ATOM      8  C   UNL     1      34.075 -20.714 -20.322  0.00  0.00    +0.011 C 
ATOM      9  C   UNL     1      36.764 -20.856 -19.394  0.00  0.00    +0.005 C 
ATOM     10  C   UNL     1      35.102 -20.039 -20.987  0.00  0.00    +0.076 C 
ATOM     11  C   UNL     1      36.433 -20.108 -20.529  0.00  0.00    +0.007 C 
ENDROOT
BRANCH  10  13
ATOM     12  O   UNL     1      34.966 -19.616 -23.338  0.00  0.00    -0.245 OA
ATOM     13  C   UNL     1      34.794 -19.250 -22.171  0.00  0.00    +0.338 C 
BRANCH  13  14
ATOM     14  O   UNL     1      34.279 -18.029 -21.863  0.00  0.00    -0.477 OA
ATOM     15  H   UNL     1      33.409 -17.960 -21.520  0.00  0.00    +0.295 HD
ENDBRANCH  13  14
ENDBRANCH  10  13
BRANCH   3  16
ATOM     16  C   UNL     1      34.035 -23.631 -16.281  0.00  0.00    +0.186 C 
BRANCH  16  18
ATOM     17  O   UNL     1      35.728 -25.298 -15.823  0.00  0.00    -0.248 OA
ATOM     18  C   UNL     1      35.236 -24.209 -15.546  0.00  0.00    +0.333 C 
BRANCH  18  19
ATOM     19  O   UNL     1      35.724 -23.429 -14.551  0.00  0.00    -0.479 OA
ATOM     20  H   UNL     1      36.361 -23.772 -13.957  0.00  0.00    +0.295 HD
ENDBRANCH  18  19
ENDBRANCH  16  18
BRANCH  16  21
ATOM     21  C   UNL     1      33.125 -22.888 -15.294  0.00  0.00    +0.058 C 
BRANCH  21  22
ATOM     22  C   UNL     1      31.845 -23.638 -15.010  0.00  0.00    -0.020 C 
ATOM     23  C   UNL     1      30.789 -23.536 -15.901  0.00  0.00    -0.001 C 
ATOM     24  C   UNL     1      31.752 -24.413 -13.866  0.00  0.00    -0.001 C 
ATOM     25  C   UNL     1      29.606 -24.230 -15.639  0.00  0.00    +0.036 C 
ATOM     26  C   UNL     1      30.570 -25.106 -13.604  0.00  0.00    +0.036 C 
ATOM     27  C   UNL     1      29.497 -25.015 -14.491  0.00  0.00    +0.134 C 
BRANCH  27  28
ATOM     28  O   UNL     1      28.344 -25.690 -14.236  0.00  0.00    -0.506 OA
ATOM     29  H   UNL     1      27.623 -25.249 -13.831  0.00  0.00    +0.292 HD
ENDBRANCH  27  28
ENDBRANCH  21  22
ENDBRANCH  16  21
ENDBRANCH   3  16
TORSDOF 8
ENDMDL
