MODEL 1
REMARK VINA RESULT:      -8.7      0.000      0.000
REMARK  Name = 57398987
REMARK  5 active torsions:
REMARK  status: ('A' for Active; 'I' for Inactive)
REMARK    1  A    between atoms: C_2  and  C_19
REMARK    2  A    between atoms: C_4  and  N_12
REMARK    3  A    between atoms: C_9  and  N_18
REMARK    4  A    between atoms: C_19  and  C_22
REMARK    5  A    between atoms: C_22  and  O_23
REMARK                            x       y       z     vdW  Elec       q    Type
REMARK                         _______ _______ _______ _____ _____    ______ ____
ROOT
ATOM      1  N   UNL     1      34.602 -24.771 -14.126  0.00  0.00    -0.334 N 
ATOM      2  C   UNL     1      33.903 -23.547 -14.479  0.00  0.00    +0.070 C 
ATOM      3  C   UNL     1      34.426 -23.030 -15.821  0.00  0.00    +0.003 C 
ATOM      4  C   UNL     1      35.938 -22.757 -15.738  0.00  0.00    -0.032 C 
ATOM      5  C   UNL     1      36.672 -23.950 -15.146  0.00  0.00    -0.027 C 
ATOM      6  C   UNL     1      35.969 -24.889 -14.357  0.00  0.00    +0.039 C 
ATOM      7  C   UNL     1      38.061 -24.101 -15.310  0.00  0.00    +0.019 C 
ATOM      8  C   UNL     1      36.661 -25.990 -13.826  0.00  0.00    +0.016 C 
ATOM      9  C   UNL     1      38.733 -25.193 -14.759  0.00  0.00    +0.143 C 
ATOM     10  C   UNL     1      38.032 -26.141 -14.025  0.00  0.00    +0.025 C 
ATOM     11  H   UNL     1      34.106 -25.520 -13.721  0.00  0.00    +0.147 HD
ENDROOT
BRANCH   4  12
ATOM     12  N   UNL     1      36.395 -22.395 -17.085  0.00  0.00    +0.388 N 
ATOM     13  C   UNL     1      35.254 -22.253 -17.986  0.00  0.00    -0.100 C 
ATOM     14  C   UNL     1      37.173 -21.161 -17.041  0.00  0.00    -0.100 C 
ATOM     15  H   UNL     1      36.993 -23.141 -17.439  0.00  0.00    -0.079 HD
ENDBRANCH   4  12
BRANCH   9  18
ATOM     16  O   UNL     1      40.554 -26.127 -15.822  0.00  0.00    -0.126 OA
ATOM     17  O   UNL     1      40.913 -24.657 -14.231  0.00  0.00    -0.126 OA
ATOM     18  N   UNL     1      40.134 -25.333 -14.946  0.00  0.00    +0.058 N 
ENDBRANCH   9  18
BRANCH   2  19
ATOM     19  C   UNL     1      32.405 -23.825 -14.550  0.00  0.00    +0.043 C 
ATOM     20  C   UNL     1      31.964 -23.874 -16.027  0.00  0.00    +0.004 C 
ATOM     21  C   UNL     1      31.634 -22.695 -13.840  0.00  0.00    +0.004 C 
BRANCH  19  22
ATOM     22  C   UNL     1      32.063 -25.164 -13.856  0.00  0.00    +0.139 C 
BRANCH  22  23
ATOM     23  O   UNL     1      30.885 -25.040 -13.071  0.00  0.00    -0.382 OA
ATOM     24  H   UNL     1      30.295 -24.383 -13.474  0.00  0.00    +0.210 HD
ENDBRANCH  22  23
ENDBRANCH  19  22
ENDBRANCH   2  19
TORSDOF 5
ENDMDL
MODEL 2
REMARK VINA RESULT:      -8.6      2.396      6.406
REMARK  Name = 57398987
REMARK  5 active torsions:
REMARK  status: ('A' for Active; 'I' for Inactive)
REMARK    1  A    between atoms: C_2  and  C_19
REMARK    2  A    between atoms: C_4  and  N_12
REMARK    3  A    between atoms: C_9  and  N_18
REMARK    4  A    between atoms: C_19  and  C_22
REMARK    5  A    between atoms: C_22  and  O_23
REMARK                            x       y       z     vdW  Elec       q    Type
REMARK                         _______ _______ _______ _____ _____    ______ ____
ROOT
ATOM      1  N   UNL     1      34.145 -24.605 -14.065  0.00  0.00    -0.334 N 
ATOM      2  C   UNL     1      35.250 -24.920 -14.956  0.00  0.00    +0.070 C 
ATOM      3  C   UNL     1      35.408 -23.801 -15.988  0.00  0.00    +0.003 C 
ATOM      4  C   UNL     1      34.114 -23.640 -16.806  0.00  0.00    -0.032 C 
ATOM      5  C   UNL     1      32.903 -23.543 -15.891  0.00  0.00    -0.027 C 
ATOM      6  C   UNL     1      32.976 -24.045 -14.571  0.00  0.00    +0.039 C 
ATOM      7  C   UNL     1      31.682 -23.024 -16.357  0.00  0.00    +0.019 C 
ATOM      8  C   UNL     1      31.851 -23.938 -13.737  0.00  0.00    +0.016 C 
ATOM      9  C   UNL     1      30.570 -22.944 -15.518  0.00  0.00    +0.143 C 
ATOM     10  C   UNL     1      30.657 -23.393 -14.205  0.00  0.00    +0.025 C 
ATOM     11  H   UNL     1      34.224 -24.790 -13.101  0.00  0.00    +0.147 HD
ENDROOT
BRANCH   4  12
ATOM     12  N   UNL     1      34.287 -22.472 -17.678  0.00  0.00    +0.388 N 
ATOM     13  C   UNL     1      35.687 -22.053 -17.692  0.00  0.00    -0.100 C 
ATOM     14  C   UNL     1      33.827 -22.776 -19.029  0.00  0.00    -0.100 C 
ATOM     15  H   UNL     1      33.725 -21.704 -17.311  0.00  0.00    -0.079 HD
ENDBRANCH   4  12
BRANCH   9  18
ATOM     16  O   UNL     1      29.130 -22.417 -17.240  0.00  0.00    -0.126 OA
ATOM     17  O   UNL     1      28.523 -21.937 -15.185  0.00  0.00    -0.126 OA
ATOM     18  N   UNL     1      29.349 -22.407 -16.005  0.00  0.00    +0.058 N 
ENDBRANCH   9  18
BRANCH   2  19
ATOM     19  C   UNL     1      36.525 -25.087 -14.135  0.00  0.00    +0.043 C 
ATOM     20  C   UNL     1      36.185 -24.970 -12.635  0.00  0.00    +0.004 C 
ATOM     21  C   UNL     1      37.528 -23.976 -14.504  0.00  0.00    +0.004 C 
BRANCH  19  22
ATOM     22  C   UNL     1      37.183 -26.457 -14.419  0.00  0.00    +0.139 C 
BRANCH  22  23
ATOM     23  O   UNL     1      37.205 -26.728 -15.814  0.00  0.00    -0.382 OA
ATOM     24  H   UNL     1      36.624 -27.481 -16.006  0.00  0.00    +0.210 HD
ENDBRANCH  22  23
ENDBRANCH  19  22
ENDBRANCH   2  19
TORSDOF 5
ENDMDL
MODEL 3
REMARK VINA RESULT:      -8.5      3.023      6.502
REMARK  Name = 57398987
REMARK  5 active torsions:
REMARK  status: ('A' for Active; 'I' for Inactive)
REMARK    1  A    between atoms: C_2  and  C_19
REMARK    2  A    between atoms: C_4  and  N_12
REMARK    3  A    between atoms: C_9  and  N_18
REMARK    4  A    between atoms: C_19  and  C_22
REMARK    5  A    between atoms: C_22  and  O_23
REMARK                            x       y       z     vdW  Elec       q    Type
REMARK                         _______ _______ _______ _____ _____    ______ ____
ROOT
ATOM      1  N   UNL     1      33.623 -24.002 -13.902  0.00  0.00    -0.334 N 
ATOM      2  C   UNL     1      34.853 -24.357 -14.590  0.00  0.00    +0.070 C 
ATOM      3  C   UNL     1      35.047 -23.437 -15.797  0.00  0.00    +0.003 C 
ATOM      4  C   UNL     1      33.857 -23.565 -16.765  0.00  0.00    -0.032 C 
ATOM      5  C   UNL     1      32.537 -23.430 -16.022  0.00  0.00    -0.027 C 
ATOM      6  C   UNL     1      32.485 -23.670 -14.630  0.00  0.00    +0.039 C 
ATOM      7  C   UNL     1      31.345 -23.137 -16.710  0.00  0.00    +0.019 C 
ATOM      8  C   UNL     1      31.259 -23.530 -13.959  0.00  0.00    +0.016 C 
ATOM      9  C   UNL     1      30.134 -23.022 -16.026  0.00  0.00    +0.143 C 
ATOM     10  C   UNL     1      30.092 -23.209 -14.650  0.00  0.00    +0.025 C 
ATOM     11  H   UNL     1      33.595 -23.996 -12.917  0.00  0.00    +0.147 HD
ENDROOT
BRANCH   4  12
ATOM     12  N   UNL     1      34.041 -22.567 -17.824  0.00  0.00    +0.388 N 
ATOM     13  C   UNL     1      35.403 -22.038 -17.791  0.00  0.00    -0.100 C 
ATOM     14  C   UNL     1      33.747 -23.152 -19.129  0.00  0.00    -0.100 C 
ATOM     15  H   UNL     1      33.393 -21.796 -17.664  0.00  0.00    -0.079 HD
ENDBRANCH   4  12
BRANCH   9  18
ATOM     16  O   UNL     1      28.280 -21.703 -16.403  0.00  0.00    -0.126 OA
ATOM     17  O   UNL     1      28.590 -23.462 -17.681  0.00  0.00    -0.126 OA
ATOM     18  N   UNL     1      28.944 -22.714 -16.737  0.00  0.00    +0.058 N 
ENDBRANCH   9  18
BRANCH   2  19
ATOM     19  C   UNL     1      36.025 -24.235 -13.620  0.00  0.00    +0.043 C 
ATOM     20  C   UNL     1      36.994 -23.147 -14.125  0.00  0.00    +0.004 C 
ATOM     21  C   UNL     1      36.780 -25.577 -13.549  0.00  0.00    +0.004 C 
BRANCH  19  22
ATOM     22  C   UNL     1      35.526 -23.876 -12.201  0.00  0.00    +0.139 C 
BRANCH  22  23
ATOM     23  O   UNL     1      34.923 -25.002 -11.577  0.00  0.00    -0.382 OA
ATOM     24  H   UNL     1      34.591 -25.609 -12.257  0.00  0.00    +0.210 HD
ENDBRANCH  22  23
ENDBRANCH  19  22
ENDBRANCH   2  19
TORSDOF 5
ENDMDL
MODEL 4
REMARK VINA RESULT:      -7.8      3.312      5.193
REMARK  Name = 57398987
REMARK  5 active torsions:
REMARK  status: ('A' for Active; 'I' for Inactive)
REMARK    1  A    between atoms: C_2  and  C_19
REMARK    2  A    between atoms: C_4  and  N_12
REMARK    3  A    between atoms: C_9  and  N_18
REMARK    4  A    between atoms: C_19  and  C_22
REMARK    5  A    between atoms: C_22  and  O_23
REMARK                            x       y       z     vdW  Elec       q    Type
REMARK                         _______ _______ _______ _____ _____    ______ ____
ROOT
ATOM      1  N   UNL     1      31.761 -22.783 -17.511  0.00  0.00    -0.334 N 
ATOM      2  C   UNL     1      31.784 -23.805 -16.478  0.00  0.00    +0.070 C 
ATOM      3  C   UNL     1      32.950 -23.539 -15.523  0.00  0.00    +0.003 C 
ATOM      4  C   UNL     1      34.284 -23.548 -16.291  0.00  0.00    -0.032 C 
ATOM      5  C   UNL     1      34.208 -22.657 -17.521  0.00  0.00    -0.027 C 
ATOM      6  C   UNL     1      32.949 -22.332 -18.077  0.00  0.00    +0.039 C 
ATOM      7  C   UNL     1      35.375 -22.206 -18.162  0.00  0.00    +0.019 C 
ATOM      8  C   UNL     1      32.897 -21.500 -19.207  0.00  0.00    +0.016 C 
ATOM      9  C   UNL     1      35.302 -21.395 -19.296  0.00  0.00    +0.143 C 
ATOM     10  C   UNL     1      34.063 -21.035 -19.813  0.00  0.00    +0.025 C 
ATOM     11  H   UNL     1      30.901 -22.407 -17.811  0.00  0.00    +0.147 HD
ENDROOT
BRANCH   4  12
ATOM     12  N   UNL     1      35.338 -23.158 -15.347  0.00  0.00    +0.388 N 
ATOM     13  C   UNL     1      34.836 -23.213 -13.976  0.00  0.00    -0.100 C 
ATOM     14  C   UNL     1      36.504 -24.022 -15.504  0.00  0.00    -0.100 C 
ATOM     15  H   UNL     1      35.619 -22.199 -15.548  0.00  0.00    -0.079 HD
ENDBRANCH   4  12
BRANCH   9  18
ATOM     16  O   UNL     1      37.320 -21.783 -20.341  0.00  0.00    -0.126 OA
ATOM     17  O   UNL     1      36.682 -19.704 -20.039  0.00  0.00    -0.126 OA
ATOM     18  N   UNL     1      36.492 -20.939 -19.922  0.00  0.00    +0.058 N 
ENDBRANCH   9  18
BRANCH   2  19
ATOM     19  C   UNL     1      30.455 -23.795 -15.730  0.00  0.00    +0.043 C 
ATOM     20  C   UNL     1      30.455 -22.641 -14.706  0.00  0.00    +0.004 C 
ATOM     21  C   UNL     1      30.274 -25.126 -14.975  0.00  0.00    +0.004 C 
BRANCH  19  22
ATOM     22  C   UNL     1      29.274 -23.623 -16.713  0.00  0.00    +0.139 C 
BRANCH  22  23
ATOM     23  O   UNL     1      29.048 -22.249 -16.997  0.00  0.00    -0.382 OA
ATOM     24  H   UNL     1      28.201 -21.974 -16.610  0.00  0.00    +0.210 HD
ENDBRANCH  22  23
ENDBRANCH  19  22
ENDBRANCH   2  19
TORSDOF 5
ENDMDL
MODEL 5
REMARK VINA RESULT:      -7.8     14.009     16.614
REMARK  Name = 57398987
REMARK  5 active torsions:
REMARK  status: ('A' for Active; 'I' for Inactive)
REMARK    1  A    between atoms: C_2  and  C_19
REMARK    2  A    between atoms: C_4  and  N_12
REMARK    3  A    between atoms: C_9  and  N_18
REMARK    4  A    between atoms: C_19  and  C_22
REMARK    5  A    between atoms: C_22  and  O_23
REMARK                            x       y       z     vdW  Elec       q    Type
REMARK                         _______ _______ _______ _____ _____    ______ ____
ROOT
ATOM      1  N   UNL     1      32.962  -9.439 -23.965  0.00  0.00    -0.334 N 
ATOM      2  C   UNL     1      32.074  -8.499 -23.301  0.00  0.00    +0.070 C 
ATOM      3  C   UNL     1      32.038  -8.804 -21.802  0.00  0.00    +0.003 C 
ATOM      4  C   UNL     1      31.544 -10.241 -21.559  0.00  0.00    -0.032 C 
ATOM      5  C   UNL     1      32.307 -11.230 -22.427  0.00  0.00    -0.027 C 
ATOM      6  C   UNL     1      32.964 -10.780 -23.594  0.00  0.00    +0.039 C 
ATOM      7  C   UNL     1      32.311 -12.604 -22.127  0.00  0.00    +0.019 C 
ATOM      8  C   UNL     1      33.672 -11.706 -24.378  0.00  0.00    +0.016 C 
ATOM      9  C   UNL     1      33.006 -13.510 -22.929  0.00  0.00    +0.143 C 
ATOM     10  C   UNL     1      33.693 -13.060 -24.050  0.00  0.00    +0.025 C 
ATOM     11  H   UNL     1      33.563  -9.126 -24.680  0.00  0.00    +0.147 HD
ENDROOT
BRANCH   4  12
ATOM     12  N   UNL     1      31.659 -10.509 -20.121  0.00  0.00    +0.388 N 
ATOM     13  C   UNL     1      32.244  -9.359 -19.436  0.00  0.00    -0.100 C 
ATOM     14  C   UNL     1      30.351 -10.833 -19.560  0.00  0.00    -0.100 C 
ATOM     15  H   UNL     1      32.275 -11.311 -19.986  0.00  0.00    -0.079 HD
ENDBRANCH   4  12
BRANCH   9  18
ATOM     16  O   UNL     1      33.735 -15.672 -23.263  0.00  0.00    -0.126 OA
ATOM     17  O   UNL     1      32.283 -15.295 -21.660  0.00  0.00    -0.126 OA
ATOM     18  N   UNL     1      33.008 -14.892 -22.602  0.00  0.00    +0.058 N 
ENDBRANCH   9  18
BRANCH   2  19
ATOM     19  C   UNL     1      32.567  -7.077 -23.555  0.00  0.00    +0.043 C 
ATOM     20  C   UNL     1      32.566  -6.292 -22.228  0.00  0.00    +0.004 C 
ATOM     21  C   UNL     1      31.623  -6.372 -24.549  0.00  0.00    +0.004 C 
BRANCH  19  22
ATOM     22  C   UNL     1      33.991  -7.091 -24.156  0.00  0.00    +0.139 C 
BRANCH  22  23
ATOM     23  O   UNL     1      34.949  -7.474 -23.177  0.00  0.00    -0.382 OA
ATOM     24  H   UNL     1      35.756  -7.782 -23.619  0.00  0.00    +0.210 HD
ENDBRANCH  22  23
ENDBRANCH  19  22
ENDBRANCH   2  19
TORSDOF 5
ENDMDL
MODEL 6
REMARK VINA RESULT:      -7.7      3.039      4.867
REMARK  Name = 57398987
REMARK  5 active torsions:
REMARK  status: ('A' for Active; 'I' for Inactive)
REMARK    1  A    between atoms: C_2  and  C_19
REMARK    2  A    between atoms: C_4  and  N_12
REMARK    3  A    between atoms: C_9  and  N_18
REMARK    4  A    between atoms: C_19  and  C_22
REMARK    5  A    between atoms: C_22  and  O_23
REMARK                            x       y       z     vdW  Elec       q    Type
REMARK                         _______ _______ _______ _____ _____    ______ ____
ROOT
ATOM      1  N   UNL     1      35.401 -22.991 -16.554  0.00  0.00    -0.334 N 
ATOM      2  C   UNL     1      34.231 -23.396 -17.315  0.00  0.00    +0.070 C 
ATOM      3  C   UNL     1      32.975 -23.197 -16.465  0.00  0.00    +0.003 C 
ATOM      4  C   UNL     1      33.065 -24.027 -15.172  0.00  0.00    -0.032 C 
ATOM      5  C   UNL     1      34.394 -23.796 -14.470  0.00  0.00    -0.027 C 
ATOM      6  C   UNL     1      35.499 -23.303 -15.201  0.00  0.00    +0.039 C 
ATOM      7  C   UNL     1      34.566 -24.131 -13.116  0.00  0.00    +0.019 C 
ATOM      8  C   UNL     1      36.716 -23.086 -14.535  0.00  0.00    +0.016 C 
ATOM      9  C   UNL     1      35.789 -23.925 -12.476  0.00  0.00    +0.143 C 
ATOM     10  C   UNL     1      36.861 -23.394 -13.184  0.00  0.00    +0.025 C 
ATOM     11  H   UNL     1      36.127 -22.493 -16.996  0.00  0.00    +0.147 HD
ENDROOT
BRANCH   4  12
ATOM     12  N   UNL     1      31.898 -23.689 -14.349  0.00  0.00    +0.388 N 
ATOM     13  C   UNL     1      31.004 -22.794 -15.081  0.00  0.00    -0.100 C 
ATOM     14  C   UNL     1      31.195 -24.902 -13.944  0.00  0.00    -0.100 C 
ATOM     15  H   UNL     1      32.218 -23.207 -13.510  0.00  0.00    -0.079 HD
ENDBRANCH   4  12
BRANCH   9  18
ATOM     16  O   UNL     1      36.833 -23.689 -10.434  0.00  0.00    -0.126 OA
ATOM     17  O   UNL     1      35.173 -25.116 -10.601  0.00  0.00    -0.126 OA
ATOM     18  N   UNL     1      35.939 -24.259 -11.105  0.00  0.00    +0.058 N 
ENDBRANCH   9  18
BRANCH   2  19
ATOM     19  C   UNL     1      34.156 -22.574 -18.598  0.00  0.00    +0.043 C 
ATOM     20  C   UNL     1      35.349 -21.598 -18.649  0.00  0.00    +0.004 C 
ATOM     21  C   UNL     1      32.848 -21.759 -18.616  0.00  0.00    +0.004 C 
BRANCH  19  22
ATOM     22  C   UNL     1      34.178 -23.494 -19.840  0.00  0.00    +0.139 C 
BRANCH  22  23
ATOM     23  O   UNL     1      33.738 -24.804 -19.507  0.00  0.00    -0.382 OA
ATOM     24  H   UNL     1      32.976 -25.040 -20.059  0.00  0.00    +0.210 HD
ENDBRANCH  22  23
ENDBRANCH  19  22
ENDBRANCH   2  19
TORSDOF 5
ENDMDL
MODEL 7
REMARK VINA RESULT:      -7.6     14.391     16.921
REMARK  Name = 57398987
REMARK  5 active torsions:
REMARK  status: ('A' for Active; 'I' for Inactive)
REMARK    1  A    between atoms: C_2  and  C_19
REMARK    2  A    between atoms: C_4  and  N_12
REMARK    3  A    between atoms: C_9  and  N_18
REMARK    4  A    between atoms: C_19  and  C_22
REMARK    5  A    between atoms: C_22  and  O_23
REMARK                            x       y       z     vdW  Elec       q    Type
REMARK                         _______ _______ _______ _____ _____    ______ ____
ROOT
ATOM      1  N   UNL     1      32.808  -9.101 -24.002  0.00  0.00    -0.334 N 
ATOM      2  C   UNL     1      31.899  -8.242 -23.261  0.00  0.00    +0.070 C 
ATOM      3  C   UNL     1      31.931  -8.622 -21.779  0.00  0.00    +0.003 C 
ATOM      4  C   UNL     1      31.520 -10.093 -21.594  0.00  0.00    -0.032 C 
ATOM      5  C   UNL     1      32.300 -10.997 -22.535  0.00  0.00    -0.027 C 
ATOM      6  C   UNL     1      32.892 -10.457 -23.699  0.00  0.00    +0.039 C 
ATOM      7  C   UNL     1      32.385 -12.382 -22.306  0.00  0.00    +0.019 C 
ATOM      8  C   UNL     1      33.618 -11.304 -24.553  0.00  0.00    +0.016 C 
ATOM      9  C   UNL     1      33.096 -13.210 -23.176  0.00  0.00    +0.143 C 
ATOM     10  C   UNL     1      33.719 -12.670 -24.294  0.00  0.00    +0.025 C 
ATOM     11  H   UNL     1      33.367  -8.722 -24.719  0.00  0.00    +0.147 HD
ENDROOT
BRANCH   4  12
ATOM     12  N   UNL     1      31.700 -10.425 -20.176  0.00  0.00    +0.388 N 
ATOM     13  C   UNL     1      32.249  -9.281 -19.453  0.00  0.00    -0.100 C 
ATOM     14  C   UNL     1      30.431 -10.845 -19.589  0.00  0.00    -0.100 C 
ATOM     15  H   UNL     1      32.360 -11.199 -20.102  0.00  0.00    -0.079 HD
ENDBRANCH   4  12
BRANCH   9  18
ATOM     16  O   UNL     1      32.464 -15.101 -22.018  0.00  0.00    -0.126 OA
ATOM     17  O   UNL     1      33.967 -15.301 -23.605  0.00  0.00    -0.126 OA
ATOM     18  N   UNL     1      33.180 -14.604 -22.920  0.00  0.00    +0.058 N 
ENDBRANCH   9  18
BRANCH   2  19
ATOM     19  C   UNL     1      32.309  -6.786 -23.459  0.00  0.00    +0.043 C 
ATOM     20  C   UNL     1      31.312  -6.101 -24.416  0.00  0.00    +0.004 C 
ATOM     21  C   UNL     1      33.717  -6.725 -24.084  0.00  0.00    +0.004 C 
BRANCH  19  22
ATOM     22  C   UNL     1      32.338  -6.037 -22.107  0.00  0.00    +0.139 C 
BRANCH  22  23
ATOM     23  O   UNL     1      31.457  -4.922 -22.128  0.00  0.00    -0.382 OA
ATOM     24  H   UNL     1      30.725  -5.099 -22.741  0.00  0.00    +0.210 HD
ENDBRANCH  22  23
ENDBRANCH  19  22
ENDBRANCH   2  19
TORSDOF 5
ENDMDL
MODEL 8
REMARK VINA RESULT:      -7.5      3.176      5.473
REMARK  Name = 57398987
REMARK  5 active torsions:
REMARK  status: ('A' for Active; 'I' for Inactive)
REMARK    1  A    between atoms: C_2  and  C_19
REMARK    2  A    between atoms: C_4  and  N_12
REMARK    3  A    between atoms: C_9  and  N_18
REMARK    4  A    between atoms: C_19  and  C_22
REMARK    5  A    between atoms: C_22  and  O_23
REMARK                            x       y       z     vdW  Elec       q    Type
REMARK                         _______ _______ _______ _____ _____    ______ ____
ROOT
ATOM      1  N   UNL     1      36.886 -23.195 -14.292  0.00  0.00    -0.334 N 
ATOM      2  C   UNL     1      35.980 -23.402 -13.175  0.00  0.00    +0.070 C 
ATOM      3  C   UNL     1      34.728 -24.133 -13.662  0.00  0.00    +0.003 C 
ATOM      4  C   UNL     1      34.020 -23.314 -14.756  0.00  0.00    -0.032 C 
ATOM      5  C   UNL     1      35.005 -22.881 -15.831  0.00  0.00    -0.027 C 
ATOM      6  C   UNL     1      36.387 -22.829 -15.539  0.00  0.00    +0.039 C 
ATOM      7  C   UNL     1      34.558 -22.460 -17.096  0.00  0.00    +0.019 C 
ATOM      8  C   UNL     1      37.284 -22.436 -16.546  0.00  0.00    +0.016 C 
ATOM      9  C   UNL     1      35.464 -22.055 -18.078  0.00  0.00    +0.143 C 
ATOM     10  C   UNL     1      36.827 -22.051 -17.806  0.00  0.00    +0.025 C 
ATOM     11  H   UNL     1      37.856 -23.314 -14.167  0.00  0.00    +0.147 HD
ENDROOT
BRANCH   4  12
ATOM     12  N   UNL     1      32.911 -24.128 -15.268  0.00  0.00    +0.388 N 
ATOM     13  C   UNL     1      32.393 -24.998 -14.215  0.00  0.00    -0.100 C 
ATOM     14  C   UNL     1      31.855 -23.269 -15.795  0.00  0.00    -0.100 C 
ATOM     15  H   UNL     1      33.259 -24.713 -16.027  0.00  0.00    -0.079 HD
ENDBRANCH   4  12
BRANCH   9  18
ATOM     16  O   UNL     1      35.824 -21.439 -20.271  0.00  0.00    -0.126 OA
ATOM     17  O   UNL     1      33.759 -21.499 -19.527  0.00  0.00    -0.126 OA
ATOM     18  N   UNL     1      34.994 -21.644 -19.353  0.00  0.00    +0.058 N 
ENDBRANCH   9  18
BRANCH   2  19
ATOM     19  C   UNL     1      36.693 -24.207 -12.092  0.00  0.00    +0.043 C 
ATOM     20  C   UNL     1      36.921 -25.647 -12.594  0.00  0.00    +0.004 C 
ATOM     21  C   UNL     1      35.819 -24.257 -10.824  0.00  0.00    +0.004 C 
BRANCH  19  22
ATOM     22  C   UNL     1      38.048 -23.557 -11.730  0.00  0.00    +0.139 C 
BRANCH  22  23
ATOM     23  O   UNL     1      37.955 -22.139 -11.769  0.00  0.00    -0.382 OA
ATOM     24  H   UNL     1      37.131 -21.881 -12.212  0.00  0.00    +0.210 HD
ENDBRANCH  22  23
ENDBRANCH  19  22
ENDBRANCH   2  19
TORSDOF 5
ENDMDL
MODEL 9
REMARK VINA RESULT:      -7.4      2.004      2.395
REMARK  Name = 57398987
REMARK  5 active torsions:
REMARK  status: ('A' for Active; 'I' for Inactive)
REMARK    1  A    between atoms: C_2  and  C_19
REMARK    2  A    between atoms: C_4  and  N_12
REMARK    3  A    between atoms: C_9  and  N_18
REMARK    4  A    between atoms: C_19  and  C_22
REMARK    5  A    between atoms: C_22  and  O_23
REMARK                            x       y       z     vdW  Elec       q    Type
REMARK                         _______ _______ _______ _____ _____    ______ ____
ROOT
ATOM      1  N   UNL     1      33.163 -24.020 -13.597  0.00  0.00    -0.334 N 
ATOM      2  C   UNL     1      32.596 -23.147 -14.611  0.00  0.00    +0.070 C 
ATOM      3  C   UNL     1      33.509 -23.128 -15.838  0.00  0.00    +0.003 C 
ATOM      4  C   UNL     1      34.914 -22.630 -15.453  0.00  0.00    -0.032 C 
ATOM      5  C   UNL     1      35.439 -23.377 -14.237  0.00  0.00    -0.027 C 
ATOM      6  C   UNL     1      34.535 -24.021 -13.362  0.00  0.00    +0.039 C 
ATOM      7  C   UNL     1      36.810 -23.379 -13.924  0.00  0.00    +0.019 C 
ATOM      8  C   UNL     1      35.038 -24.715 -12.249  0.00  0.00    +0.016 C 
ATOM      9  C   UNL     1      37.288 -24.058 -12.802  0.00  0.00    +0.143 C 
ATOM     10  C   UNL     1      36.403 -24.733 -11.970  0.00  0.00    +0.025 C 
ATOM     11  H   UNL     1      32.575 -24.614 -13.075  0.00  0.00    +0.147 HD
ENDROOT
BRANCH   4  12
ATOM     12  N   UNL     1      35.769 -22.763 -16.639  0.00  0.00    +0.388 N 
ATOM     13  C   UNL     1      34.973 -22.618 -17.856  0.00  0.00    -0.100 C 
ATOM     14  C   UNL     1      36.842 -21.774 -16.603  0.00  0.00    -0.100 C 
ATOM     15  H   UNL     1      36.187 -23.693 -16.638  0.00  0.00    -0.079 HD
ENDBRANCH   4  12
BRANCH   9  18
ATOM     16  O   UNL     1      39.439 -24.805 -13.172  0.00  0.00    -0.126 OA
ATOM     17  O   UNL     1      39.107 -23.310 -11.598  0.00  0.00    -0.126 OA
ATOM     18  N   UNL     1      38.678 -24.058 -12.510  0.00  0.00    +0.058 N 
ENDBRANCH   9  18
BRANCH   2  19
ATOM     19  C   UNL     1      31.201 -23.642 -14.978  0.00  0.00    +0.043 C 
ATOM     20  C   UNL     1      30.146 -22.699 -14.364  0.00  0.00    +0.004 C 
ATOM     21  C   UNL     1      30.988 -25.059 -14.411  0.00  0.00    +0.004 C 
BRANCH  19  22
ATOM     22  C   UNL     1      31.026 -23.696 -16.514  0.00  0.00    +0.139 C 
BRANCH  22  23
ATOM     23  O   UNL     1      30.153 -22.667 -16.959  0.00  0.00    -0.382 OA
ATOM     24  H   UNL     1      30.673 -21.887 -17.208  0.00  0.00    +0.210 HD
ENDBRANCH  22  23
ENDBRANCH  19  22
ENDBRANCH   2  19
TORSDOF 5
ENDMDL
