MODEL 1
REMARK VINA RESULT:     -10.9      0.000      0.000
REMARK  Name = 52913813
REMARK  5 active torsions:
REMARK  status: ('A' for Active; 'I' for Inactive)
REMARK    1  A    between atoms: C_3  and  C_23
REMARK    2  A    between atoms: C_5  and  N_13
REMARK    3  A    between atoms: C_9  and  C_20
REMARK    4  A    between atoms: C_23  and  N_25
REMARK    5  A    between atoms: N_25  and  C_29
REMARK                            x       y       z     vdW  Elec       q    Type
REMARK                         _______ _______ _______ _____ _____    ______ ____
ROOT
ATOM      1  O   UNL     1      33.895 -15.492 -23.429  0.00  0.00    -0.440 OA
ATOM      2  O   UNL     1      34.837 -18.896 -25.450  0.00  0.00    -0.286 OA
ATOM      3  C   UNL     1      34.321 -16.519 -21.346  0.00  0.00    +0.030 C 
ATOM      4  C   UNL     1      34.277 -16.614 -22.737  0.00  0.00    +0.147 C 
ATOM      5  C   UNL     1      33.835 -15.542 -24.817  0.00  0.00    +0.202 C 
ATOM      6  C   UNL     1      34.612 -17.812 -23.363  0.00  0.00    +0.074 C 
ATOM      7  C   UNL     1      34.703 -17.626 -20.587  0.00  0.00    +0.005 C 
ATOM      8  C   UNL     1      34.138 -16.646 -25.521  0.00  0.00    +0.096 C 
ATOM      9  C   UNL     1      35.038 -18.825 -21.217  0.00  0.00    +0.054 C 
ATOM     10  C   UNL     1      34.556 -17.881 -24.830  0.00  0.00    +0.203 C 
ATOM     11  C   UNL     1      34.994 -18.923 -22.608  0.00  0.00    +0.011 C 
ENDROOT
BRANCH   5  13
ATOM     12  O   UNL     1      33.310 -11.977 -26.852  0.00  0.00    -0.350 OA
ATOM     13  N   UNL     1      33.445 -14.379 -25.411  0.00  0.00    -0.274 N 
ATOM     14  C   UNL     1      32.813 -14.348 -26.732  0.00  0.00    +0.126 C 
ATOM     15  C   UNL     1      33.448 -13.098 -24.705  0.00  0.00    +0.126 C 
ATOM     16  C   UNL     1      33.421 -13.218 -27.553  0.00  0.00    +0.164 C 
ATOM     17  C   UNL     1      34.028 -12.023 -25.617  0.00  0.00    +0.164 C 
ENDBRANCH   5  13
BRANCH   9  20
ATOM     18  O   UNL     1      36.640 -20.100 -20.173  0.00  0.00    -0.270 OA
ATOM     19  N   UNL     1      34.442 -20.867 -19.969  0.00  0.00    -0.273 N 
ATOM     20  C   UNL     1      35.434 -19.977 -20.421  0.00  0.00    +0.249 C 
ATOM     21  C   UNL     1      33.027 -20.680 -20.287  0.00  0.00    +0.115 C 
ATOM     22  C   UNL     1      34.757 -22.033 -19.156  0.00  0.00    +0.115 C 
ENDBRANCH   9  20
BRANCH   3  23
ATOM     23  C   UNL     1      33.967 -15.248 -20.647  0.00  0.00    +0.095 C 
ATOM     24  C   UNL     1      34.992 -14.122 -20.851  0.00  0.00    +0.026 C 
BRANCH  23  25
ATOM     25  N   UNL     1      32.666 -14.758 -21.078  0.00  0.00    -0.330 N 
ATOM     26  H   UNL     1      32.035 -15.399 -21.480  0.00  0.00    +0.147 HD
BRANCH  25  29
ATOM     27  F   UNL     1      31.479 -10.583 -23.054  0.00  0.00    -0.204 F 
ATOM     28  F   UNL     1      31.478 -11.037 -18.340  0.00  0.00    -0.204 F 
ATOM     29  C   UNL     1      32.272 -13.443 -20.951  0.00  0.00    +0.049 C 
ATOM     30  C   UNL     1      32.072 -12.893 -19.685  0.00  0.00    +0.044 C 
ATOM     31  C   UNL     1      32.072 -12.662 -22.089  0.00  0.00    +0.044 C 
ATOM     32  C   UNL     1      31.672 -11.333 -21.961  0.00  0.00    +0.144 C 
ATOM     33  C   UNL     1      31.671 -11.564 -19.556  0.00  0.00    +0.144 C 
ATOM     34  C   UNL     1      31.471 -10.783 -20.695  0.00  0.00    +0.059 C 
ENDBRANCH  25  29
ENDBRANCH  23  25
ENDBRANCH   3  23
TORSDOF 5
ENDMDL
MODEL 2
REMARK VINA RESULT:     -10.8      6.801     11.659
REMARK  Name = 52913813
REMARK  5 active torsions:
REMARK  status: ('A' for Active; 'I' for Inactive)
REMARK    1  A    between atoms: C_3  and  C_23
REMARK    2  A    between atoms: C_5  and  N_13
REMARK    3  A    between atoms: C_9  and  C_20
REMARK    4  A    between atoms: C_23  and  N_25
REMARK    5  A    between atoms: N_25  and  C_29
REMARK                            x       y       z     vdW  Elec       q    Type
REMARK                         _______ _______ _______ _____ _____    ______ ____
ROOT
ATOM      1  O   UNL     1      33.963 -23.818 -15.532  0.00  0.00    -0.440 OA
ATOM      2  O   UNL     1      31.170 -24.803 -12.741  0.00  0.00    -0.286 OA
ATOM      3  C   UNL     1      32.305 -23.079 -17.042  0.00  0.00    +0.030 C 
ATOM      4  C   UNL     1      32.632 -23.620 -15.798  0.00  0.00    +0.147 C 
ATOM      5  C   UNL     1      34.333 -24.356 -14.305  0.00  0.00    +0.202 C 
ATOM      6  C   UNL     1      31.623 -23.935 -14.891  0.00  0.00    +0.074 C 
ATOM      7  C   UNL     1      30.968 -22.854 -17.372  0.00  0.00    +0.005 C 
ATOM      8  C   UNL     1      33.442 -24.694 -13.357  0.00  0.00    +0.096 C 
ATOM      9  C   UNL     1      29.959 -23.170 -16.461  0.00  0.00    +0.054 C 
ATOM     10  C   UNL     1      31.998 -24.503 -13.589  0.00  0.00    +0.203 C 
ATOM     11  C   UNL     1      30.283 -23.712 -15.216  0.00  0.00    +0.011 C 
ENDROOT
BRANCH   5  13
ATOM     12  O   UNL     1      38.235 -25.270 -13.268  0.00  0.00    -0.350 OA
ATOM     13  N   UNL     1      35.676 -24.515 -14.136  0.00  0.00    -0.274 N 
ATOM     14  C   UNL     1      36.452 -25.496 -14.898  0.00  0.00    +0.126 C 
ATOM     15  C   UNL     1      36.479 -23.597 -13.328  0.00  0.00    +0.126 C 
ATOM     16  C   UNL     1      37.414 -26.215 -13.960  0.00  0.00    +0.164 C 
ATOM     17  C   UNL     1      37.440 -24.400 -12.459  0.00  0.00    +0.164 C 
ENDBRANCH   5  13
BRANCH   9  20
ATOM     18  O   UNL     1      28.188 -23.348 -17.913  0.00  0.00    -0.270 OA
ATOM     19  N   UNL     1      27.735 -22.276 -15.887  0.00  0.00    -0.273 N 
ATOM     20  C   UNL     1      28.567 -22.935 -16.810  0.00  0.00    +0.249 C 
ATOM     21  C   UNL     1      28.227 -21.805 -14.594  0.00  0.00    +0.115 C 
ATOM     22  C   UNL     1      26.327 -22.018 -16.157  0.00  0.00    +0.115 C 
ENDBRANCH   9  20
BRANCH   3  23
ATOM     23  C   UNL     1      33.365 -22.732 -18.035  0.00  0.00    +0.095 C 
ATOM     24  C   UNL     1      33.892 -23.938 -18.827  0.00  0.00    +0.026 C 
BRANCH  23  25
ATOM     25  N   UNL     1      32.886 -21.741 -18.987  0.00  0.00    -0.330 N 
ATOM     26  H   UNL     1      31.914 -21.637 -19.105  0.00  0.00    +0.147 HD
BRANCH  25  29
ATOM     27  F   UNL     1      33.531 -18.177 -22.091  0.00  0.00    -0.204 F 
ATOM     28  F   UNL     1      37.282 -20.482 -20.347  0.00  0.00    -0.204 F 
ATOM     29  C   UNL     1      33.726 -20.939 -19.732  0.00  0.00    +0.049 C 
ATOM     30  C   UNL     1      35.107 -21.121 -19.663  0.00  0.00    +0.044 C 
ATOM     31  C   UNL     1      33.194 -19.945 -20.552  0.00  0.00    +0.044 C 
ATOM     32  C   UNL     1      34.042 -19.132 -21.304  0.00  0.00    +0.144 C 
ATOM     33  C   UNL     1      35.956 -20.308 -20.413  0.00  0.00    +0.144 C 
ATOM     34  C   UNL     1      35.423 -19.314 -21.235  0.00  0.00    +0.059 C 
ENDBRANCH  25  29
ENDBRANCH  23  25
ENDBRANCH   3  23
TORSDOF 5
ENDMDL
MODEL 3
REMARK VINA RESULT:     -10.4      6.801     11.367
REMARK  Name = 52913813
REMARK  5 active torsions:
REMARK  status: ('A' for Active; 'I' for Inactive)
REMARK    1  A    between atoms: C_3  and  C_23
REMARK    2  A    between atoms: C_5  and  N_13
REMARK    3  A    between atoms: C_9  and  C_20
REMARK    4  A    between atoms: C_23  and  N_25
REMARK    5  A    between atoms: N_25  and  C_29
REMARK                            x       y       z     vdW  Elec       q    Type
REMARK                         _______ _______ _______ _____ _____    ______ ____
ROOT
ATOM      1  O   UNL     1      35.751 -23.665 -15.723  0.00  0.00    -0.440 OA
ATOM      2  O   UNL     1      33.317 -23.983 -12.478  0.00  0.00    -0.286 OA
ATOM      3  C   UNL     1      33.920 -23.239 -17.151  0.00  0.00    +0.030 C 
ATOM      4  C   UNL     1      34.396 -23.507 -15.867  0.00  0.00    +0.147 C 
ATOM      5  C   UNL     1      36.269 -23.935 -14.461  0.00  0.00    +0.202 C 
ATOM      6  C   UNL     1      33.505 -23.603 -14.802  0.00  0.00    +0.074 C 
ATOM      7  C   UNL     1      32.551 -23.067 -17.362  0.00  0.00    +0.005 C 
ATOM      8  C   UNL     1      35.500 -24.047 -13.365  0.00  0.00    +0.096 C 
ATOM      9  C   UNL     1      31.661 -23.164 -16.293  0.00  0.00    +0.054 C 
ATOM     10  C   UNL     1      34.036 -23.885 -13.461  0.00  0.00    +0.203 C 
ATOM     11  C   UNL     1      32.134 -23.432 -15.008  0.00  0.00    +0.011 C 
ENDROOT
BRANCH   5  13
ATOM     12  O   UNL     1      40.262 -25.023 -14.549  0.00  0.00    -0.350 OA
ATOM     13  N   UNL     1      37.624 -24.077 -14.421  0.00  0.00    -0.274 N 
ATOM     14  C   UNL     1      38.485 -23.706 -15.546  0.00  0.00    +0.126 C 
ATOM     15  C   UNL     1      38.340 -24.426 -13.194  0.00  0.00    +0.126 C 
ATOM     16  C   UNL     1      39.533 -24.792 -15.757  0.00  0.00    +0.164 C 
ATOM     17  C   UNL     1      39.394 -25.482 -13.509  0.00  0.00    +0.164 C 
ENDBRANCH   5  13
BRANCH   9  20
ATOM     18  O   UNL     1      29.883 -21.943 -17.085  0.00  0.00    -0.270 OA
ATOM     19  N   UNL     1      29.347 -23.994 -16.100  0.00  0.00    -0.273 N 
ATOM     20  C   UNL     1      30.235 -22.986 -16.518  0.00  0.00    +0.249 C 
ATOM     21  C   UNL     1      29.810 -25.210 -15.433  0.00  0.00    +0.115 C 
ATOM     22  C   UNL     1      27.909 -23.896 -16.305  0.00  0.00    +0.115 C 
ENDBRANCH   9  20
BRANCH   3  23
ATOM     23  C   UNL     1      34.852 -23.131 -18.313  0.00  0.00    +0.095 C 
ATOM     24  C   UNL     1      34.235 -23.575 -19.647  0.00  0.00    +0.026 C 
BRANCH  23  25
ATOM     25  N   UNL     1      35.336 -21.767 -18.471  0.00  0.00    -0.330 N 
ATOM     26  H   UNL     1      35.953 -21.408 -17.792  0.00  0.00    +0.147 HD
BRANCH  25  29
ATOM     27  F   UNL     1      31.972 -19.842 -21.250  0.00  0.00    -0.204 F 
ATOM     28  F   UNL     1      36.527 -18.793 -22.004  0.00  0.00    -0.204 F 
ATOM     29  C   UNL     1      34.974 -20.952 -19.523  0.00  0.00    +0.049 C 
ATOM     30  C   UNL     1      35.953 -20.272 -20.247  0.00  0.00    +0.044 C 
ATOM     31  C   UNL     1      33.629 -20.807 -19.863  0.00  0.00    +0.044 C 
ATOM     32  C   UNL     1      33.263 -19.982 -20.925  0.00  0.00    +0.144 C 
ATOM     33  C   UNL     1      35.587 -19.446 -21.309  0.00  0.00    +0.144 C 
ATOM     34  C   UNL     1      34.242 -19.302 -21.649  0.00  0.00    +0.059 C 
ENDBRANCH  25  29
ENDBRANCH  23  25
ENDBRANCH   3  23
TORSDOF 5
ENDMDL
MODEL 4
REMARK VINA RESULT:     -10.2      6.883     10.634
REMARK  Name = 52913813
REMARK  5 active torsions:
REMARK  status: ('A' for Active; 'I' for Inactive)
REMARK    1  A    between atoms: C_3  and  C_23
REMARK    2  A    between atoms: C_5  and  N_13
REMARK    3  A    between atoms: C_9  and  C_20
REMARK    4  A    between atoms: C_23  and  N_25
REMARK    5  A    between atoms: N_25  and  C_29
REMARK                            x       y       z     vdW  Elec       q    Type
REMARK                         _______ _______ _______ _____ _____    ______ ____
ROOT
ATOM      1  O   UNL     1      31.844 -23.308 -16.263  0.00  0.00    -0.440 OA
ATOM      2  O   UNL     1      33.189 -24.010 -12.487  0.00  0.00    -0.286 OA
ATOM      3  C   UNL     1      34.046 -23.114 -17.093  0.00  0.00    +0.030 C 
ATOM      4  C   UNL     1      33.192 -23.335 -16.012  0.00  0.00    +0.147 C 
ATOM      5  C   UNL     1      30.957 -23.522 -15.214  0.00  0.00    +0.202 C 
ATOM      6  C   UNL     1      33.722 -23.568 -14.745  0.00  0.00    +0.074 C 
ATOM      7  C   UNL     1      35.428 -23.129 -16.902  0.00  0.00    +0.005 C 
ATOM      8  C   UNL     1      31.360 -23.757 -13.953  0.00  0.00    +0.096 C 
ATOM      9  C   UNL     1      35.956 -23.363 -15.632  0.00  0.00    +0.054 C 
ATOM     10  C   UNL     1      32.799 -23.798 -13.626  0.00  0.00    +0.203 C 
ATOM     11  C   UNL     1      35.105 -23.584 -14.548  0.00  0.00    +0.011 C 
ENDROOT
BRANCH   5  13
ATOM     12  O   UNL     1      27.193 -23.139 -16.890  0.00  0.00    -0.350 OA
ATOM     13  N   UNL     1      29.641 -23.475 -15.563  0.00  0.00    -0.274 N 
ATOM     14  C   UNL     1      28.931 -24.636 -16.102  0.00  0.00    +0.126 C 
ATOM     15  C   UNL     1      28.787 -22.328 -15.252  0.00  0.00    +0.126 C 
ATOM     16  C   UNL     1      28.071 -24.197 -17.281  0.00  0.00    +0.164 C 
ATOM     17  C   UNL     1      27.934 -21.991 -16.469  0.00  0.00    +0.164 C 
ENDBRANCH   5  13
BRANCH   9  20
ATOM     18  O   UNL     1      37.988 -22.294 -15.546  0.00  0.00    -0.270 OA
ATOM     19  N   UNL     1      38.032 -24.593 -15.125  0.00  0.00    -0.273 N 
ATOM     20  C   UNL     1      37.397 -23.376 -15.437  0.00  0.00    +0.249 C 
ATOM     21  C   UNL     1      37.292 -25.848 -15.006  0.00  0.00    +0.115 C 
ATOM     22  C   UNL     1      39.468 -24.684 -14.901  0.00  0.00    +0.115 C 
ENDBRANCH   9  20
BRANCH   3  23
ATOM     23  C   UNL     1      33.506 -22.861 -18.463  0.00  0.00    +0.095 C 
ATOM     24  C   UNL     1      32.535 -21.674 -18.537  0.00  0.00    +0.026 C 
BRANCH  23  25
ATOM     25  N   UNL     1      34.582 -22.624 -19.414  0.00  0.00    -0.330 N 
ATOM     26  H   UNL     1      35.138 -23.388 -19.691  0.00  0.00    +0.147 HD
BRANCH  25  29
ATOM     27  F   UNL     1      37.739 -19.309 -20.754  0.00  0.00    -0.204 F 
ATOM     28  F   UNL     1      33.105 -18.492 -21.284  0.00  0.00    -0.204 F 
ATOM     29  C   UNL     1      34.862 -21.383 -19.947  0.00  0.00    +0.049 C 
ATOM     30  C   UNL     1      33.821 -20.547 -20.353  0.00  0.00    +0.044 C 
ATOM     31  C   UNL     1      36.185 -20.964 -20.083  0.00  0.00    +0.044 C 
ATOM     32  C   UNL     1      36.469 -19.711 -20.623  0.00  0.00    +0.144 C 
ATOM     33  C   UNL     1      34.104 -19.294 -20.894  0.00  0.00    +0.144 C 
ATOM     34  C   UNL     1      35.428 -18.876 -21.029  0.00  0.00    +0.059 C 
ENDBRANCH  25  29
ENDBRANCH  23  25
ENDBRANCH   3  23
TORSDOF 5
ENDMDL
MODEL 5
REMARK VINA RESULT:      -9.5      1.173      6.203
REMARK  Name = 52913813
REMARK  5 active torsions:
REMARK  status: ('A' for Active; 'I' for Inactive)
REMARK    1  A    between atoms: C_3  and  C_23
REMARK    2  A    between atoms: C_5  and  N_13
REMARK    3  A    between atoms: C_9  and  C_20
REMARK    4  A    between atoms: C_23  and  N_25
REMARK    5  A    between atoms: N_25  and  C_29
REMARK                            x       y       z     vdW  Elec       q    Type
REMARK                         _______ _______ _______ _____ _____    ______ ____
ROOT
ATOM      1  O   UNL     1      34.428 -17.872 -21.764  0.00  0.00    -0.440 OA
ATOM      2  O   UNL     1      34.893 -19.512 -25.458  0.00  0.00    -0.286 OA
ATOM      3  C   UNL     1      33.798 -15.790 -22.682  0.00  0.00    +0.030 C 
ATOM      4  C   UNL     1      34.193 -17.113 -22.882  0.00  0.00    +0.147 C 
ATOM      5  C   UNL     1      34.825 -19.195 -21.916  0.00  0.00    +0.202 C 
ATOM      6  C   UNL     1      34.333 -17.609 -24.176  0.00  0.00    +0.074 C 
ATOM      7  C   UNL     1      33.543 -14.968 -23.781  0.00  0.00    +0.005 C 
ATOM      8  C   UNL     1      34.990 -19.774 -23.118  0.00  0.00    +0.096 C 
ATOM      9  C   UNL     1      33.684 -15.467 -25.076  0.00  0.00    +0.054 C 
ATOM     10  C   UNL     1      34.750 -19.006 -24.355  0.00  0.00    +0.203 C 
ATOM     11  C   UNL     1      34.080 -16.790 -25.279  0.00  0.00    +0.011 C 
ENDROOT
BRANCH   5  13
ATOM     12  O   UNL     1      35.563 -21.788 -18.775  0.00  0.00    -0.350 OA
ATOM     13  N   UNL     1      35.036 -19.864 -20.747  0.00  0.00    -0.274 N 
ATOM     14  C   UNL     1      36.345 -19.907 -20.093  0.00  0.00    +0.126 C 
ATOM     15  C   UNL     1      33.940 -20.427 -19.958  0.00  0.00    +0.126 C 
ATOM     16  C   UNL     1      36.623 -21.328 -19.617  0.00  0.00    +0.164 C 
ATOM     17  C   UNL     1      34.324 -21.825 -19.488  0.00  0.00    +0.164 C 
ENDBRANCH   5  13
BRANCH   9  20
ATOM     18  O   UNL     1      33.073 -15.160 -27.270  0.00  0.00    -0.270 OA
ATOM     19  N   UNL     1      33.552 -13.214 -26.067  0.00  0.00    -0.273 N 
ATOM     20  C   UNL     1      33.419 -14.606 -26.218  0.00  0.00    +0.249 C 
ATOM     21  C   UNL     1      33.963 -12.604 -24.804  0.00  0.00    +0.115 C 
ATOM     22  C   UNL     1      33.289 -12.286 -27.159  0.00  0.00    +0.115 C 
ENDBRANCH   9  20
BRANCH   3  23
ATOM     23  C   UNL     1      33.639 -15.231 -21.306  0.00  0.00    +0.095 C 
ATOM     24  C   UNL     1      34.680 -14.159 -20.949  0.00  0.00    +0.026 C 
BRANCH  23  25
ATOM     25  N   UNL     1      32.316 -14.654 -21.125  0.00  0.00    -0.330 N 
ATOM     26  H   UNL     1      31.541 -15.261 -21.092  0.00  0.00    +0.147 HD
BRANCH  25  29
ATOM     27  F   UNL     1      31.686 -10.354 -23.091  0.00  0.00    -0.204 F 
ATOM     28  F   UNL     1      31.591 -10.821 -18.380  0.00  0.00    -0.204 F 
ATOM     29  C   UNL     1      32.092 -13.299 -20.995  0.00  0.00    +0.049 C 
ATOM     30  C   UNL     1      31.953 -12.733 -19.728  0.00  0.00    +0.044 C 
ATOM     31  C   UNL     1      32.002 -12.495 -22.131  0.00  0.00    +0.044 C 
ATOM     32  C   UNL     1      31.773 -11.126 -22.001  0.00  0.00    +0.144 C 
ATOM     33  C   UNL     1      31.724 -11.364 -19.597  0.00  0.00    +0.144 C 
ATOM     34  C   UNL     1      31.635 -10.560 -20.733  0.00  0.00    +0.059 C 
ENDBRANCH  25  29
ENDBRANCH  23  25
ENDBRANCH   3  23
TORSDOF 5
ENDMDL
MODEL 6
REMARK VINA RESULT:      -9.2      6.054      9.805
REMARK  Name = 52913813
REMARK  5 active torsions:
REMARK  status: ('A' for Active; 'I' for Inactive)
REMARK    1  A    between atoms: C_3  and  C_23
REMARK    2  A    between atoms: C_5  and  N_13
REMARK    3  A    between atoms: C_9  and  C_20
REMARK    4  A    between atoms: C_23  and  N_25
REMARK    5  A    between atoms: N_25  and  C_29
REMARK                            x       y       z     vdW  Elec       q    Type
REMARK                         _______ _______ _______ _____ _____    ______ ____
ROOT
ATOM      1  O   UNL     1      32.749  -5.883 -24.921  0.00  0.00    -0.440 OA
ATOM      2  O   UNL     1      30.255  -4.202 -22.180  0.00  0.00    -0.286 OA
ATOM      3  C   UNL     1      33.154  -7.744 -23.525  0.00  0.00    +0.030 C 
ATOM      4  C   UNL     1      32.511  -6.523 -23.731  0.00  0.00    +0.147 C 
ATOM      5  C   UNL     1      32.130  -4.663 -25.167  0.00  0.00    +0.202 C 
ATOM      6  C   UNL     1      31.670  -6.006 -22.748  0.00  0.00    +0.074 C 
ATOM      7  C   UNL     1      32.951  -8.443 -22.334  0.00  0.00    +0.005 C 
ATOM      8  C   UNL     1      31.300  -4.075 -24.289  0.00  0.00    +0.096 C 
ATOM      9  C   UNL     1      32.108  -7.923 -21.352  0.00  0.00    +0.054 C 
ATOM     10  C   UNL     1      31.007  -4.719 -22.994  0.00  0.00    +0.203 C 
ATOM     11  C   UNL     1      31.464  -6.702 -21.555  0.00  0.00    +0.011 C 
ENDROOT
BRANCH   5  13
ATOM     12  O   UNL     1      32.473  -3.307 -29.063  0.00  0.00    -0.350 OA
ATOM     13  N   UNL     1      32.431  -4.107 -26.375  0.00  0.00    -0.274 N 
ATOM     14  C   UNL     1      31.992  -2.761 -26.749  0.00  0.00    +0.126 C 
ATOM     15  C   UNL     1      33.371  -4.724 -27.311  0.00  0.00    +0.126 C 
ATOM     16  C   UNL     1      31.476  -2.781 -28.183  0.00  0.00    +0.164 C 
ATOM     17  C   UNL     1      32.794  -4.658 -28.720  0.00  0.00    +0.164 C 
ENDBRANCH   5  13
BRANCH   9  20
ATOM     18  O   UNL     1      32.138  -8.051 -19.058  0.00  0.00    -0.270 OA
ATOM     19  N   UNL     1      31.438  -9.982 -20.173  0.00  0.00    -0.273 N 
ATOM     20  C   UNL     1      31.901  -8.655 -20.112  0.00  0.00    +0.249 C 
ATOM     21  C   UNL     1      31.171 -10.655 -21.443  0.00  0.00    +0.115 C 
ATOM     22  C   UNL     1      31.192 -10.774 -18.976  0.00  0.00    +0.115 C 
ENDBRANCH   9  20
BRANCH   3  23
ATOM     23  C   UNL     1      34.061  -8.323 -24.560  0.00  0.00    +0.095 C 
ATOM     24  C   UNL     1      35.204  -7.385 -24.978  0.00  0.00    +0.026 C 
BRANCH  23  25
ATOM     25  N   UNL     1      34.648  -9.573 -24.102  0.00  0.00    -0.330 N 
ATOM     26  H   UNL     1      35.395  -9.532 -23.461  0.00  0.00    +0.147 HD
BRANCH  25  29
ATOM     27  F   UNL     1      33.978 -12.775 -27.573  0.00  0.00    -0.204 F 
ATOM     28  F   UNL     1      32.700 -13.819 -23.134  0.00  0.00    -0.204 F 
ATOM     29  C   UNL     1      34.210 -10.813 -24.519  0.00  0.00    +0.049 C 
ATOM     30  C   UNL     1      33.664 -11.706 -23.598  0.00  0.00    +0.044 C 
ATOM     31  C   UNL     1      34.316 -11.174 -25.862  0.00  0.00    +0.044 C 
ATOM     32  C   UNL     1      33.876 -12.428 -26.283  0.00  0.00    +0.144 C 
ATOM     33  C   UNL     1      33.224 -12.961 -24.019  0.00  0.00    +0.144 C 
ATOM     34  C   UNL     1      33.329 -13.321 -25.362  0.00  0.00    +0.059 C 
ENDBRANCH  25  29
ENDBRANCH  23  25
ENDBRANCH   3  23
TORSDOF 5
ENDMDL
MODEL 7
REMARK VINA RESULT:      -9.0      3.523      8.770
REMARK  Name = 52913813
REMARK  5 active torsions:
REMARK  status: ('A' for Active; 'I' for Inactive)
REMARK    1  A    between atoms: C_3  and  C_23
REMARK    2  A    between atoms: C_5  and  N_13
REMARK    3  A    between atoms: C_9  and  C_20
REMARK    4  A    between atoms: C_23  and  N_25
REMARK    5  A    between atoms: N_25  and  C_29
REMARK                            x       y       z     vdW  Elec       q    Type
REMARK                         _______ _______ _______ _____ _____    ______ ____
ROOT
ATOM      1  O   UNL     1      32.872 -12.691 -22.008  0.00  0.00    -0.440 OA
ATOM      2  O   UNL     1      30.801 -10.552 -19.234  0.00  0.00    -0.286 OA
ATOM      3  C   UNL     1      32.817 -10.899 -23.544  0.00  0.00    +0.030 C 
ATOM      4  C   UNL     1      32.477 -11.409 -22.290  0.00  0.00    +0.147 C 
ATOM      5  C   UNL     1      32.553 -13.240 -20.771  0.00  0.00    +0.202 C 
ATOM      6  C   UNL     1      31.765 -10.620 -21.389  0.00  0.00    +0.074 C 
ATOM      7  C   UNL     1      32.444  -9.600 -23.890  0.00  0.00    +0.005 C 
ATOM      8  C   UNL     1      31.871 -12.567 -19.828  0.00  0.00    +0.096 C 
ATOM      9  C   UNL     1      31.731  -8.812 -22.986  0.00  0.00    +0.054 C 
ATOM     10  C   UNL     1      31.422 -11.183 -20.077  0.00  0.00    +0.203 C 
ATOM     11  C   UNL     1      31.389  -9.319 -21.732  0.00  0.00    +0.011 C 
ENDROOT
BRANCH   5  13
ATOM     12  O   UNL     1      33.965 -17.128 -20.904  0.00  0.00    -0.350 OA
ATOM     13  N   UNL     1      32.987 -14.518 -20.586  0.00  0.00    -0.274 N 
ATOM     14  C   UNL     1      34.374 -14.832 -20.235  0.00  0.00    +0.126 C 
ATOM     15  C   UNL     1      32.071 -15.658 -20.533  0.00  0.00    +0.126 C 
ATOM     16  C   UNL     1      34.848 -16.016 -21.070  0.00  0.00    +0.164 C 
ATOM     17  C   UNL     1      32.648 -16.805 -21.355  0.00  0.00    +0.164 C 
ENDBRANCH   5  13
BRANCH   9  20
ATOM     18  O   UNL     1      30.751  -7.317 -24.430  0.00  0.00    -0.270 OA
ATOM     19  N   UNL     1      31.641  -6.402 -22.472  0.00  0.00    -0.273 N 
ATOM     20  C   UNL     1      31.343  -7.459 -23.352  0.00  0.00    +0.249 C 
ATOM     21  C   UNL     1      32.342  -6.618 -21.207  0.00  0.00    +0.115 C 
ATOM     22  C   UNL     1      31.271  -5.024 -22.761  0.00  0.00    +0.115 C 
ENDBRANCH   9  20
BRANCH   3  23
ATOM     23  C   UNL     1      33.579 -11.722 -24.530  0.00  0.00    +0.095 C 
ATOM     24  C   UNL     1      34.739 -10.970 -25.201  0.00  0.00    +0.026 C 
BRANCH  23  25
ATOM     25  N   UNL     1      34.120 -12.920 -23.905  0.00  0.00    -0.330 N 
ATOM     26  H   UNL     1      34.591 -12.828 -23.045  0.00  0.00    +0.147 HD
BRANCH  25  29
ATOM     27  F   UNL     1      32.117 -15.895 -27.050  0.00  0.00    -0.204 F 
ATOM     28  F   UNL     1      35.432 -17.503 -24.075  0.00  0.00    -0.204 F 
ATOM     29  C   UNL     1      34.003 -14.179 -24.456  0.00  0.00    +0.049 C 
ATOM     30  C   UNL     1      34.791 -15.226 -23.977  0.00  0.00    +0.044 C 
ATOM     31  C   UNL     1      33.100 -14.406 -25.494  0.00  0.00    +0.044 C 
ATOM     32  C   UNL     1      32.984 -15.678 -26.053  0.00  0.00    +0.144 C 
ATOM     33  C   UNL     1      34.675 -16.498 -24.536  0.00  0.00    +0.144 C 
ATOM     34  C   UNL     1      33.771 -16.724 -25.574  0.00  0.00    +0.059 C 
ENDBRANCH  25  29
ENDBRANCH  23  25
ENDBRANCH   3  23
TORSDOF 5
ENDMDL
MODEL 8
REMARK VINA RESULT:      -8.9      6.077     11.787
REMARK  Name = 52913813
REMARK  5 active torsions:
REMARK  status: ('A' for Active; 'I' for Inactive)
REMARK    1  A    between atoms: C_3  and  C_23
REMARK    2  A    between atoms: C_5  and  N_13
REMARK    3  A    between atoms: C_9  and  C_20
REMARK    4  A    between atoms: C_23  and  N_25
REMARK    5  A    between atoms: N_25  and  C_29
REMARK                            x       y       z     vdW  Elec       q    Type
REMARK                         _______ _______ _______ _____ _____    ______ ____
ROOT
ATOM      1  O   UNL     1      35.248 -23.463 -15.994  0.00  0.00    -0.440 OA
ATOM      2  O   UNL     1      38.604 -21.203 -16.433  0.00  0.00    -0.286 OA
ATOM      3  C   UNL     1      34.346 -22.655 -18.021  0.00  0.00    +0.030 C 
ATOM      4  C   UNL     1      35.388 -22.654 -17.094  0.00  0.00    +0.147 C 
ATOM      5  C   UNL     1      36.263 -23.492 -15.044  0.00  0.00    +0.202 C 
ATOM      6  C   UNL     1      36.508 -21.855 -17.308  0.00  0.00    +0.074 C 
ATOM      7  C   UNL     1      34.430 -21.854 -19.161  0.00  0.00    +0.005 C 
ATOM      8  C   UNL     1      37.386 -22.762 -15.152  0.00  0.00    +0.096 C 
ATOM      9  C   UNL     1      35.553 -21.053 -19.372  0.00  0.00    +0.054 C 
ATOM     10  C   UNL     1      37.590 -21.876 -16.314  0.00  0.00    +0.203 C 
ATOM     11  C   UNL     1      36.597 -21.050 -18.447  0.00  0.00    +0.011 C 
ENDROOT
BRANCH   5  13
ATOM     12  O   UNL     1      36.069 -25.660 -11.524  0.00  0.00    -0.350 OA
ATOM     13  N   UNL     1      36.030 -24.323 -13.989  0.00  0.00    -0.274 N 
ATOM     14  C   UNL     1      34.998 -24.049 -12.987  0.00  0.00    +0.126 C 
ATOM     15  C   UNL     1      36.653 -25.642 -13.878  0.00  0.00    +0.126 C 
ATOM     16  C   UNL     1      35.560 -24.326 -11.598  0.00  0.00    +0.164 C 
ATOM     17  C   UNL     1      37.142 -25.849 -12.449  0.00  0.00    +0.164 C 
ENDBRANCH   5  13
BRANCH   9  20
ATOM     18  O   UNL     1      36.768 -19.933 -20.969  0.00  0.00    -0.270 OA
ATOM     19  N   UNL     1      34.445 -19.800 -21.183  0.00  0.00    -0.273 N 
ATOM     20  C   UNL     1      35.635 -20.219 -20.561  0.00  0.00    +0.249 C 
ATOM     21  C   UNL     1      33.127 -20.163 -20.665  0.00  0.00    +0.115 C 
ATOM     22  C   UNL     1      34.445 -18.977 -22.384  0.00  0.00    +0.115 C 
ENDBRANCH   9  20
BRANCH   3  23
ATOM     23  C   UNL     1      33.133 -23.502 -17.818  0.00  0.00    +0.095 C 
ATOM     24  C   UNL     1      33.386 -25.004 -18.013  0.00  0.00    +0.026 C 
BRANCH  23  25
ATOM     25  N   UNL     1      32.575 -23.307 -16.488  0.00  0.00    -0.330 N 
ATOM     26  H   UNL     1      33.183 -23.038 -15.760  0.00  0.00    +0.147 HD
BRANCH  25  29
ATOM     27  F   UNL     1      28.035 -21.902 -16.883  0.00  0.00    -0.204 F 
ATOM     28  F   UNL     1      29.089 -25.754 -14.340  0.00  0.00    -0.204 F 
ATOM     29  C   UNL     1      31.239 -23.480 -16.194  0.00  0.00    +0.049 C 
ATOM     30  C   UNL     1      30.831 -24.550 -15.398  0.00  0.00    +0.044 C 
ATOM     31  C   UNL     1      30.293 -22.585 -16.695  0.00  0.00    +0.044 C 
ATOM     32  C   UNL     1      28.942 -22.760 -16.401  0.00  0.00    +0.144 C 
ATOM     33  C   UNL     1      29.480 -24.726 -15.104  0.00  0.00    +0.144 C 
ATOM     34  C   UNL     1      28.535 -23.831 -15.605  0.00  0.00    +0.059 C 
ENDBRANCH  25  29
ENDBRANCH  23  25
ENDBRANCH   3  23
TORSDOF 5
ENDMDL
MODEL 9
REMARK VINA RESULT:      -8.7      3.157      5.780
REMARK  Name = 52913813
REMARK  5 active torsions:
REMARK  status: ('A' for Active; 'I' for Inactive)
REMARK    1  A    between atoms: C_3  and  C_23
REMARK    2  A    between atoms: C_5  and  N_13
REMARK    3  A    between atoms: C_9  and  C_20
REMARK    4  A    between atoms: C_23  and  N_25
REMARK    5  A    between atoms: N_25  and  C_29
REMARK                            x       y       z     vdW  Elec       q    Type
REMARK                         _______ _______ _______ _____ _____    ______ ____
ROOT
ATOM      1  O   UNL     1      32.724 -12.148 -22.107  0.00  0.00    -0.440 OA
ATOM      2  O   UNL     1      32.205 -15.711 -20.211  0.00  0.00    -0.286 OA
ATOM      3  C   UNL     1      33.692 -13.201 -23.985  0.00  0.00    +0.030 C 
ATOM      4  C   UNL     1      33.120 -13.311 -22.718  0.00  0.00    +0.147 C 
ATOM      5  C   UNL     1      32.150 -12.211 -20.842  0.00  0.00    +0.202 C 
ATOM      6  C   UNL     1      32.974 -14.564 -22.127  0.00  0.00    +0.074 C 
ATOM      7  C   UNL     1      34.115 -14.348 -24.658  0.00  0.00    +0.005 C 
ATOM      8  C   UNL     1      31.961 -13.367 -20.183  0.00  0.00    +0.096 C 
ATOM      9  C   UNL     1      33.967 -15.602 -24.065  0.00  0.00    +0.054 C 
ATOM     10  C   UNL     1      32.368 -14.648 -20.792  0.00  0.00    +0.203 C 
ATOM     11  C   UNL     1      33.396 -15.715 -22.797  0.00  0.00    +0.011 C 
ENDROOT
BRANCH   5  13
ATOM     12  O   UNL     1      31.746  -8.458 -19.144  0.00  0.00    -0.350 OA
ATOM     13  N   UNL     1      31.791 -11.005 -20.319  0.00  0.00    -0.274 N 
ATOM     14  C   UNL     1      31.607  -9.814 -21.151  0.00  0.00    +0.126 C 
ATOM     15  C   UNL     1      31.376 -10.846 -18.926  0.00  0.00    +0.126 C 
ATOM     16  C   UNL     1      32.260  -8.618 -20.469  0.00  0.00    +0.164 C 
ATOM     17  C   UNL     1      32.040  -9.604 -18.341  0.00  0.00    +0.164 C 
ENDBRANCH   5  13
BRANCH   9  20
ATOM     18  O   UNL     1      34.493 -16.720 -26.002  0.00  0.00    -0.270 OA
ATOM     19  N   UNL     1      34.732 -17.945 -24.027  0.00  0.00    -0.273 N 
ATOM     20  C   UNL     1      34.411 -16.795 -24.769  0.00  0.00    +0.249 C 
ATOM     21  C   UNL     1      34.620 -17.987 -22.570  0.00  0.00    +0.115 C 
ATOM     22  C   UNL     1      35.198 -19.172 -24.658  0.00  0.00    +0.115 C 
ENDBRANCH   9  20
BRANCH   3  23
ATOM     23  C   UNL     1      33.862 -11.870 -24.642  0.00  0.00    +0.095 C 
ATOM     24  C   UNL     1      33.909 -11.938 -26.176  0.00  0.00    +0.026 C 
BRANCH  23  25
ATOM     25  N   UNL     1      32.792 -10.959 -24.263  0.00  0.00    -0.330 N 
ATOM     26  H   UNL     1      31.889 -11.329 -24.126  0.00  0.00    +0.147 HD
BRANCH  25  29
ATOM     27  F   UNL     1      31.049  -6.522 -24.126  0.00  0.00    -0.204 F 
ATOM     28  F   UNL     1      35.656  -7.263 -23.319  0.00  0.00    -0.204 F 
ATOM     29  C   UNL     1      32.979  -9.604 -24.085  0.00  0.00    +0.049 C 
ATOM     30  C   UNL     1      34.248  -9.109 -23.788  0.00  0.00    +0.044 C 
ATOM     31  C   UNL     1      31.899  -8.730 -24.199  0.00  0.00    +0.044 C 
ATOM     32  C   UNL     1      32.087  -7.361 -24.017  0.00  0.00    +0.144 C 
ATOM     33  C   UNL     1      34.437  -7.739 -23.604  0.00  0.00    +0.144 C 
ATOM     34  C   UNL     1      33.356  -6.865 -23.719  0.00  0.00    +0.059 C 
ENDBRANCH  25  29
ENDBRANCH  23  25
ENDBRANCH   3  23
TORSDOF 5
ENDMDL
