MODEL 1
REMARK VINA RESULT:      -9.0      0.000      0.000
REMARK  Name = 10457944
REMARK  11 active torsions:
REMARK  status: ('A' for Active; 'I' for Inactive)
REMARK    1  A    between atoms: C_1  and  C_22
REMARK    2  A    between atoms: C_3  and  C_9
REMARK    3  A    between atoms: C_10  and  C_11
REMARK    4  A    between atoms: C_15  and  O_18
REMARK    5  A    between atoms: C_16  and  O_20
REMARK    6  A    between atoms: C_22  and  C_23
REMARK    7  A    between atoms: C_23  and  C_24
REMARK    8  A    between atoms: C_25  and  C_26
REMARK    9  A    between atoms: C_26  and  C_30
REMARK   10  A    between atoms: C_26  and  C_34
REMARK   11  A    between atoms: C_26  and  O_35
REMARK                            x       y       z     vdW  Elec       q    Type
REMARK                         _______ _______ _______ _____ _____    ______ ____
ROOT
ATOM      1  C   UNL     1      33.032 -13.877 -22.137  0.00  0.00    +0.001 C 
ATOM      2  C   UNL     1      33.567 -15.126 -21.342  0.00  0.00    +0.004 C 
ATOM      3  C   UNL     1      34.209 -15.967 -22.485  0.00  0.00    +0.022 C 
ATOM      4  C   UNL     1      34.181 -13.592 -23.131  0.00  0.00    +0.000 C 
ATOM      5  C   UNL     1      34.871 -14.932 -23.407  0.00  0.00    +0.004 C 
ATOM      6  C   UNL     1      31.738 -14.165 -22.937  0.00  0.00    +0.000 C 
ATOM      7  C   UNL     1      34.618 -14.733 -20.273  0.00  0.00    +0.000 C 
ATOM      8  C   UNL     1      32.461 -15.921 -20.626  0.00  0.00    +0.000 C 
ENDROOT
BRANCH   3   9
ATOM      9  C   UNL     1      35.135 -17.065 -22.070  0.00  0.00    -0.026 C 
ATOM     10  C   UNL     1      34.738 -18.166 -21.417  0.00  0.00    -0.005 C 
BRANCH  10  11
ATOM     11  C   UNL     1      35.643 -19.220 -21.023  0.00  0.00    -0.009 C 
ATOM     12  C   UNL     1      35.232 -20.412 -20.565  0.00  0.00    -0.039 C 
ATOM     13  C   UNL     1      36.199 -21.493 -20.160  0.00  0.00    +0.051 C 
ATOM     14  C   UNL     1      33.766 -20.731 -20.379  0.00  0.00    +0.051 C 
ATOM     15  C   UNL     1      35.995 -21.905 -18.695  0.00  0.00    +0.117 C 
ATOM     16  C   UNL     1      33.517 -21.766 -19.268  0.00  0.00    +0.117 C 
ATOM     17  C   UNL     1      34.570 -21.677 -18.165  0.00  0.00    +0.059 C 
BRANCH  15  18
ATOM     18  O   UNL     1      36.914 -21.196 -17.863  0.00  0.00    -0.384 OA
ATOM     19  H   UNL     1      37.689 -20.936 -18.385  0.00  0.00    +0.210 HD
ENDBRANCH  15  18
BRANCH  16  20
ATOM     20  O   UNL     1      33.536 -23.084 -19.815  0.00  0.00    -0.384 OA
ATOM     21  H   UNL     1      32.771 -23.203 -20.400  0.00  0.00    +0.210 HD
ENDBRANCH  16  20
ENDBRANCH  10  11
ENDBRANCH   3   9
BRANCH   1  22
ATOM     22  C   UNL     1      32.757 -12.641 -21.265  0.00  0.00    +0.014 C 
BRANCH  22  23
ATOM     23  C   UNL     1      31.511 -11.882 -21.705  0.00  0.00    +0.076 C 
BRANCH  23  24
ATOM     24  C   UNL     1      31.823 -10.534 -22.198  0.00  0.00    -0.088 C 
ATOM     25  C   UNL     1      32.074  -9.429 -22.597  0.00  0.00    -0.049 C 
BRANCH  25  26
ATOM     26  C   UNL     1      32.378  -8.069 -23.078  0.00  0.00    +0.318 C 
BRANCH  26  30
ATOM     27  F   UNL     1      34.607  -7.682 -22.344  0.00  0.00    -0.166 F 
ATOM     28  F   UNL     1      34.323  -9.106 -23.967  0.00  0.00    -0.166 F 
ATOM     29  F   UNL     1      34.076  -6.973 -24.337  0.00  0.00    -0.166 F 
ATOM     30  C   UNL     1      33.855  -7.955 -23.434  0.00  0.00    +0.438 C 
ENDBRANCH  26  30
BRANCH  26  34
ATOM     31  F   UNL     1      30.673  -6.693 -22.160  0.00  0.00    -0.166 F 
ATOM     32  F   UNL     1      32.704  -5.900 -22.150  0.00  0.00    -0.166 F 
ATOM     33  F   UNL     1      32.149  -7.505 -20.780  0.00  0.00    -0.166 F 
ATOM     34  C   UNL     1      31.975  -7.034 -22.036  0.00  0.00    +0.438 C 
ENDBRANCH  26  34
BRANCH  26  35
ATOM     35  O   UNL     1      31.633  -7.817 -24.271  0.00  0.00    -0.363 OA
ATOM     36  H   UNL     1      30.690  -7.748 -24.054  0.00  0.00    +0.212 HD
ENDBRANCH  26  35
ENDBRANCH  25  26
ENDBRANCH  23  24
ENDBRANCH  22  23
ENDBRANCH   1  22
TORSDOF 11
ENDMDL
MODEL 2
REMARK VINA RESULT:      -8.9      4.072      6.745
REMARK  Name = 10457944
REMARK  11 active torsions:
REMARK  status: ('A' for Active; 'I' for Inactive)
REMARK    1  A    between atoms: C_1  and  C_22
REMARK    2  A    between atoms: C_3  and  C_9
REMARK    3  A    between atoms: C_10  and  C_11
REMARK    4  A    between atoms: C_15  and  O_18
REMARK    5  A    between atoms: C_16  and  O_20
REMARK    6  A    between atoms: C_22  and  C_23
REMARK    7  A    between atoms: C_23  and  C_24
REMARK    8  A    between atoms: C_25  and  C_26
REMARK    9  A    between atoms: C_26  and  C_30
REMARK   10  A    between atoms: C_26  and  C_34
REMARK   11  A    between atoms: C_26  and  O_35
REMARK                            x       y       z     vdW  Elec       q    Type
REMARK                         _______ _______ _______ _____ _____    ______ ____
ROOT
ATOM      1  C   UNL     1      35.057 -19.384 -21.302  0.00  0.00    +0.001 C 
ATOM      2  C   UNL     1      35.556 -20.636 -20.488  0.00  0.00    +0.004 C 
ATOM      3  C   UNL     1      34.368 -20.858 -19.506  0.00  0.00    +0.022 C 
ATOM      4  C   UNL     1      33.559 -19.698 -21.520  0.00  0.00    +0.000 C 
ATOM      5  C   UNL     1      33.112 -20.567 -20.339  0.00  0.00    +0.004 C 
ATOM      6  C   UNL     1      35.180 -18.053 -20.520  0.00  0.00    +0.000 C 
ATOM      7  C   UNL     1      35.777 -21.873 -21.395  0.00  0.00    +0.000 C 
ATOM      8  C   UNL     1      36.868 -20.390 -19.722  0.00  0.00    +0.000 C 
ENDROOT
BRANCH   3   9
ATOM      9  C   UNL     1      34.317 -22.178 -18.804  0.00  0.00    -0.026 C 
ATOM     10  C   UNL     1      34.598 -22.340 -17.503  0.00  0.00    -0.005 C 
BRANCH  10  11
ATOM     11  C   UNL     1      34.544 -23.620 -16.837  0.00  0.00    -0.009 C 
ATOM     12  C   UNL     1      35.223 -23.897 -15.714  0.00  0.00    -0.039 C 
ATOM     13  C   UNL     1      35.147 -25.242 -15.042  0.00  0.00    +0.051 C 
ATOM     14  C   UNL     1      36.149 -22.887 -15.074  0.00  0.00    +0.051 C 
ATOM     15  C   UNL     1      36.536 -25.890 -14.931  0.00  0.00    +0.117 C 
ATOM     16  C   UNL     1      37.295 -23.545 -14.287  0.00  0.00    +0.117 C 
ATOM     17  C   UNL     1      37.701 -24.887 -14.893  0.00  0.00    +0.059 C 
BRANCH  15  18
ATOM     18  O   UNL     1      36.737 -26.787 -16.023  0.00  0.00    -0.384 OA
ATOM     19  H   UNL     1      37.686 -26.863 -16.208  0.00  0.00    +0.210 HD
ENDBRANCH  15  18
BRANCH  16  20
ATOM     20  O   UNL     1      36.901 -23.754 -12.932  0.00  0.00    -0.384 OA
ATOM     21  H   UNL     1      35.941 -23.631 -12.852  0.00  0.00    +0.210 HD
ENDBRANCH  16  20
ENDBRANCH  10  11
ENDBRANCH   3   9
BRANCH   1  22
ATOM     22  C   UNL     1      35.766 -19.181 -22.651  0.00  0.00    +0.014 C 
BRANCH  22  23
ATOM     23  C   UNL     1      34.857 -18.551 -23.698  0.00  0.00    +0.076 C 
BRANCH  23  24
ATOM     24  C   UNL     1      34.513 -17.159 -23.376  0.00  0.00    -0.088 C 
ATOM     25  C   UNL     1      34.230 -16.023 -23.108  0.00  0.00    -0.049 C 
BRANCH  25  26
ATOM     26  C   UNL     1      33.877 -14.632 -22.770  0.00  0.00    +0.318 C 
BRANCH  26  30
ATOM     27  F   UNL     1      32.022 -15.404 -21.497  0.00  0.00    -0.166 F 
ATOM     28  F   UNL     1      33.869 -14.989 -20.421  0.00  0.00    -0.166 F 
ATOM     29  F   UNL     1      32.661 -13.342 -21.181  0.00  0.00    -0.166 F 
ATOM     30  C   UNL     1      33.101 -14.590 -21.460  0.00  0.00    +0.438 C 
ENDBRANCH  26  30
BRANCH  26  34
ATOM     31  F   UNL     1      33.729 -12.912 -24.403  0.00  0.00    -0.166 F 
ATOM     32  F   UNL     1      31.865 -13.585 -23.496  0.00  0.00    -0.166 F 
ATOM     33  F   UNL     1      32.906 -14.859 -24.929  0.00  0.00    -0.166 F 
ATOM     34  C   UNL     1      33.087 -13.993 -23.906  0.00  0.00    +0.438 C 
ENDBRANCH  26  34
BRANCH  26  35
ATOM     35  O   UNL     1      35.076 -13.878 -22.579  0.00  0.00    -0.363 OA
ATOM     36  H   UNL     1      34.904 -13.153 -21.958  0.00  0.00    +0.212 HD
ENDBRANCH  26  35
ENDBRANCH  25  26
ENDBRANCH  23  24
ENDBRANCH  22  23
ENDBRANCH   1  22
TORSDOF 11
ENDMDL
MODEL 3
REMARK VINA RESULT:      -8.6      8.895     13.524
REMARK  Name = 10457944
REMARK  11 active torsions:
REMARK  status: ('A' for Active; 'I' for Inactive)
REMARK    1  A    between atoms: C_1  and  C_22
REMARK    2  A    between atoms: C_3  and  C_9
REMARK    3  A    between atoms: C_10  and  C_11
REMARK    4  A    between atoms: C_15  and  O_18
REMARK    5  A    between atoms: C_16  and  O_20
REMARK    6  A    between atoms: C_22  and  C_23
REMARK    7  A    between atoms: C_23  and  C_24
REMARK    8  A    between atoms: C_25  and  C_26
REMARK    9  A    between atoms: C_26  and  C_30
REMARK   10  A    between atoms: C_26  and  C_34
REMARK   11  A    between atoms: C_26  and  O_35
REMARK                            x       y       z     vdW  Elec       q    Type
REMARK                         _______ _______ _______ _____ _____    ______ ____
ROOT
ATOM      1  C   UNL     1      34.642 -22.358 -19.018  0.00  0.00    +0.001 C 
ATOM      2  C   UNL     1      35.513 -21.405 -19.921  0.00  0.00    +0.004 C 
ATOM      3  C   UNL     1      34.430 -20.796 -20.860  0.00  0.00    +0.022 C 
ATOM      4  C   UNL     1      33.379 -21.507 -18.751  0.00  0.00    +0.000 C 
ATOM      5  C   UNL     1      33.208 -20.577 -19.957  0.00  0.00    +0.004 C 
ATOM      6  C   UNL     1      34.222 -23.666 -19.730  0.00  0.00    +0.000 C 
ATOM      7  C   UNL     1      36.225 -20.306 -19.093  0.00  0.00    +0.000 C 
ATOM      8  C   UNL     1      36.595 -22.142 -20.730  0.00  0.00    +0.000 C 
ENDROOT
BRANCH   3   9
ATOM      9  C   UNL     1      34.821 -19.575 -21.629  0.00  0.00    -0.026 C 
ATOM     10  C   UNL     1      34.295 -19.244 -22.818  0.00  0.00    -0.005 C 
BRANCH  10  11
ATOM     11  C   UNL     1      34.681 -18.061 -23.550  0.00  0.00    -0.009 C 
ATOM     12  C   UNL     1      34.652 -16.827 -23.025  0.00  0.00    -0.039 C 
ATOM     13  C   UNL     1      35.061 -15.611 -23.812  0.00  0.00    +0.051 C 
ATOM     14  C   UNL     1      34.160 -16.571 -21.618  0.00  0.00    +0.051 C 
ATOM     15  C   UNL     1      33.915 -14.591 -23.899  0.00  0.00    +0.117 C 
ATOM     16  C   UNL     1      33.561 -15.166 -21.443  0.00  0.00    +0.117 C 
ATOM     17  C   UNL     1      32.916 -14.660 -22.732  0.00  0.00    +0.059 C 
BRANCH  15  18
ATOM     18  O   UNL     1      33.203 -14.768 -25.124  0.00  0.00    -0.384 OA
ATOM     19  H   UNL     1      32.794 -15.648 -25.135  0.00  0.00    +0.210 HD
ENDBRANCH  15  18
BRANCH  16  20
ATOM     20  O   UNL     1      34.578 -14.246 -21.047  0.00  0.00    -0.384 OA
ATOM     21  H   UNL     1      35.009 -13.882 -21.836  0.00  0.00    +0.210 HD
ENDBRANCH  16  20
ENDBRANCH  10  11
ENDBRANCH   3   9
BRANCH   1  22
ATOM     22  C   UNL     1      35.309 -22.760 -17.693  0.00  0.00    +0.014 C 
BRANCH  22  23
ATOM     23  C   UNL     1      34.297 -23.178 -16.634  0.00  0.00    +0.076 C 
BRANCH  23  24
ATOM     24  C   UNL     1      34.939 -23.735 -15.436  0.00  0.00    -0.088 C 
ATOM     25  C   UNL     1      35.470 -24.191 -14.459  0.00  0.00    -0.049 C 
BRANCH  25  26
ATOM     26  C   UNL     1      36.131 -24.747 -13.265  0.00  0.00    +0.318 C 
BRANCH  26  30
ATOM     27  F   UNL     1      37.549 -22.847 -13.455  0.00  0.00    -0.166 F 
ATOM     28  F   UNL     1      36.169 -22.899 -11.772  0.00  0.00    -0.166 F 
ATOM     29  F   UNL     1      37.915 -24.202 -11.786  0.00  0.00    -0.166 F 
ATOM     30  C   UNL     1      36.948 -23.668 -12.565  0.00  0.00    +0.438 C 
ENDBRANCH  26  30
BRANCH  26  34
ATOM     31  F   UNL     1      38.221 -25.550 -14.059  0.00  0.00    -0.166 F 
ATOM     32  F   UNL     1      36.440 -26.664 -14.643  0.00  0.00    -0.166 F 
ATOM     33  F   UNL     1      37.176 -26.773 -12.592  0.00  0.00    -0.166 F 
ATOM     34  C   UNL     1      36.996 -25.943 -13.643  0.00  0.00    +0.438 C 
ENDBRANCH  26  34
BRANCH  26  35
ATOM     35  O   UNL     1      35.134 -25.190 -12.342  0.00  0.00    -0.363 OA
ATOM     36  H   UNL     1      35.252 -24.732 -11.495  0.00  0.00    +0.212 HD
ENDBRANCH  26  35
ENDBRANCH  25  26
ENDBRANCH  23  24
ENDBRANCH  22  23
ENDBRANCH   1  22
TORSDOF 11
ENDMDL
MODEL 4
REMARK VINA RESULT:      -8.3      4.189      6.796
REMARK  Name = 10457944
REMARK  11 active torsions:
REMARK  status: ('A' for Active; 'I' for Inactive)
REMARK    1  A    between atoms: C_1  and  C_22
REMARK    2  A    between atoms: C_3  and  C_9
REMARK    3  A    between atoms: C_10  and  C_11
REMARK    4  A    between atoms: C_15  and  O_18
REMARK    5  A    between atoms: C_16  and  O_20
REMARK    6  A    between atoms: C_22  and  C_23
REMARK    7  A    between atoms: C_23  and  C_24
REMARK    8  A    between atoms: C_25  and  C_26
REMARK    9  A    between atoms: C_26  and  C_30
REMARK   10  A    between atoms: C_26  and  C_34
REMARK   11  A    between atoms: C_26  and  O_35
REMARK                            x       y       z     vdW  Elec       q    Type
REMARK                         _______ _______ _______ _____ _____    ______ ____
ROOT
ATOM      1  C   UNL     1      34.961 -19.318 -21.389  0.00  0.00    +0.001 C 
ATOM      2  C   UNL     1      35.348 -20.536 -20.469  0.00  0.00    +0.004 C 
ATOM      3  C   UNL     1      34.070 -20.675 -19.589  0.00  0.00    +0.022 C 
ATOM      4  C   UNL     1      33.480 -19.606 -21.726  0.00  0.00    +0.000 C 
ATOM      5  C   UNL     1      32.903 -20.397 -20.546  0.00  0.00    +0.004 C 
ATOM      6  C   UNL     1      35.054 -17.951 -20.669  0.00  0.00    +0.000 C 
ATOM      7  C   UNL     1      35.611 -21.826 -21.287  0.00  0.00    +0.000 C 
ATOM      8  C   UNL     1      36.592 -20.283 -19.601  0.00  0.00    +0.000 C 
ENDROOT
BRANCH   3   9
ATOM      9  C   UNL     1      33.917 -21.953 -18.828  0.00  0.00    -0.026 C 
ATOM     10  C   UNL     1      32.976 -22.155 -17.894  0.00  0.00    -0.005 C 
BRANCH  10  11
ATOM     11  C   UNL     1      32.838 -23.394 -17.168  0.00  0.00    -0.009 C 
ATOM     12  C   UNL     1      31.763 -23.698 -16.424  0.00  0.00    -0.039 C 
ATOM     13  C   UNL     1      31.647 -25.000 -15.677  0.00  0.00    +0.051 C 
ATOM     14  C   UNL     1      30.616 -22.729 -16.250  0.00  0.00    +0.051 C 
ATOM     15  C   UNL     1      31.462 -24.764 -14.170  0.00  0.00    +0.117 C 
ATOM     16  C   UNL     1      29.875 -22.915 -14.915  0.00  0.00    +0.117 C 
ATOM     17  C   UNL     1      30.809 -23.417 -13.816  0.00  0.00    +0.059 C 
BRANCH  15  18
ATOM     18  O   UNL     1      32.725 -24.850 -13.510  0.00  0.00    -0.384 OA
ATOM     19  H   UNL     1      33.437 -24.826 -14.170  0.00  0.00    +0.210 HD
ENDBRANCH  15  18
BRANCH  16  20
ATOM     20  O   UNL     1      28.808 -23.850 -15.074  0.00  0.00    -0.384 OA
ATOM     21  H   UNL     1      29.029 -24.476 -15.781  0.00  0.00    +0.210 HD
ENDBRANCH  16  20
ENDBRANCH  10  11
ENDBRANCH   3   9
BRANCH   1  22
ATOM     22  C   UNL     1      35.793 -19.207 -22.677  0.00  0.00    +0.014 C 
BRANCH  22  23
ATOM     23  C   UNL     1      35.007 -18.592 -23.828  0.00  0.00    +0.076 C 
BRANCH  23  24
ATOM     24  C   UNL     1      34.633 -17.195 -23.565  0.00  0.00    -0.088 C 
ATOM     25  C   UNL     1      34.321 -16.056 -23.348  0.00  0.00    -0.049 C 
BRANCH  25  26
ATOM     26  C   UNL     1      33.931 -14.661 -23.076  0.00  0.00    +0.318 C 
BRANCH  26  30
ATOM     27  F   UNL     1      32.343 -13.449 -21.784  0.00  0.00    -0.166 F 
ATOM     28  F   UNL     1      32.193 -15.622 -21.771  0.00  0.00    -0.166 F 
ATOM     29  F   UNL     1      33.815 -14.637 -20.698  0.00  0.00    -0.166 F 
ATOM     30  C   UNL     1      33.067 -14.591 -21.823  0.00  0.00    +0.438 C 
ENDBRANCH  26  30
BRANCH  26  34
ATOM     31  F   UNL     1      33.512 -12.755 -24.432  0.00  0.00    -0.166 F 
ATOM     32  F   UNL     1      31.870 -14.163 -24.161  0.00  0.00    -0.166 F 
ATOM     33  F   UNL     1      33.567 -14.692 -25.426  0.00  0.00    -0.166 F 
ATOM     34  C   UNL     1      33.213 -14.064 -24.281  0.00  0.00    +0.438 C 
ENDBRANCH  26  34
BRANCH  26  35
ATOM     35  O   UNL     1      35.105 -13.886 -22.826  0.00  0.00    -0.363 OA
ATOM     36  H   UNL     1      35.882 -14.362 -23.158  0.00  0.00    +0.212 HD
ENDBRANCH  26  35
ENDBRANCH  25  26
ENDBRANCH  23  24
ENDBRANCH  22  23
ENDBRANCH   1  22
TORSDOF 11
ENDMDL
MODEL 5
REMARK VINA RESULT:      -8.3      4.638      7.979
REMARK  Name = 10457944
REMARK  11 active torsions:
REMARK  status: ('A' for Active; 'I' for Inactive)
REMARK    1  A    between atoms: C_1  and  C_22
REMARK    2  A    between atoms: C_3  and  C_9
REMARK    3  A    between atoms: C_10  and  C_11
REMARK    4  A    between atoms: C_15  and  O_18
REMARK    5  A    between atoms: C_16  and  O_20
REMARK    6  A    between atoms: C_22  and  C_23
REMARK    7  A    between atoms: C_23  and  C_24
REMARK    8  A    between atoms: C_25  and  C_26
REMARK    9  A    between atoms: C_26  and  C_30
REMARK   10  A    between atoms: C_26  and  C_34
REMARK   11  A    between atoms: C_26  and  O_35
REMARK                            x       y       z     vdW  Elec       q    Type
REMARK                         _______ _______ _______ _____ _____    ______ ____
ROOT
ATOM      1  C   UNL     1      35.817 -21.266 -19.858  0.00  0.00    +0.001 C 
ATOM      2  C   UNL     1      34.744 -22.227 -19.223  0.00  0.00    +0.004 C 
ATOM      3  C   UNL     1      35.519 -22.785 -17.992  0.00  0.00    +0.022 C 
ATOM      4  C   UNL     1      36.442 -20.590 -18.617  0.00  0.00    +0.000 C 
ATOM      5  C   UNL     1      36.320 -21.588 -17.460  0.00  0.00    +0.004 C 
ATOM      6  C   UNL     1      36.929 -22.014 -20.633  0.00  0.00    +0.000 C 
ATOM      7  C   UNL     1      33.465 -21.468 -18.786  0.00  0.00    +0.000 C 
ATOM      8  C   UNL     1      34.303 -23.365 -20.160  0.00  0.00    +0.000 C 
ENDROOT
BRANCH   3   9
ATOM      9  C   UNL     1      34.705 -23.465 -16.939  0.00  0.00    -0.026 C 
ATOM     10  C   UNL     1      34.659 -23.065 -15.660  0.00  0.00    -0.005 C 
BRANCH  10  11
ATOM     11  C   UNL     1      33.866 -23.731 -14.653  0.00  0.00    -0.009 C 
ATOM     12  C   UNL     1      32.585 -24.082 -14.836  0.00  0.00    -0.039 C 
ATOM     13  C   UNL     1      31.783 -24.775 -13.767  0.00  0.00    +0.051 C 
ATOM     14  C   UNL     1      31.846 -23.760 -16.115  0.00  0.00    +0.051 C 
ATOM     15  C   UNL     1      30.534 -23.963 -13.391  0.00  0.00    +0.117 C 
ATOM     16  C   UNL     1      30.331 -23.594 -15.904  0.00  0.00    +0.117 C 
ATOM     17  C   UNL     1      30.011 -23.051 -14.513  0.00  0.00    +0.059 C 
BRANCH  15  18
ATOM     18  O   UNL     1      30.807 -23.165 -12.239  0.00  0.00    -0.384 OA
ATOM     19  H   UNL     1      31.667 -23.418 -11.867  0.00  0.00    +0.210 HD
ENDBRANCH  15  18
BRANCH  16  20
ATOM     20  O   UNL     1      29.675 -24.851 -16.068  0.00  0.00    -0.384 OA
ATOM     21  H   UNL     1      30.080 -25.333 -16.806  0.00  0.00    +0.210 HD
ENDBRANCH  16  20
ENDBRANCH  10  11
ENDBRANCH   3   9
BRANCH   1  22
ATOM     22  C   UNL     1      35.236 -20.209 -20.811  0.00  0.00    +0.014 C 
BRANCH  22  23
ATOM     23  C   UNL     1      36.198 -19.054 -21.056  0.00  0.00    +0.076 C 
BRANCH  23  24
ATOM     24  C   UNL     1      35.502 -17.768 -21.200  0.00  0.00    -0.088 C 
ATOM     25  C   UNL     1      34.935 -16.715 -21.313  0.00  0.00    -0.049 C 
BRANCH  25  26
ATOM     26  C   UNL     1      34.244 -15.419 -21.443  0.00  0.00    +0.318 C 
BRANCH  26  30
ATOM     27  F   UNL     1      31.966 -14.756 -21.612  0.00  0.00    -0.166 F 
ATOM     28  F   UNL     1      32.368 -16.795 -20.959  0.00  0.00    -0.166 F 
ATOM     29  F   UNL     1      32.752 -15.126 -19.611  0.00  0.00    -0.166 F 
ATOM     30  C   UNL     1      32.824 -15.523 -20.901  0.00  0.00    +0.438 C 
ENDBRANCH  26  30
BRANCH  26  34
ATOM     31  F   UNL     1      33.152 -15.376 -23.552  0.00  0.00    -0.166 F 
ATOM     32  F   UNL     1      35.331 -15.425 -23.562  0.00  0.00    -0.166 F 
ATOM     33  F   UNL     1      34.281 -13.604 -22.978  0.00  0.00    -0.166 F 
ATOM     34  C   UNL     1      34.254 -14.954 -22.894  0.00  0.00    +0.438 C 
ENDBRANCH  26  34
BRANCH  26  35
ATOM     35  O   UNL     1      34.929 -14.443 -20.655  0.00  0.00    -0.363 OA
ATOM     36  H   UNL     1      35.641 -14.046 -21.180  0.00  0.00    +0.212 HD
ENDBRANCH  26  35
ENDBRANCH  25  26
ENDBRANCH  23  24
ENDBRANCH  22  23
ENDBRANCH   1  22
TORSDOF 11
ENDMDL
MODEL 6
REMARK VINA RESULT:      -8.2      8.072     12.527
REMARK  Name = 10457944
REMARK  11 active torsions:
REMARK  status: ('A' for Active; 'I' for Inactive)
REMARK    1  A    between atoms: C_1  and  C_22
REMARK    2  A    between atoms: C_3  and  C_9
REMARK    3  A    between atoms: C_10  and  C_11
REMARK    4  A    between atoms: C_15  and  O_18
REMARK    5  A    between atoms: C_16  and  O_20
REMARK    6  A    between atoms: C_22  and  C_23
REMARK    7  A    between atoms: C_23  and  C_24
REMARK    8  A    between atoms: C_25  and  C_26
REMARK    9  A    between atoms: C_26  and  C_30
REMARK   10  A    between atoms: C_26  and  C_34
REMARK   11  A    between atoms: C_26  and  O_35
REMARK                            x       y       z     vdW  Elec       q    Type
REMARK                         _______ _______ _______ _____ _____    ______ ____
ROOT
ATOM      1  C   UNL     1      34.496 -22.069 -19.229  0.00  0.00    +0.001 C 
ATOM      2  C   UNL     1      35.407 -21.110 -20.084  0.00  0.00    +0.004 C 
ATOM      3  C   UNL     1      34.387 -20.568 -21.129  0.00  0.00    +0.022 C 
ATOM      4  C   UNL     1      33.186 -21.260 -19.095  0.00  0.00    +0.000 C 
ATOM      5  C   UNL     1      33.086 -20.370 -20.339  0.00  0.00    +0.004 C 
ATOM      6  C   UNL     1      34.185 -23.412 -19.933  0.00  0.00    +0.000 C 
ATOM      7  C   UNL     1      36.008 -19.962 -19.234  0.00  0.00    +0.000 C 
ATOM      8  C   UNL     1      36.579 -21.828 -20.776  0.00  0.00    +0.000 C 
ENDROOT
BRANCH   3   9
ATOM      9  C   UNL     1      34.800 -19.355 -21.900  0.00  0.00    -0.026 C 
ATOM     10  C   UNL     1      34.397 -18.111 -21.601  0.00  0.00    -0.005 C 
BRANCH  10  11
ATOM     11  C   UNL     1      34.804 -16.948 -22.353  0.00  0.00    -0.009 C 
ATOM     12  C   UNL     1      34.312 -15.720 -22.135  0.00  0.00    -0.039 C 
ATOM     13  C   UNL     1      34.755 -14.524 -22.936  0.00  0.00    +0.051 C 
ATOM     14  C   UNL     1      33.241 -15.463 -21.099  0.00  0.00    +0.051 C 
ATOM     15  C   UNL     1      33.569 -13.859 -23.649  0.00  0.00    +0.117 C 
ATOM     16  C   UNL     1      32.353 -14.256 -21.446  0.00  0.00    +0.117 C 
ATOM     17  C   UNL     1      32.213 -14.072 -22.956  0.00  0.00    +0.059 C 
BRANCH  15  18
ATOM     18  O   UNL     1      33.480 -14.341 -24.990  0.00  0.00    -0.384 OA
ATOM     19  H   UNL     1      33.548 -15.309 -24.991  0.00  0.00    +0.210 HD
ENDBRANCH  15  18
BRANCH  16  20
ATOM     20  O   UNL     1      32.907 -13.065 -20.888  0.00  0.00    -0.384 OA
ATOM     21  H   UNL     1      32.486 -12.883 -20.032  0.00  0.00    +0.210 HD
ENDBRANCH  16  20
ENDBRANCH  10  11
ENDBRANCH   3   9
BRANCH   1  22
ATOM     22  C   UNL     1      35.062 -22.410 -17.840  0.00  0.00    +0.014 C 
BRANCH  22  23
ATOM     23  C   UNL     1      34.552 -23.745 -17.314  0.00  0.00    +0.076 C 
BRANCH  23  24
ATOM     24  C   UNL     1      33.432 -23.585 -16.377  0.00  0.00    -0.088 C 
ATOM     25  C   UNL     1      32.512 -23.458 -15.614  0.00  0.00    -0.049 C 
BRANCH  25  26
ATOM     26  C   UNL     1      31.379 -23.311 -14.683  0.00  0.00    +0.318 C 
BRANCH  26  30
ATOM     27  F   UNL     1      30.222 -24.443 -12.941  0.00  0.00    -0.166 F 
ATOM     28  F   UNL     1      30.895 -25.636 -14.635  0.00  0.00    -0.166 F 
ATOM     29  F   UNL     1      32.343 -24.892 -13.187  0.00  0.00    -0.166 F 
ATOM     30  C   UNL     1      31.210 -24.578 -13.855  0.00  0.00    +0.438 C 
ENDBRANCH  26  30
BRANCH  26  34
ATOM     31  F   UNL     1      30.384 -22.456 -16.664  0.00  0.00    -0.166 F 
ATOM     32  F   UNL     1      29.354 -22.061 -14.784  0.00  0.00    -0.166 F 
ATOM     33  F   UNL     1      29.339 -24.068 -15.640  0.00  0.00    -0.166 F 
ATOM     34  C   UNL     1      30.105 -22.971 -15.446  0.00  0.00    +0.438 C 
ENDBRANCH  26  34
BRANCH  26  35
ATOM     35  O   UNL     1      31.656 -22.243 -13.775  0.00  0.00    -0.363 OA
ATOM     36  H   UNL     1      32.516 -22.393 -13.353  0.00  0.00    +0.212 HD
ENDBRANCH  26  35
ENDBRANCH  25  26
ENDBRANCH  23  24
ENDBRANCH  22  23
ENDBRANCH   1  22
TORSDOF 11
ENDMDL
MODEL 7
REMARK VINA RESULT:      -8.1      6.043     11.559
REMARK  Name = 10457944
REMARK  11 active torsions:
REMARK  status: ('A' for Active; 'I' for Inactive)
REMARK    1  A    between atoms: C_1  and  C_22
REMARK    2  A    between atoms: C_3  and  C_9
REMARK    3  A    between atoms: C_10  and  C_11
REMARK    4  A    between atoms: C_15  and  O_18
REMARK    5  A    between atoms: C_16  and  O_20
REMARK    6  A    between atoms: C_22  and  C_23
REMARK    7  A    between atoms: C_23  and  C_24
REMARK    8  A    between atoms: C_25  and  C_26
REMARK    9  A    between atoms: C_26  and  C_30
REMARK   10  A    between atoms: C_26  and  C_34
REMARK   11  A    between atoms: C_26  and  O_35
REMARK                            x       y       z     vdW  Elec       q    Type
REMARK                         _______ _______ _______ _____ _____    ______ ____
ROOT
ATOM      1  C   UNL     1      34.120 -16.502 -21.902  0.00  0.00    +0.001 C 
ATOM      2  C   UNL     1      34.093 -14.931 -21.787  0.00  0.00    +0.004 C 
ATOM      3  C   UNL     1      32.572 -14.664 -21.582  0.00  0.00    +0.022 C 
ATOM      4  C   UNL     1      33.116 -16.937 -20.810  0.00  0.00    +0.000 C 
ATOM      5  C   UNL     1      32.095 -15.803 -20.669  0.00  0.00    +0.004 C 
ATOM      6  C   UNL     1      33.629 -17.027 -23.272  0.00  0.00    +0.000 C 
ATOM      7  C   UNL     1      34.923 -14.418 -20.583  0.00  0.00    +0.000 C 
ATOM      8  C   UNL     1      34.615 -14.212 -23.043  0.00  0.00    +0.000 C 
ENDROOT
BRANCH   3   9
ATOM      9  C   UNL     1      32.192 -13.308 -21.080  0.00  0.00    -0.026 C 
ATOM     10  C   UNL     1      31.935 -12.263 -21.880  0.00  0.00    -0.005 C 
BRANCH  10  11
ATOM     11  C   UNL     1      31.568 -10.959 -21.382  0.00  0.00    -0.009 C 
ATOM     12  C   UNL     1      31.899  -9.814 -21.998  0.00  0.00    -0.039 C 
ATOM     13  C   UNL     1      31.503  -8.467 -21.455  0.00  0.00    +0.051 C 
ATOM     14  C   UNL     1      32.738  -9.801 -23.256  0.00  0.00    +0.051 C 
ATOM     15  C   UNL     1      32.734  -7.589 -21.184  0.00  0.00    +0.117 C 
ATOM     16  C   UNL     1      33.561  -8.511 -23.410  0.00  0.00    +0.117 C 
ATOM     17  C   UNL     1      33.955  -7.927 -22.055  0.00  0.00    +0.059 C 
BRANCH  15  18
ATOM     18  O   UNL     1      33.107  -7.693 -19.810  0.00  0.00    -0.384 OA
ATOM     19  H   UNL     1      33.032  -8.617 -19.524  0.00  0.00    +0.210 HD
ENDBRANCH  15  18
BRANCH  16  20
ATOM     20  O   UNL     1      32.811  -7.534 -24.131  0.00  0.00    -0.384 OA
ATOM     21  H   UNL     1      33.356  -7.172 -24.847  0.00  0.00    +0.210 HD
ENDBRANCH  16  20
ENDBRANCH  10  11
ENDBRANCH   3   9
BRANCH   1  22
ATOM     22  C   UNL     1      35.499 -17.132 -21.646  0.00  0.00    +0.014 C 
BRANCH  22  23
ATOM     23  C   UNL     1      35.655 -18.488 -22.321  0.00  0.00    +0.076 C 
BRANCH  23  24
ATOM     24  C   UNL     1      35.578 -19.601 -21.365  0.00  0.00    -0.088 C 
ATOM     25  C   UNL     1      35.518 -20.514 -20.587  0.00  0.00    -0.049 C 
BRANCH  25  26
ATOM     26  C   UNL     1      35.451 -21.641 -19.639  0.00  0.00    +0.318 C 
BRANCH  26  30
ATOM     27  F   UNL     1      33.319 -20.686 -19.190  0.00  0.00    -0.166 F 
ATOM     28  F   UNL     1      33.362 -22.728 -19.946  0.00  0.00    -0.166 F 
ATOM     29  F   UNL     1      33.976 -22.316 -17.897  0.00  0.00    -0.166 F 
ATOM     30  C   UNL     1      34.019 -21.844 -19.163  0.00  0.00    +0.438 C 
ENDBRANCH  26  30
BRANCH  26  34
ATOM     31  F   UNL     1      35.737 -21.421 -17.290  0.00  0.00    -0.166 F 
ATOM     32  F   UNL     1      37.029 -20.215 -18.566  0.00  0.00    -0.166 F 
ATOM     33  F   UNL     1      37.350 -22.367 -18.405  0.00  0.00    -0.166 F 
ATOM     34  C   UNL     1      36.399 -21.407 -18.468  0.00  0.00    +0.438 C 
ENDBRANCH  26  34
BRANCH  26  35
ATOM     35  O   UNL     1      35.851 -22.839 -20.306  0.00  0.00    -0.363 OA
ATOM     36  H   UNL     1      36.709 -22.698 -20.736  0.00  0.00    +0.212 HD
ENDBRANCH  26  35
ENDBRANCH  25  26
ENDBRANCH  23  24
ENDBRANCH  22  23
ENDBRANCH   1  22
TORSDOF 11
ENDMDL
MODEL 8
REMARK VINA RESULT:      -8.1      4.791     12.018
REMARK  Name = 10457944
REMARK  11 active torsions:
REMARK  status: ('A' for Active; 'I' for Inactive)
REMARK    1  A    between atoms: C_1  and  C_22
REMARK    2  A    between atoms: C_3  and  C_9
REMARK    3  A    between atoms: C_10  and  C_11
REMARK    4  A    between atoms: C_15  and  O_18
REMARK    5  A    between atoms: C_16  and  O_20
REMARK    6  A    between atoms: C_22  and  C_23
REMARK    7  A    between atoms: C_23  and  C_24
REMARK    8  A    between atoms: C_25  and  C_26
REMARK    9  A    between atoms: C_26  and  C_30
REMARK   10  A    between atoms: C_26  and  C_34
REMARK   11  A    between atoms: C_26  and  O_35
REMARK                            x       y       z     vdW  Elec       q    Type
REMARK                         _______ _______ _______ _____ _____    ______ ____
ROOT
ATOM      1  C   UNL     1      32.268  -9.048 -22.405  0.00  0.00    +0.001 C 
ATOM      2  C   UNL     1      32.188  -7.669 -23.162  0.00  0.00    +0.004 C 
ATOM      3  C   UNL     1      33.696  -7.340 -23.365  0.00  0.00    +0.022 C 
ATOM      4  C   UNL     1      33.410  -9.776 -23.150  0.00  0.00    +0.000 C 
ATOM      5  C   UNL     1      34.351  -8.691 -23.687  0.00  0.00    +0.004 C 
ATOM      6  C   UNL     1      32.654  -8.907 -20.912  0.00  0.00    +0.000 C 
ATOM      7  C   UNL     1      31.449  -7.791 -24.519  0.00  0.00    +0.000 C 
ATOM      8  C   UNL     1      31.485  -6.563 -22.356  0.00  0.00    +0.000 C 
ENDROOT
BRANCH   3   9
ATOM      9  C   UNL     1      34.021  -6.275 -24.363  0.00  0.00    -0.026 C 
ATOM     10  C   UNL     1      34.600  -6.517 -25.548  0.00  0.00    -0.005 C 
BRANCH  10  11
ATOM     11  C   UNL     1      34.907  -5.479 -26.503  0.00  0.00    -0.009 C 
ATOM     12  C   UNL     1      34.101  -4.434 -26.741  0.00  0.00    -0.039 C 
ATOM     13  C   UNL     1      34.446  -3.365 -27.744  0.00  0.00    +0.051 C 
ATOM     14  C   UNL     1      32.764  -4.286 -26.049  0.00  0.00    +0.051 C 
ATOM     15  C   UNL     1      33.369  -3.252 -28.833  0.00  0.00    +0.117 C 
ATOM     16  C   UNL     1      31.742  -3.501 -26.889  0.00  0.00    +0.117 C 
ATOM     17  C   UNL     1      31.968  -3.700 -28.386  0.00  0.00    +0.059 C 
BRANCH  15  18
ATOM     18  O   UNL     1      33.755  -4.019 -29.974  0.00  0.00    -0.384 OA
ATOM     19  H   UNL     1      34.093  -3.425 -30.663  0.00  0.00    +0.210 HD
ENDBRANCH  15  18
BRANCH  16  20
ATOM     20  O   UNL     1      31.832  -2.108 -26.593  0.00  0.00    -0.384 OA
ATOM     21  H   UNL     1      32.460  -1.688 -27.201  0.00  0.00    +0.210 HD
ENDBRANCH  16  20
ENDBRANCH  10  11
ENDBRANCH   3   9
BRANCH   1  22
ATOM     22  C   UNL     1      30.976  -9.878 -22.459  0.00  0.00    +0.014 C 
BRANCH  22  23
ATOM     23  C   UNL     1      30.870 -10.869 -21.307  0.00  0.00    +0.076 C 
BRANCH  23  24
ATOM     24  C   UNL     1      31.611 -12.111 -21.569  0.00  0.00    -0.088 C 
ATOM     25  C   UNL     1      32.216 -13.127 -21.776  0.00  0.00    -0.049 C 
BRANCH  25  26
ATOM     26  C   UNL     1      32.956 -14.378 -22.021  0.00  0.00    +0.318 C 
BRANCH  26  30
ATOM     27  F   UNL     1      34.792 -14.047 -20.547  0.00  0.00    -0.166 F 
ATOM     28  F   UNL     1      32.908 -14.694 -19.667  0.00  0.00    -0.166 F 
ATOM     29  F   UNL     1      34.100 -16.095 -20.834  0.00  0.00    -0.166 F 
ATOM     30  C   UNL     1      33.695 -14.808 -20.761  0.00  0.00    +0.438 C 
ENDBRANCH  26  30
BRANCH  26  34
ATOM     31  F   UNL     1      35.013 -14.978 -23.048  0.00  0.00    -0.166 F 
ATOM     32  F   UNL     1      34.325 -12.928 -23.324  0.00  0.00    -0.166 F 
ATOM     33  F   UNL     1      33.326 -14.567 -24.362  0.00  0.00    -0.166 F 
ATOM     34  C   UNL     1      33.911 -14.210 -23.196  0.00  0.00    +0.438 C 
ENDBRANCH  26  34
BRANCH  26  35
ATOM     35  O   UNL     1      32.028 -15.416 -22.344  0.00  0.00    -0.363 OA
ATOM     36  H   UNL     1      31.235 -15.322 -21.794  0.00  0.00    +0.212 HD
ENDBRANCH  26  35
ENDBRANCH  25  26
ENDBRANCH  23  24
ENDBRANCH  22  23
ENDBRANCH   1  22
TORSDOF 11
ENDMDL
MODEL 9
REMARK VINA RESULT:      -8.1      5.008     11.989
REMARK  Name = 10457944
REMARK  11 active torsions:
REMARK  status: ('A' for Active; 'I' for Inactive)
REMARK    1  A    between atoms: C_1  and  C_22
REMARK    2  A    between atoms: C_3  and  C_9
REMARK    3  A    between atoms: C_10  and  C_11
REMARK    4  A    between atoms: C_15  and  O_18
REMARK    5  A    between atoms: C_16  and  O_20
REMARK    6  A    between atoms: C_22  and  C_23
REMARK    7  A    between atoms: C_23  and  C_24
REMARK    8  A    between atoms: C_25  and  C_26
REMARK    9  A    between atoms: C_26  and  C_30
REMARK   10  A    between atoms: C_26  and  C_34
REMARK   11  A    between atoms: C_26  and  O_35
REMARK                            x       y       z     vdW  Elec       q    Type
REMARK                         _______ _______ _______ _____ _____    ______ ____
ROOT
ATOM      1  C   UNL     1      32.123  -8.679 -22.088  0.00  0.00    +0.001 C 
ATOM      2  C   UNL     1      31.657  -7.444 -22.947  0.00  0.00    +0.004 C 
ATOM      3  C   UNL     1      33.024  -6.820 -23.358  0.00  0.00    +0.022 C 
ATOM      4  C   UNL     1      33.322  -9.220 -22.899  0.00  0.00    +0.000 C 
ATOM      5  C   UNL     1      33.935  -8.024 -23.638  0.00  0.00    +0.004 C 
ATOM      6  C   UNL     1      32.611  -8.293 -20.671  0.00  0.00    +0.000 C 
ATOM      7  C   UNL     1      30.837  -7.872 -24.190  0.00  0.00    +0.000 C 
ATOM      8  C   UNL     1      30.803  -6.434 -22.161  0.00  0.00    +0.000 C 
ENDROOT
BRANCH   3   9
ATOM      9  C   UNL     1      32.998  -5.828 -24.475  0.00  0.00    -0.026 C 
ATOM     10  C   UNL     1      33.662  -5.989 -25.629  0.00  0.00    -0.005 C 
BRANCH  10  11
ATOM     11  C   UNL     1      33.627  -5.023 -26.701  0.00  0.00    -0.009 C 
ATOM     12  C   UNL     1      34.583  -4.926 -27.638  0.00  0.00    -0.039 C 
ATOM     13  C   UNL     1      34.520  -3.907 -28.745  0.00  0.00    +0.051 C 
ATOM     14  C   UNL     1      35.813  -5.805 -27.615  0.00  0.00    +0.051 C 
ATOM     15  C   UNL     1      35.750  -2.986 -28.727  0.00  0.00    +0.117 C 
ATOM     16  C   UNL     1      37.035  -5.138 -28.268  0.00  0.00    +0.117 C 
ATOM     17  C   UNL     1      37.005  -3.620 -28.105  0.00  0.00    +0.059 C 
BRANCH  15  18
ATOM     18  O   UNL     1      35.442  -1.786 -28.019  0.00  0.00    -0.384 OA
ATOM     19  H   UNL     1      34.730  -1.313 -28.478  0.00  0.00    +0.210 HD
ENDBRANCH  15  18
BRANCH  16  20
ATOM     20  O   UNL     1      37.075  -5.449 -29.661  0.00  0.00    -0.384 OA
ATOM     21  H   UNL     1      36.170  -5.499 -30.007  0.00  0.00    +0.210 HD
ENDBRANCH  16  20
ENDBRANCH  10  11
ENDBRANCH   3   9
BRANCH   1  22
ATOM     22  C   UNL     1      31.055  -9.771 -21.915  0.00  0.00    +0.014 C 
BRANCH  22  23
ATOM     23  C   UNL     1      31.351 -10.696 -20.742  0.00  0.00    +0.076 C 
BRANCH  23  24
ATOM     24  C   UNL     1      31.897 -11.990 -21.175  0.00  0.00    -0.088 C 
ATOM     25  C   UNL     1      32.345 -13.045 -21.534  0.00  0.00    -0.049 C 
BRANCH  25  26
ATOM     26  C   UNL     1      32.899 -14.335 -21.983  0.00  0.00    +0.318 C 
BRANCH  26  30
ATOM     27  F   UNL     1      34.831 -15.699 -21.730  0.00  0.00    -0.166 F 
ATOM     28  F   UNL     1      34.965 -13.638 -21.040  0.00  0.00    -0.166 F 
ATOM     29  F   UNL     1      33.796 -15.089 -19.910  0.00  0.00    -0.166 F 
ATOM     30  C   UNL     1      34.129 -14.694 -21.159  0.00  0.00    +0.438 C 
ENDBRANCH  26  30
BRANCH  26  34
ATOM     31  F   UNL     1      33.508 -15.517 -23.952  0.00  0.00    -0.166 F 
ATOM     32  F   UNL     1      34.285 -13.493 -23.727  0.00  0.00    -0.166 F 
ATOM     33  F   UNL     1      32.176 -13.811 -24.186  0.00  0.00    -0.166 F 
ATOM     34  C   UNL     1      33.221 -14.287 -23.472  0.00  0.00    +0.438 C 
ENDBRANCH  26  34
BRANCH  26  35
ATOM     35  O   UNL     1      31.929 -15.362 -21.767  0.00  0.00    -0.363 OA
ATOM     36  H   UNL     1      31.783 -15.472 -20.815  0.00  0.00    +0.212 HD
ENDBRANCH  26  35
ENDBRANCH  25  26
ENDBRANCH  23  24
ENDBRANCH  22  23
ENDBRANCH   1  22
TORSDOF 11
ENDMDL
