MODEL 1
REMARK VINA RESULT:      -5.5      0.000      0.000
REMARK  Name = 3073
REMARK  4 active torsions:
REMARK  status: ('A' for Active; 'I' for Inactive)
REMARK    1  A    between atoms: P_1  and  O_4
REMARK    2  A    between atoms: P_1  and  O_8
REMARK    3  A    between atoms: O_4  and  C_5
REMARK    4  A    between atoms: O_8  and  C_9
REMARK                            x       y       z     vdW  Elec       q    Type
REMARK                         _______ _______ _______ _____ _____    ______ ____
ROOT
ATOM      1  P   UNL     1      35.083 -18.361 -22.746  0.00  0.00    +0.344 P 
ATOM      2  O   UNL     1      36.558 -18.252 -22.482  0.00  0.00    -0.258 OA
ATOM      3  C   UNL     1      34.665 -18.406 -24.479  0.00  0.00    +0.129 C 
ENDROOT
BRANCH   1   4
ATOM      4  O   UNL     1      34.225 -17.135 -22.131  0.00  0.00    -0.297 OA
BRANCH   4   5
ATOM      5  C   UNL     1      34.827 -15.876 -21.888  0.00  0.00    +0.124 C 
ATOM      6  C   UNL     1      34.472 -14.923 -23.021  0.00  0.00    +0.033 C 
ATOM      7  C   UNL     1      34.362 -15.350 -20.539  0.00  0.00    +0.033 C 
ENDBRANCH   4   5
ENDBRANCH   1   4
BRANCH   1   8
ATOM      8  O   UNL     1      34.384 -19.677 -22.112  0.00  0.00    -0.297 OA
BRANCH   8   9
ATOM      9  C   UNL     1      34.267 -19.783 -20.705  0.00  0.00    +0.124 C 
ATOM     10  C   UNL     1      32.861 -20.242 -20.352  0.00  0.00    +0.033 C 
ATOM     11  C   UNL     1      35.324 -20.746 -20.185  0.00  0.00    +0.033 C 
ENDBRANCH   8   9
ENDBRANCH   1   8
TORSDOF 4
ENDMDL
MODEL 2
REMARK VINA RESULT:      -5.4      2.281      4.964
REMARK  Name = 3073
REMARK  4 active torsions:
REMARK  status: ('A' for Active; 'I' for Inactive)
REMARK    1  A    between atoms: P_1  and  O_4
REMARK    2  A    between atoms: P_1  and  O_8
REMARK    3  A    between atoms: O_4  and  C_5
REMARK    4  A    between atoms: O_8  and  C_9
REMARK                            x       y       z     vdW  Elec       q    Type
REMARK                         _______ _______ _______ _____ _____    ______ ____
ROOT
ATOM      1  P   UNL     1      34.205 -15.757 -21.316  0.00  0.00    +0.344 P 
ATOM      2  O   UNL     1      35.012 -15.387 -20.104  0.00  0.00    -0.258 OA
ATOM      3  C   UNL     1      32.458 -15.454 -21.135  0.00  0.00    +0.129 C 
ENDROOT
BRANCH   1   4
ATOM      4  O   UNL     1      34.328 -17.319 -21.720  0.00  0.00    -0.297 OA
BRANCH   4   5
ATOM      5  C   UNL     1      35.543 -17.849 -22.219  0.00  0.00    +0.124 C 
ATOM      6  C   UNL     1      36.164 -18.756 -21.167  0.00  0.00    +0.033 C 
ATOM      7  C   UNL     1      35.271 -18.591 -23.518  0.00  0.00    +0.033 C 
ENDBRANCH   4   5
ENDBRANCH   1   4
BRANCH   1   8
ATOM      8  O   UNL     1      34.629 -14.974 -22.668  0.00  0.00    -0.297 OA
BRANCH   8   9
ATOM      9  C   UNL     1      33.621 -14.593 -23.586  0.00  0.00    +0.124 C 
ATOM     10  C   UNL     1      33.769 -13.114 -23.909  0.00  0.00    +0.033 C 
ATOM     11  C   UNL     1      33.727 -15.459 -24.834  0.00  0.00    +0.033 C 
ENDBRANCH   8   9
ENDBRANCH   1   8
TORSDOF 4
ENDMDL
MODEL 3
REMARK VINA RESULT:      -5.2      1.626      3.948
REMARK  Name = 3073
REMARK  4 active torsions:
REMARK  status: ('A' for Active; 'I' for Inactive)
REMARK    1  A    between atoms: P_1  and  O_4
REMARK    2  A    between atoms: P_1  and  O_8
REMARK    3  A    between atoms: O_4  and  C_5
REMARK    4  A    between atoms: O_8  and  C_9
REMARK                            x       y       z     vdW  Elec       q    Type
REMARK                         _______ _______ _______ _____ _____    ______ ____
ROOT
ATOM      1  P   UNL     1      35.223 -17.922 -21.381  0.00  0.00    +0.344 P 
ATOM      2  O   UNL     1      36.273 -18.629 -20.572  0.00  0.00    -0.258 OA
ATOM      3  C   UNL     1      33.624 -18.709 -21.327  0.00  0.00    +0.129 C 
ENDROOT
BRANCH   1   4
ATOM      4  O   UNL     1      35.589 -17.807 -22.953  0.00  0.00    -0.297 OA
BRANCH   4   5
ATOM      5  C   UNL     1      34.637 -18.139 -23.948  0.00  0.00    +0.124 C 
ATOM      6  C   UNL     1      34.686 -17.096 -25.056  0.00  0.00    +0.033 C 
ATOM      7  C   UNL     1      34.927 -19.537 -24.473  0.00  0.00    +0.033 C 
ENDBRANCH   4   5
ENDBRANCH   1   4
BRANCH   1   8
ATOM      8  O   UNL     1      34.952 -16.390 -20.934  0.00  0.00    -0.297 OA
BRANCH   8   9
ATOM      9  C   UNL     1      33.866 -15.687 -21.512  0.00  0.00    +0.124 C 
ATOM     10  C   UNL     1      32.957 -15.172 -20.407  0.00  0.00    +0.033 C 
ATOM     11  C   UNL     1      34.405 -14.556 -22.376  0.00  0.00    +0.033 C 
ENDBRANCH   8   9
ENDBRANCH   1   8
TORSDOF 4
ENDMDL
MODEL 4
REMARK VINA RESULT:      -5.2      1.560      2.531
REMARK  Name = 3073
REMARK  4 active torsions:
REMARK  status: ('A' for Active; 'I' for Inactive)
REMARK    1  A    between atoms: P_1  and  O_4
REMARK    2  A    between atoms: P_1  and  O_8
REMARK    3  A    between atoms: O_4  and  C_5
REMARK    4  A    between atoms: O_8  and  C_9
REMARK                            x       y       z     vdW  Elec       q    Type
REMARK                         _______ _______ _______ _____ _____    ______ ____
ROOT
ATOM      1  P   UNL     1      35.786 -18.574 -21.514  0.00  0.00    +0.344 P 
ATOM      2  O   UNL     1      35.364 -17.445 -20.618  0.00  0.00    -0.258 OA
ATOM      3  C   UNL     1      37.416 -19.202 -21.158  0.00  0.00    +0.129 C 
ENDROOT
BRANCH   1   4
ATOM      4  O   UNL     1      35.816 -18.176 -23.083  0.00  0.00    -0.297 OA
BRANCH   4   5
ATOM      5  C   UNL     1      34.694 -17.570 -23.701  0.00  0.00    +0.124 C 
ATOM      6  C   UNL     1      34.936 -16.072 -23.816  0.00  0.00    +0.033 C 
ATOM      7  C   UNL     1      34.462 -18.213 -25.059  0.00  0.00    +0.033 C 
ENDBRANCH   4   5
ENDBRANCH   1   4
BRANCH   1   8
ATOM      8  O   UNL     1      34.817 -19.869 -21.462  0.00  0.00    -0.297 OA
BRANCH   8   9
ATOM      9  C   UNL     1      34.226 -20.237 -20.229  0.00  0.00    +0.124 C 
ATOM     10  C   UNL     1      32.723 -20.370 -20.413  0.00  0.00    +0.033 C 
ATOM     11  C   UNL     1      34.855 -21.533 -19.739  0.00  0.00    +0.033 C 
ENDBRANCH   8   9
ENDBRANCH   1   8
TORSDOF 4
ENDMDL
MODEL 5
REMARK VINA RESULT:      -5.1     10.073     11.575
REMARK  Name = 3073
REMARK  4 active torsions:
REMARK  status: ('A' for Active; 'I' for Inactive)
REMARK    1  A    between atoms: P_1  and  O_4
REMARK    2  A    between atoms: P_1  and  O_8
REMARK    3  A    between atoms: O_4  and  C_5
REMARK    4  A    between atoms: O_8  and  C_9
REMARK                            x       y       z     vdW  Elec       q    Type
REMARK                         _______ _______ _______ _____ _____    ______ ____
ROOT
ATOM      1  P   UNL     1      35.645 -24.424 -11.797  0.00  0.00    +0.344 P 
ATOM      2  O   UNL     1      35.354 -25.075 -10.475  0.00  0.00    -0.258 OA
ATOM      3  C   UNL     1      36.766 -23.042 -11.687  0.00  0.00    +0.129 C 
ENDROOT
BRANCH   1   4
ATOM      4  O   UNL     1      34.326 -23.846 -12.535  0.00  0.00    -0.297 OA
BRANCH   4   5
ATOM      5  C   UNL     1      33.917 -24.349 -13.795  0.00  0.00    +0.124 C 
ATOM      6  C   UNL     1      32.445 -24.728 -13.729  0.00  0.00    +0.033 C 
ATOM      7  C   UNL     1      34.186 -23.300 -14.863  0.00  0.00    +0.033 C 
ENDBRANCH   4   5
ENDBRANCH   1   4
BRANCH   1   8
ATOM      8  O   UNL     1      36.303 -25.410 -12.899  0.00  0.00    -0.297 OA
BRANCH   8   9
ATOM      9  C   UNL     1      37.471 -24.995 -13.583  0.00  0.00    +0.124 C 
ATOM     10  C   UNL     1      38.674 -25.732 -13.014  0.00  0.00    +0.033 C 
ATOM     11  C   UNL     1      37.299 -25.256 -15.073  0.00  0.00    +0.033 C 
ENDBRANCH   8   9
ENDBRANCH   1   8
TORSDOF 4
ENDMDL
MODEL 6
REMARK VINA RESULT:      -5.1      1.422      4.694
REMARK  Name = 3073
REMARK  4 active torsions:
REMARK  status: ('A' for Active; 'I' for Inactive)
REMARK    1  A    between atoms: P_1  and  O_4
REMARK    2  A    between atoms: P_1  and  O_8
REMARK    3  A    between atoms: O_4  and  C_5
REMARK    4  A    between atoms: O_8  and  C_9
REMARK                            x       y       z     vdW  Elec       q    Type
REMARK                         _______ _______ _______ _____ _____    ______ ____
ROOT
ATOM      1  P   UNL     1      34.493 -18.646 -21.345  0.00  0.00    +0.344 P 
ATOM      2  O   UNL     1      33.039 -18.662 -20.970  0.00  0.00    -0.258 OA
ATOM      3  C   UNL     1      34.831 -19.360 -22.943  0.00  0.00    +0.129 C 
ENDROOT
BRANCH   1   4
ATOM      4  O   UNL     1      35.436 -19.454 -20.307  0.00  0.00    -0.297 OA
BRANCH   4   5
ATOM      5  C   UNL     1      35.400 -20.869 -20.243  0.00  0.00    +0.124 C 
ATOM      6  C   UNL     1      36.587 -21.362 -19.428  0.00  0.00    +0.033 C 
ATOM      7  C   UNL     1      34.076 -21.310 -19.640  0.00  0.00    +0.033 C 
ENDBRANCH   4   5
ENDBRANCH   1   4
BRANCH   1   8
ATOM      8  O   UNL     1      35.155 -17.169 -21.397  0.00  0.00    -0.297 OA
BRANCH   8   9
ATOM      9  C   UNL     1      34.336 -16.060 -21.722  0.00  0.00    +0.124 C 
ATOM     10  C   UNL     1      34.466 -15.006 -20.633  0.00  0.00    +0.033 C 
ATOM     11  C   UNL     1      34.742 -15.519 -23.085  0.00  0.00    +0.033 C 
ENDBRANCH   8   9
ENDBRANCH   1   8
TORSDOF 4
ENDMDL
MODEL 7
REMARK VINA RESULT:      -5.0      3.578      5.260
REMARK  Name = 3073
REMARK  4 active torsions:
REMARK  status: ('A' for Active; 'I' for Inactive)
REMARK    1  A    between atoms: P_1  and  O_4
REMARK    2  A    between atoms: P_1  and  O_8
REMARK    3  A    between atoms: O_4  and  C_5
REMARK    4  A    between atoms: O_8  and  C_9
REMARK                            x       y       z     vdW  Elec       q    Type
REMARK                         _______ _______ _______ _____ _____    ______ ____
ROOT
ATOM      1  P   UNL     1      33.217 -13.971 -24.101  0.00  0.00    +0.344 P 
ATOM      2  O   UNL     1      32.569 -14.297 -25.417  0.00  0.00    -0.258 OA
ATOM      3  C   UNL     1      33.819 -12.296 -23.993  0.00  0.00    +0.129 C 
ENDROOT
BRANCH   1   4
ATOM      4  O   UNL     1      34.492 -14.906 -23.761  0.00  0.00    -0.297 OA
BRANCH   4   5
ATOM      5  C   UNL     1      34.378 -16.318 -23.755  0.00  0.00    +0.124 C 
ATOM      6  C   UNL     1      34.797 -16.860 -25.113  0.00  0.00    +0.033 C 
ATOM      7  C   UNL     1      35.232 -16.885 -22.631  0.00  0.00    +0.033 C 
ENDBRANCH   4   5
ENDBRANCH   1   4
BRANCH   1   8
ATOM      8  O   UNL     1      32.250 -14.152 -22.815  0.00  0.00    -0.297 OA
BRANCH   8   9
ATOM      9  C   UNL     1      32.728 -13.774 -21.537  0.00  0.00    +0.124 C 
ATOM     10  C   UNL     1      31.868 -12.644 -20.994  0.00  0.00    +0.033 C 
ATOM     11  C   UNL     1      32.716 -14.988 -20.619  0.00  0.00    +0.033 C 
ENDBRANCH   8   9
ENDBRANCH   1   8
TORSDOF 4
ENDMDL
MODEL 8
REMARK VINA RESULT:      -5.0      8.520     10.736
REMARK  Name = 3073
REMARK  4 active torsions:
REMARK  status: ('A' for Active; 'I' for Inactive)
REMARK    1  A    between atoms: P_1  and  O_4
REMARK    2  A    between atoms: P_1  and  O_8
REMARK    3  A    between atoms: O_4  and  C_5
REMARK    4  A    between atoms: O_8  and  C_9
REMARK                            x       y       z     vdW  Elec       q    Type
REMARK                         _______ _______ _______ _____ _____    ______ ____
ROOT
ATOM      1  P   UNL     1      36.805 -23.739 -15.097  0.00  0.00    +0.344 P 
ATOM      2  O   UNL     1      36.179 -24.926 -15.772  0.00  0.00    -0.258 OA
ATOM      3  C   UNL     1      36.850 -22.276 -16.113  0.00  0.00    +0.129 C 
ENDROOT
BRANCH   1   4
ATOM      4  O   UNL     1      38.337 -23.991 -14.641  0.00  0.00    -0.297 OA
BRANCH   4   5
ATOM      5  C   UNL     1      38.831 -25.303 -14.440  0.00  0.00    +0.124 C 
ATOM      6  C   UNL     1      40.290 -25.360 -14.866  0.00  0.00    +0.033 C 
ATOM      7  C   UNL     1      38.650 -25.688 -12.979  0.00  0.00    +0.033 C 
ENDBRANCH   4   5
ENDBRANCH   1   4
BRANCH   1   8
ATOM      8  O   UNL     1      36.067 -23.279 -13.732  0.00  0.00    -0.297 OA
BRANCH   8   9
ATOM      9  C   UNL     1      35.304 -24.228 -13.008  0.00  0.00    +0.124 C 
ATOM     10  C   UNL     1      35.572 -24.057 -11.521  0.00  0.00    +0.033 C 
ATOM     11  C   UNL     1      33.831 -24.048 -13.344  0.00  0.00    +0.033 C 
ENDBRANCH   8   9
ENDBRANCH   1   8
TORSDOF 4
ENDMDL
MODEL 9
REMARK VINA RESULT:      -5.0      1.943      4.847
REMARK  Name = 3073
REMARK  4 active torsions:
REMARK  status: ('A' for Active; 'I' for Inactive)
REMARK    1  A    between atoms: P_1  and  O_4
REMARK    2  A    between atoms: P_1  and  O_8
REMARK    3  A    between atoms: O_4  and  C_5
REMARK    4  A    between atoms: O_8  and  C_9
REMARK                            x       y       z     vdW  Elec       q    Type
REMARK                         _______ _______ _______ _____ _____    ______ ____
ROOT
ATOM      1  P   UNL     1      35.029 -19.369 -21.150  0.00  0.00    +0.344 P 
ATOM      2  O   UNL     1      35.768 -18.264 -20.450  0.00  0.00    -0.258 OA
ATOM      3  C   UNL     1      33.264 -19.320 -20.907  0.00  0.00    +0.129 C 
ENDROOT
BRANCH   1   4
ATOM      4  O   UNL     1      35.484 -20.848 -20.678  0.00  0.00    -0.297 OA
BRANCH   4   5
ATOM      5  C   UNL     1      35.227 -21.304 -19.362  0.00  0.00    +0.124 C 
ATOM      6  C   UNL     1      34.356 -22.550 -19.424  0.00  0.00    +0.033 C 
ATOM      7  C   UNL     1      36.548 -21.571 -18.657  0.00  0.00    +0.033 C 
ENDBRANCH   4   5
ENDBRANCH   1   4
BRANCH   1   8
ATOM      8  O   UNL     1      35.231 -19.397 -22.756  0.00  0.00    -0.297 OA
BRANCH   8   9
ATOM      9  C   UNL     1      34.499 -18.486 -23.557  0.00  0.00    +0.124 C 
ATOM     10  C   UNL     1      35.186 -17.130 -23.529  0.00  0.00    +0.033 C 
ATOM     11  C   UNL     1      34.390 -19.038 -24.971  0.00  0.00    +0.033 C 
ENDBRANCH   8   9
ENDBRANCH   1   8
TORSDOF 4
ENDMDL
