MODEL 1
REMARK VINA RESULT:      -8.6      0.000      0.000
REMARK  Name = 124088
REMARK  3 active torsions:
REMARK  status: ('A' for Active; 'I' for Inactive)
REMARK    1  A    between atoms: N_1  and  C_15
REMARK    2  A    between atoms: C_17  and  C_18
REMARK    3  A    between atoms: C_18  and  O_19
REMARK                            x       y       z     vdW  Elec       q    Type
REMARK                         _______ _______ _______ _____ _____    ______ ____
ROOT
ATOM      1  N   UNL     1      34.623 -20.002 -20.732  0.00  0.00    -0.236 N 
ATOM      2  N   UNL     1      32.708 -21.025 -20.196  0.00  0.00    -0.240 NA
ATOM      3  N   UNL     1      36.109 -21.048 -19.118  0.00  0.00    -0.311 NA
ATOM      4  N   UNL     1      34.917 -22.652 -17.716  0.00  0.00    -0.312 NA
ATOM      5  N   UNL     1      37.211 -22.258 -17.445  0.00  0.00    -0.283 N 
ATOM      6  C   UNL     1      34.916 -20.855 -19.700  0.00  0.00    +0.221 C 
ATOM      7  C   UNL     1      33.281 -20.144 -20.989  0.00  0.00    +0.224 C 
ATOM      8  C   UNL     1      33.719 -21.477 -19.385  0.00  0.00    +0.167 C 
ATOM      9  C   UNL     1      33.746 -22.407 -18.350  0.00  0.00    +0.212 C 
ATOM     10  C   UNL     1      36.011 -21.968 -18.133  0.00  0.00    +0.199 C 
ATOM     11  H   UNL     1      38.045 -21.798 -17.695  0.00  0.00    +0.156 HD
ATOM     12  H   UNL     1      37.213 -22.920 -16.715  0.00  0.00    +0.156 HD
ATOM     13  N   UNL     1      32.578 -23.086 -17.963  0.00  0.00    -0.331 N 
ATOM     14  H   UNL     1      32.608 -23.742 -17.230  0.00  0.00    +0.145 HD
ATOM     15  H   UNL     1      31.727 -22.905 -18.426  0.00  0.00    +0.145 HD
ENDROOT
BRANCH   1  18
ATOM     16  O   UNL     1      35.584 -17.858 -20.736  0.00  0.00    -0.309 OA
ATOM     17  O   UNL     1      34.512 -17.532 -22.784  0.00  0.00    -0.324 OA
ATOM     18  C   UNL     1      35.550 -19.111 -21.428  0.00  0.00    +0.228 C 
ATOM     19  C   UNL     1      35.186 -18.787 -22.865  0.00  0.00    +0.196 C 
ATOM     20  C   UNL     1      35.139 -16.879 -21.677  0.00  0.00    +0.267 C 
BRANCH  20  21
ATOM     21  C   UNL     1      34.173 -15.918 -21.018  0.00  0.00    +0.199 C 
BRANCH  21  22
ATOM     22  O   UNL     1      34.910 -14.987 -20.241  0.00  0.00    -0.377 OA
ATOM     23  H   UNL     1      34.407 -14.764 -19.442  0.00  0.00    +0.211 HD
ENDBRANCH  21  22
ENDBRANCH  20  21
ENDBRANCH   1  18
TORSDOF 3
ENDMDL
MODEL 2
REMARK VINA RESULT:      -8.4      5.799      8.008
REMARK  Name = 124088
REMARK  3 active torsions:
REMARK  status: ('A' for Active; 'I' for Inactive)
REMARK    1  A    between atoms: N_1  and  C_15
REMARK    2  A    between atoms: C_17  and  C_18
REMARK    3  A    between atoms: C_18  and  O_19
REMARK                            x       y       z     vdW  Elec       q    Type
REMARK                         _______ _______ _______ _____ _____    ______ ____
ROOT
ATOM      1  N   UNL     1      35.010 -24.003 -15.156  0.00  0.00    -0.236 N 
ATOM      2  N   UNL     1      33.075 -24.011 -14.034  0.00  0.00    -0.240 NA
ATOM      3  N   UNL     1      34.231 -23.179 -17.306  0.00  0.00    -0.311 NA
ATOM      4  N   UNL     1      31.828 -22.754 -17.282  0.00  0.00    -0.312 NA
ATOM      5  N   UNL     1      33.118 -22.374 -19.201  0.00  0.00    -0.283 N 
ATOM      6  C   UNL     1      34.055 -23.553 -16.029  0.00  0.00    +0.221 C 
ATOM      7  C   UNL     1      34.365 -24.264 -13.970  0.00  0.00    +0.224 C 
ATOM      8  C   UNL     1      32.868 -23.566 -15.316  0.00  0.00    +0.167 C 
ATOM      9  C   UNL     1      31.724 -23.147 -15.990  0.00  0.00    +0.212 C 
ATOM     10  C   UNL     1      33.057 -22.794 -17.851  0.00  0.00    +0.199 C 
ATOM     11  H   UNL     1      33.979 -22.377 -19.678  0.00  0.00    +0.156 HD
ATOM     12  H   UNL     1      32.299 -22.079 -19.662  0.00  0.00    +0.156 HD
ATOM     13  N   UNL     1      30.476 -23.127 -15.343  0.00  0.00    -0.331 N 
ATOM     14  H   UNL     1      29.674 -22.828 -15.829  0.00  0.00    +0.145 HD
ATOM     15  H   UNL     1      30.404 -23.412 -14.403  0.00  0.00    +0.145 HD
ENDROOT
BRANCH   1  18
ATOM     16  O   UNL     1      36.898 -25.328 -14.711  0.00  0.00    -0.309 OA
ATOM     17  O   UNL     1      37.821 -23.434 -13.706  0.00  0.00    -0.324 OA
ATOM     18  C   UNL     1      36.437 -24.175 -15.423  0.00  0.00    +0.228 C 
ATOM     19  C   UNL     1      37.326 -23.026 -14.981  0.00  0.00    +0.196 C 
ATOM     20  C   UNL     1      37.905 -24.857 -13.812  0.00  0.00    +0.267 C 
BRANCH  20  21
ATOM     21  C   UNL     1      37.733 -25.497 -12.451  0.00  0.00    +0.199 C 
BRANCH  21  22
ATOM     22  O   UNL     1      36.840 -26.593 -12.568  0.00  0.00    -0.377 OA
ATOM     23  H   UNL     1      36.794 -26.874 -13.496  0.00  0.00    +0.211 HD
ENDBRANCH  21  22
ENDBRANCH  20  21
ENDBRANCH   1  18
TORSDOF 3
ENDMDL
MODEL 3
REMARK VINA RESULT:      -8.3      5.775      8.091
REMARK  Name = 124088
REMARK  3 active torsions:
REMARK  status: ('A' for Active; 'I' for Inactive)
REMARK    1  A    between atoms: N_1  and  C_15
REMARK    2  A    between atoms: C_17  and  C_18
REMARK    3  A    between atoms: C_18  and  O_19
REMARK                            x       y       z     vdW  Elec       q    Type
REMARK                         _______ _______ _______ _____ _____    ______ ____
ROOT
ATOM      1  N   UNL     1      34.645 -23.662 -14.668  0.00  0.00    -0.236 N 
ATOM      2  N   UNL     1      32.654 -23.949 -13.691  0.00  0.00    -0.240 NA
ATOM      3  N   UNL     1      33.916 -22.956 -16.877  0.00  0.00    -0.311 NA
ATOM      4  N   UNL     1      31.482 -22.880 -17.032  0.00  0.00    -0.312 NA
ATOM      5  N   UNL     1      32.841 -22.317 -18.855  0.00  0.00    -0.283 N 
ATOM      6  C   UNL     1      33.702 -23.353 -15.613  0.00  0.00    +0.221 C 
ATOM      7  C   UNL     1      33.959 -24.015 -13.531  0.00  0.00    +0.224 C 
ATOM      8  C   UNL     1      32.480 -23.537 -14.989  0.00  0.00    +0.167 C 
ATOM      9  C   UNL     1      31.341 -23.284 -15.747  0.00  0.00    +0.212 C 
ATOM     10  C   UNL     1      32.743 -22.743 -17.510  0.00  0.00    +0.199 C 
ATOM     11  H   UNL     1      33.726 -22.196 -19.269  0.00  0.00    +0.156 HD
ATOM     12  H   UNL     1      32.025 -22.141 -19.378  0.00  0.00    +0.156 HD
ATOM     13  N   UNL     1      30.059 -23.444 -15.194  0.00  0.00    -0.331 N 
ATOM     14  H   UNL     1      29.260 -23.263 -15.739  0.00  0.00    +0.145 HD
ATOM     15  H   UNL     1      29.959 -23.739 -14.259  0.00  0.00    +0.145 HD
ENDROOT
BRANCH   1  18
ATOM     16  O   UNL     1      36.494 -24.748 -15.628  0.00  0.00    -0.309 OA
ATOM     17  O   UNL     1      37.242 -25.106 -13.446  0.00  0.00    -0.324 OA
ATOM     18  C   UNL     1      36.098 -23.628 -14.830  0.00  0.00    +0.228 C 
ATOM     19  C   UNL     1      36.898 -23.725 -13.544  0.00  0.00    +0.196 C 
ATOM     20  C   UNL     1      37.371 -25.523 -14.807  0.00  0.00    +0.267 C 
BRANCH  20  21
ATOM     21  C   UNL     1      37.049 -26.996 -14.939  0.00  0.00    +0.199 C 
BRANCH  21  22
ATOM     22  O   UNL     1      36.852 -27.302 -16.311  0.00  0.00    -0.377 OA
ATOM     23  H   UNL     1      36.108 -27.917 -16.401  0.00  0.00    +0.211 HD
ENDBRANCH  21  22
ENDBRANCH  20  21
ENDBRANCH   1  18
TORSDOF 3
ENDMDL
MODEL 4
REMARK VINA RESULT:      -8.3      6.559      8.746
REMARK  Name = 124088
REMARK  3 active torsions:
REMARK  status: ('A' for Active; 'I' for Inactive)
REMARK    1  A    between atoms: N_1  and  C_15
REMARK    2  A    between atoms: C_17  and  C_18
REMARK    3  A    between atoms: C_18  and  O_19
REMARK                            x       y       z     vdW  Elec       q    Type
REMARK                         _______ _______ _______ _____ _____    ______ ____
ROOT
ATOM      1  N   UNL     1      36.348 -23.966 -14.523  0.00  0.00    -0.236 N 
ATOM      2  N   UNL     1      35.938 -23.053 -16.523  0.00  0.00    -0.240 NA
ATOM      3  N   UNL     1      34.074 -24.477 -13.834  0.00  0.00    -0.311 NA
ATOM      4  N   UNL     1      32.455 -23.805 -15.532  0.00  0.00    -0.312 NA
ATOM      5  N   UNL     1      31.778 -24.811 -13.527  0.00  0.00    -0.283 N 
ATOM      6  C   UNL     1      34.988 -23.997 -14.691  0.00  0.00    +0.221 C 
ATOM      7  C   UNL     1      36.870 -23.387 -15.655  0.00  0.00    +0.224 C 
ATOM      8  C   UNL     1      34.757 -23.428 -15.932  0.00  0.00    +0.167 C 
ATOM      9  C   UNL     1      33.432 -23.340 -16.346  0.00  0.00    +0.212 C 
ATOM     10  C   UNL     1      32.831 -24.337 -14.344  0.00  0.00    +0.199 C 
ATOM     11  H   UNL     1      31.978 -25.211 -12.650  0.00  0.00    +0.156 HD
ATOM     12  H   UNL     1      30.845 -24.742 -13.836  0.00  0.00    +0.156 HD
ATOM     13  N   UNL     1      33.104 -22.777 -17.592  0.00  0.00    -0.331 N 
ATOM     14  H   UNL     1      32.164 -22.720 -17.875  0.00  0.00    +0.145 HD
ATOM     15  H   UNL     1      33.817 -22.439 -18.183  0.00  0.00    +0.145 HD
ENDROOT
BRANCH   1  18
ATOM     16  O   UNL     1      38.489 -24.143 -13.571  0.00  0.00    -0.309 OA
ATOM     17  O   UNL     1      38.224 -26.456 -13.742  0.00  0.00    -0.324 OA
ATOM     18  C   UNL     1      37.105 -24.451 -13.370  0.00  0.00    +0.228 C 
ATOM     19  C   UNL     1      37.039 -25.948 -13.130  0.00  0.00    +0.196 C 
ATOM     20  C   UNL     1      39.172 -25.399 -13.579  0.00  0.00    +0.267 C 
BRANCH  20  21
ATOM     21  C   UNL     1      40.194 -25.432 -14.696  0.00  0.00    +0.199 C 
BRANCH  21  22
ATOM     22  O   UNL     1      40.960 -26.621 -14.582  0.00  0.00    -0.377 OA
ATOM     23  H   UNL     1      40.394 -27.339 -14.259  0.00  0.00    +0.211 HD
ENDBRANCH  21  22
ENDBRANCH  20  21
ENDBRANCH   1  18
TORSDOF 3
ENDMDL
MODEL 5
REMARK VINA RESULT:      -8.1      4.214      7.224
REMARK  Name = 124088
REMARK  3 active torsions:
REMARK  status: ('A' for Active; 'I' for Inactive)
REMARK    1  A    between atoms: N_1  and  C_15
REMARK    2  A    between atoms: C_17  and  C_18
REMARK    3  A    between atoms: C_18  and  O_19
REMARK                            x       y       z     vdW  Elec       q    Type
REMARK                         _______ _______ _______ _____ _____    ______ ____
ROOT
ATOM      1  N   UNL     1      34.719 -16.601 -22.191  0.00  0.00    -0.236 N 
ATOM      2  N   UNL     1      34.185 -14.687 -21.165  0.00  0.00    -0.240 NA
ATOM      3  N   UNL     1      33.968 -16.079 -24.443  0.00  0.00    -0.311 NA
ATOM      4  N   UNL     1      33.023 -13.832 -24.571  0.00  0.00    -0.312 NA
ATOM      5  N   UNL     1      33.138 -15.219 -26.456  0.00  0.00    -0.283 N 
ATOM      6  C   UNL     1      34.161 -15.792 -23.147  0.00  0.00    +0.221 C 
ATOM      7  C   UNL     1      34.708 -15.886 -21.018  0.00  0.00    +0.224 C 
ATOM      8  C   UNL     1      33.839 -14.615 -22.492  0.00  0.00    +0.167 C 
ATOM      9  C   UNL     1      33.248 -13.612 -23.254  0.00  0.00    +0.212 C 
ATOM     10  C   UNL     1      33.391 -15.035 -25.077  0.00  0.00    +0.199 C 
ATOM     11  H   UNL     1      33.380 -16.069 -26.891  0.00  0.00    +0.156 HD
ATOM     12  H   UNL     1      32.721 -14.498 -26.981  0.00  0.00    +0.156 HD
ATOM     13  N   UNL     1      32.889 -12.385 -22.671  0.00  0.00    -0.331 N 
ATOM     14  H   UNL     1      32.473 -11.682 -23.219  0.00  0.00    +0.145 HD
ATOM     15  H   UNL     1      33.054 -12.227 -21.713  0.00  0.00    +0.145 HD
ENDROOT
BRANCH   1  18
ATOM     16  O   UNL     1      34.114 -18.856 -22.453  0.00  0.00    -0.309 OA
ATOM     17  O   UNL     1      35.223 -19.245 -20.436  0.00  0.00    -0.324 OA
ATOM     18  C   UNL     1      35.227 -17.960 -22.375  0.00  0.00    +0.228 C 
ATOM     19  C   UNL     1      36.108 -18.482 -21.255  0.00  0.00    +0.196 C 
ATOM     20  C   UNL     1      34.267 -19.767 -21.362  0.00  0.00    +0.267 C 
BRANCH  20  21
ATOM     21  C   UNL     1      32.937 -19.991 -20.675  0.00  0.00    +0.199 C 
BRANCH  21  22
ATOM     22  O   UNL     1      32.891 -21.322 -20.184  0.00  0.00    -0.377 OA
ATOM     23  H   UNL     1      33.795 -21.645 -20.045  0.00  0.00    +0.211 HD
ENDBRANCH  21  22
ENDBRANCH  20  21
ENDBRANCH   1  18
TORSDOF 3
ENDMDL
MODEL 6
REMARK VINA RESULT:      -7.7      4.526      7.184
REMARK  Name = 124088
REMARK  3 active torsions:
REMARK  status: ('A' for Active; 'I' for Inactive)
REMARK    1  A    between atoms: N_1  and  C_15
REMARK    2  A    between atoms: C_17  and  C_18
REMARK    3  A    between atoms: C_18  and  O_19
REMARK                            x       y       z     vdW  Elec       q    Type
REMARK                         _______ _______ _______ _____ _____    ______ ____
ROOT
ATOM      1  N   UNL     1      34.560 -16.134 -21.737  0.00  0.00    -0.236 N 
ATOM      2  N   UNL     1      33.362 -14.577 -20.669  0.00  0.00    -0.240 NA
ATOM      3  N   UNL     1      34.032 -15.548 -24.036  0.00  0.00    -0.311 NA
ATOM      4  N   UNL     1      32.519 -13.636 -24.145  0.00  0.00    -0.312 NA
ATOM      5  N   UNL     1      33.298 -14.690 -26.086  0.00  0.00    -0.283 N 
ATOM      6  C   UNL     1      33.943 -15.387 -22.707  0.00  0.00    +0.221 C 
ATOM      7  C   UNL     1      34.175 -15.603 -20.530  0.00  0.00    +0.224 C 
ATOM      8  C   UNL     1      33.209 -14.432 -22.025  0.00  0.00    +0.167 C 
ATOM      9  C   UNL     1      32.477 -13.533 -22.795  0.00  0.00    +0.212 C 
ATOM     10  C   UNL     1      33.283 -14.622 -24.674  0.00  0.00    +0.199 C 
ATOM     11  H   UNL     1      33.832 -15.382 -26.540  0.00  0.00    +0.156 HD
ATOM     12  H   UNL     1      32.776 -14.045 -26.617  0.00  0.00    +0.156 HD
ATOM     13  N   UNL     1      31.703 -12.530 -22.187  0.00  0.00    -0.331 N 
ATOM     14  H   UNL     1      31.190 -11.899 -22.740  0.00  0.00    +0.145 HD
ATOM     15  H   UNL     1      31.674 -12.457 -21.205  0.00  0.00    +0.145 HD
ENDROOT
BRANCH   1  18
ATOM     16  O   UNL     1      35.606 -17.490 -23.345  0.00  0.00    -0.309 OA
ATOM     17  O   UNL     1      34.360 -19.257 -22.466  0.00  0.00    -0.324 OA
ATOM     18  C   UNL     1      35.454 -17.274 -21.938  0.00  0.00    +0.228 C 
ATOM     19  C   UNL     1      34.969 -18.591 -21.361  0.00  0.00    +0.196 C 
ATOM     20  C   UNL     1      35.115 -18.810 -23.593  0.00  0.00    +0.267 C 
BRANCH  20  21
ATOM     21  C   UNL     1      34.258 -18.825 -24.841  0.00  0.00    +0.199 C 
BRANCH  21  22
ATOM     22  O   UNL     1      34.637 -17.739 -25.671  0.00  0.00    -0.377 OA
ATOM     23  H   UNL     1      33.844 -17.342 -26.066  0.00  0.00    +0.211 HD
ENDBRANCH  21  22
ENDBRANCH  20  21
ENDBRANCH   1  18
TORSDOF 3
ENDMDL
MODEL 7
REMARK VINA RESULT:      -7.7      3.834      5.479
REMARK  Name = 124088
REMARK  3 active torsions:
REMARK  status: ('A' for Active; 'I' for Inactive)
REMARK    1  A    between atoms: N_1  and  C_15
REMARK    2  A    between atoms: C_17  and  C_18
REMARK    3  A    between atoms: C_18  and  O_19
REMARK                            x       y       z     vdW  Elec       q    Type
REMARK                         _______ _______ _______ _____ _____    ______ ____
ROOT
ATOM      1  N   UNL     1      34.231 -15.574 -24.079  0.00  0.00    -0.236 N 
ATOM      2  N   UNL     1      34.087 -17.192 -25.615  0.00  0.00    -0.240 NA
ATOM      3  N   UNL     1      35.051 -16.872 -22.195  0.00  0.00    -0.311 NA
ATOM      4  N   UNL     1      35.335 -19.223 -22.787  0.00  0.00    -0.312 NA
ATOM      5  N   UNL     1      35.829 -18.436 -20.636  0.00  0.00    -0.283 N 
ATOM      6  C   UNL     1      34.642 -16.728 -23.465  0.00  0.00    +0.221 C 
ATOM      7  C   UNL     1      33.908 -15.911 -25.371  0.00  0.00    +0.224 C 
ATOM      8  C   UNL     1      34.545 -17.715 -24.432  0.00  0.00    +0.167 C 
ATOM      9  C   UNL     1      34.911 -19.003 -24.055  0.00  0.00    +0.212 C 
ATOM     10  C   UNL     1      35.379 -18.159 -21.948  0.00  0.00    +0.199 C 
ATOM     11  H   UNL     1      35.886 -17.710 -19.973  0.00  0.00    +0.156 HD
ATOM     12  H   UNL     1      36.085 -19.353 -20.386  0.00  0.00    +0.156 HD
ATOM     13  N   UNL     1      34.845 -20.066 -24.972  0.00  0.00    -0.331 N 
ATOM     14  H   UNL     1      35.107 -20.973 -24.695  0.00  0.00    +0.145 HD
ATOM     15  H   UNL     1      34.537 -19.903 -25.893  0.00  0.00    +0.145 HD
ENDROOT
BRANCH   1  18
ATOM     16  O   UNL     1      34.371 -14.357 -22.074  0.00  0.00    -0.309 OA
ATOM     17  O   UNL     1      32.129 -13.803 -22.414  0.00  0.00    -0.324 OA
ATOM     18  C   UNL     1      34.147 -14.241 -23.483  0.00  0.00    +0.228 C 
ATOM     19  C   UNL     1      32.810 -13.540 -23.640  0.00  0.00    +0.196 C 
ATOM     20  C   UNL     1      33.180 -13.874 -21.448  0.00  0.00    +0.267 C 
BRANCH  20  21
ATOM     21  C   UNL     1      32.782 -14.783 -20.304  0.00  0.00    +0.199 C 
BRANCH  21  22
ATOM     22  O   UNL     1      32.364 -16.031 -20.834  0.00  0.00    -0.377 OA
ATOM     23  H   UNL     1      32.222 -16.658 -20.108  0.00  0.00    +0.211 HD
ENDBRANCH  21  22
ENDBRANCH  20  21
ENDBRANCH   1  18
TORSDOF 3
ENDMDL
MODEL 8
REMARK VINA RESULT:      -7.7      5.228      7.903
REMARK  Name = 124088
REMARK  3 active torsions:
REMARK  status: ('A' for Active; 'I' for Inactive)
REMARK    1  A    between atoms: N_1  and  C_15
REMARK    2  A    between atoms: C_17  and  C_18
REMARK    3  A    between atoms: C_18  and  O_19
REMARK                            x       y       z     vdW  Elec       q    Type
REMARK                         _______ _______ _______ _____ _____    ______ ____
ROOT
ATOM      1  N   UNL     1      36.246 -23.391 -15.495  0.00  0.00    -0.236 N 
ATOM      2  N   UNL     1      37.650 -22.112 -16.676  0.00  0.00    -0.240 NA
ATOM      3  N   UNL     1      34.271 -23.234 -16.903  0.00  0.00    -0.311 NA
ATOM      4  N   UNL     1      34.678 -21.833 -18.859  0.00  0.00    -0.312 NA
ATOM      5  N   UNL     1      32.598 -22.848 -18.494  0.00  0.00    -0.283 N 
ATOM      6  C   UNL     1      35.545 -22.956 -16.590  0.00  0.00    +0.221 C 
ATOM      7  C   UNL     1      37.506 -22.853 -15.597  0.00  0.00    +0.224 C 
ATOM      8  C   UNL     1      36.431 -22.168 -17.305  0.00  0.00    +0.167 C 
ATOM      9  C   UNL     1      35.956 -21.595 -18.481  0.00  0.00    +0.212 C 
ATOM     10  C   UNL     1      33.925 -22.626 -18.059  0.00  0.00    +0.199 C 
ATOM     11  H   UNL     1      31.994 -23.415 -17.961  0.00  0.00    +0.156 HD
ATOM     12  H   UNL     1      32.278 -22.437 -19.330  0.00  0.00    +0.156 HD
ATOM     13  N   UNL     1      36.787 -20.781 -19.270  0.00  0.00    -0.331 N 
ATOM     14  H   UNL     1      36.441 -20.382 -20.101  0.00  0.00    +0.145 HD
ATOM     15  H   UNL     1      37.716 -20.610 -18.993  0.00  0.00    +0.145 HD
ENDROOT
BRANCH   1  18
ATOM     16  O   UNL     1      35.580 -23.467 -13.244  0.00  0.00    -0.309 OA
ATOM     17  O   UNL     1      37.392 -24.898 -12.899  0.00  0.00    -0.324 OA
ATOM     18  C   UNL     1      35.757 -24.258 -14.424  0.00  0.00    +0.228 C 
ATOM     19  C   UNL     1      36.682 -25.395 -14.032  0.00  0.00    +0.196 C 
ATOM     20  C   UNL     1      36.452 -24.031 -12.261  0.00  0.00    +0.267 C 
BRANCH  20  21
ATOM     21  C   UNL     1      37.174 -22.934 -11.509  0.00  0.00    +0.199 C 
BRANCH  21  22
ATOM     22  O   UNL     1      38.573 -23.121 -11.656  0.00  0.00    -0.377 OA
ATOM     23  H   UNL     1      39.009 -22.977 -10.801  0.00  0.00    +0.211 HD
ENDBRANCH  21  22
ENDBRANCH  20  21
ENDBRANCH   1  18
TORSDOF 3
ENDMDL
MODEL 9
REMARK VINA RESULT:      -7.7      4.927      6.977
REMARK  Name = 124088
REMARK  3 active torsions:
REMARK  status: ('A' for Active; 'I' for Inactive)
REMARK    1  A    between atoms: N_1  and  C_15
REMARK    2  A    between atoms: C_17  and  C_18
REMARK    3  A    between atoms: C_18  and  O_19
REMARK                            x       y       z     vdW  Elec       q    Type
REMARK                         _______ _______ _______ _____ _____    ______ ____
ROOT
ATOM      1  N   UNL     1      33.848 -23.973 -14.440  0.00  0.00    -0.236 N 
ATOM      2  N   UNL     1      31.634 -23.662 -14.385  0.00  0.00    -0.240 NA
ATOM      3  N   UNL     1      34.292 -23.327 -16.740  0.00  0.00    -0.311 NA
ATOM      4  N   UNL     1      32.246 -22.666 -17.894  0.00  0.00    -0.312 NA
ATOM      5  N   UNL     1      34.323 -22.638 -18.977  0.00  0.00    -0.283 N 
ATOM      6  C   UNL     1      33.487 -23.533 -15.687  0.00  0.00    +0.221 C 
ATOM      7  C   UNL     1      32.693 -24.032 -13.697  0.00  0.00    +0.224 C 
ATOM      8  C   UNL     1      32.116 -23.347 -15.631  0.00  0.00    +0.167 C 
ATOM      9  C   UNL     1      31.495 -22.896 -16.791  0.00  0.00    +0.212 C 
ATOM     10  C   UNL     1      33.579 -22.893 -17.802  0.00  0.00    +0.199 C 
ATOM     11  H   UNL     1      35.297 -22.780 -18.982  0.00  0.00    +0.156 HD
ATOM     12  H   UNL     1      33.868 -22.317 -19.789  0.00  0.00    +0.156 HD
ATOM     13  N   UNL     1      30.106 -22.679 -16.824  0.00  0.00    -0.331 N 
ATOM     14  H   UNL     1      29.677 -22.360 -17.650  0.00  0.00    +0.145 HD
ATOM     15  H   UNL     1      29.562 -22.847 -16.020  0.00  0.00    +0.145 HD
ENDROOT
BRANCH   1  18
ATOM     16  O   UNL     1      36.002 -23.134 -14.022  0.00  0.00    -0.309 OA
ATOM     17  O   UNL     1      36.742 -24.584 -15.695  0.00  0.00    -0.324 OA
ATOM     18  C   UNL     1      35.193 -24.315 -13.981  0.00  0.00    +0.228 C 
ATOM     19  C   UNL     1      35.922 -25.352 -14.815  0.00  0.00    +0.196 C 
ATOM     20  C   UNL     1      37.068 -23.422 -14.930  0.00  0.00    +0.267 C 
BRANCH  20  21
ATOM     21  C   UNL     1      37.310 -22.240 -15.846  0.00  0.00    +0.199 C 
BRANCH  21  22
ATOM     22  O   UNL     1      37.030 -22.629 -17.181  0.00  0.00    -0.377 OA
ATOM     23  H   UNL     1      37.510 -23.446 -17.387  0.00  0.00    +0.211 HD
ENDBRANCH  21  22
ENDBRANCH  20  21
ENDBRANCH   1  18
TORSDOF 3
ENDMDL
