MODEL 1
REMARK VINA RESULT:      -8.0      0.000      0.000
REMARK  Name = 64139
REMARK  3 active torsions:
REMARK  status: ('A' for Active; 'I' for Inactive)
REMARK    1  A    between atoms: C_5  and  C_17
REMARK    2  A    between atoms: C_5  and  C_19
REMARK    3  A    between atoms: C_18  and  C_20
REMARK                            x       y       z     vdW  Elec       q    Type
REMARK                         _______ _______ _______ _____ _____    ______ ____
ROOT
ATOM      1 CL   UNL     1      36.800 -22.530 -10.405  0.00  0.00    -0.082 Cl
ATOM      2  O   UNL     1      35.369 -25.859 -15.777  0.00  0.00    -0.417 OA
ATOM      3  O   UNL     1      36.585 -27.570 -16.599  0.00  0.00    -0.226 OA
ATOM      4  N   UNL     1      37.322 -26.556 -14.689  0.00  0.00    -0.250 N 
ATOM      5  C   UNL     1      35.192 -24.701 -14.911  0.00  0.00    +0.296 C 
ATOM      6  C   UNL     1      36.141 -24.680 -13.735  0.00  0.00    +0.048 C 
ATOM      7  C   UNL     1      37.184 -25.602 -13.678  0.00  0.00    +0.054 C 
ATOM      8  C   UNL     1      36.036 -23.724 -12.709  0.00  0.00    +0.013 C 
ATOM      9  C   UNL     1      38.105 -25.585 -12.624  0.00  0.00    +0.015 C 
ATOM     10  C   UNL     1      36.440 -26.703 -15.739  0.00  0.00    +0.407 C 
ATOM     11  C   UNL     1      36.948 -23.707 -11.652  0.00  0.00    +0.058 C 
ATOM     12  C   UNL     1      37.983 -24.639 -11.611  0.00  0.00    +0.013 C 
ATOM     13  H   UNL     1      38.098 -27.161 -14.649  0.00  0.00    +0.158 HD
ENDROOT
BRANCH   5  17
ATOM     14  F   UNL     1      35.080 -22.362 -15.147  0.00  0.00    -0.165 F 
ATOM     15  F   UNL     1      36.724 -23.403 -16.138  0.00  0.00    -0.165 F 
ATOM     16  F   UNL     1      34.692 -23.579 -16.918  0.00  0.00    -0.165 F 
ATOM     17  C   UNL     1      35.429 -23.476 -15.805  0.00  0.00    +0.446 C 
ENDBRANCH   5  17
BRANCH   5  19
ATOM     18  C   UNL     1      32.640 -24.742 -14.101  0.00  0.00    -0.088 C 
ATOM     19  C   UNL     1      33.785 -24.724 -14.464  0.00  0.00    -0.040 C 
BRANCH  18  20
ATOM     20  C   UNL     1      31.268 -24.762 -13.664  0.00  0.00    +0.064 C 
ATOM     21  C   UNL     1      30.220 -25.247 -14.616  0.00  0.00    +0.014 C 
ATOM     22  C   UNL     1      30.306 -23.790 -14.272  0.00  0.00    +0.014 C 
ENDBRANCH  18  20
ENDBRANCH   5  19
TORSDOF 3
ENDMDL
MODEL 2
REMARK VINA RESULT:      -6.8      3.166      4.365
REMARK  Name = 64139
REMARK  3 active torsions:
REMARK  status: ('A' for Active; 'I' for Inactive)
REMARK    1  A    between atoms: C_5  and  C_17
REMARK    2  A    between atoms: C_5  and  C_19
REMARK    3  A    between atoms: C_18  and  C_20
REMARK                            x       y       z     vdW  Elec       q    Type
REMARK                         _______ _______ _______ _____ _____    ______ ____
ROOT
ATOM      1 CL   UNL     1      34.446 -22.484 -19.470  0.00  0.00    -0.082 Cl
ATOM      2  O   UNL     1      36.119 -23.656 -13.321  0.00  0.00    -0.417 OA
ATOM      3  O   UNL     1      37.911 -22.771 -12.278  0.00  0.00    -0.226 OA
ATOM      4  N   UNL     1      37.556 -22.202 -14.463  0.00  0.00    -0.250 N 
ATOM      5  C   UNL     1      35.351 -23.979 -14.515  0.00  0.00    +0.296 C 
ATOM      6  C   UNL     1      35.704 -23.120 -15.708  0.00  0.00    +0.048 C 
ATOM      7  C   UNL     1      36.808 -22.272 -15.640  0.00  0.00    +0.054 C 
ATOM      8  C   UNL     1      34.979 -23.179 -16.911  0.00  0.00    +0.013 C 
ATOM      9  C   UNL     1      37.188 -21.493 -16.739  0.00  0.00    +0.015 C 
ATOM     10  C   UNL     1      37.238 -22.877 -13.303  0.00  0.00    +0.407 C 
ATOM     11  C   UNL     1      35.350 -22.398 -18.008  0.00  0.00    +0.058 C 
ATOM     12  C   UNL     1      36.455 -21.556 -17.921  0.00  0.00    +0.013 C 
ATOM     13  H   UNL     1      38.361 -21.634 -14.461  0.00  0.00    +0.158 HD
ENDROOT
BRANCH   5  17
ATOM     14  F   UNL     1      36.662 -25.537 -15.694  0.00  0.00    -0.165 F 
ATOM     15  F   UNL     1      36.001 -26.083 -13.686  0.00  0.00    -0.165 F 
ATOM     16  F   UNL     1      34.569 -26.042 -15.334  0.00  0.00    -0.165 F 
ATOM     17  C   UNL     1      35.654 -25.453 -14.816  0.00  0.00    +0.446 C 
ENDBRANCH   5  17
BRANCH   5  19
ATOM     18  C   UNL     1      32.770 -23.709 -13.854  0.00  0.00    -0.088 C 
ATOM     19  C   UNL     1      33.927 -23.831 -14.151  0.00  0.00    -0.040 C 
BRANCH  18  20
ATOM     20  C   UNL     1      31.382 -23.563 -13.499  0.00  0.00    +0.064 C 
ATOM     21  C   UNL     1      30.392 -24.536 -14.061  0.00  0.00    +0.014 C 
ATOM     22  C   UNL     1      30.415 -23.118 -14.551  0.00  0.00    +0.014 C 
ENDBRANCH  18  20
ENDBRANCH   5  19
TORSDOF 3
ENDMDL
MODEL 3
REMARK VINA RESULT:      -6.7      8.844     10.703
REMARK  Name = 64139
REMARK  3 active torsions:
REMARK  status: ('A' for Active; 'I' for Inactive)
REMARK    1  A    between atoms: C_5  and  C_17
REMARK    2  A    between atoms: C_5  and  C_19
REMARK    3  A    between atoms: C_18  and  C_20
REMARK                            x       y       z     vdW  Elec       q    Type
REMARK                         _______ _______ _______ _____ _____    ______ ____
ROOT
ATOM      1 CL   UNL     1      34.592 -20.532 -26.011  0.00  0.00    -0.082 Cl
ATOM      2  O   UNL     1      35.190 -17.534 -20.298  0.00  0.00    -0.417 OA
ATOM      3  O   UNL     1      34.978 -15.312 -19.976  0.00  0.00    -0.226 OA
ATOM      4  N   UNL     1      34.732 -16.113 -22.103  0.00  0.00    -0.250 N 
ATOM      5  C   UNL     1      35.371 -18.702 -21.148  0.00  0.00    +0.296 C 
ATOM      6  C   UNL     1      34.986 -18.462 -22.591  0.00  0.00    +0.048 C 
ATOM      7  C   UNL     1      34.696 -17.168 -23.017  0.00  0.00    +0.054 C 
ATOM      8  C   UNL     1      34.954 -19.502 -23.537  0.00  0.00    +0.013 C 
ATOM      9  C   UNL     1      34.376 -16.903 -24.353  0.00  0.00    +0.015 C 
ATOM     10  C   UNL     1      34.976 -16.266 -20.754  0.00  0.00    +0.407 C 
ATOM     11  C   UNL     1      34.628 -19.244 -24.870  0.00  0.00    +0.058 C 
ATOM     12  C   UNL     1      34.339 -17.944 -25.277  0.00  0.00    +0.013 C 
ATOM     13  H   UNL     1      34.574 -15.202 -22.443  0.00  0.00    +0.158 HD
ENDROOT
BRANCH   5  17
ATOM     14  F   UNL     1      37.025 -20.374 -21.244  0.00  0.00    -0.165 F 
ATOM     15  F   UNL     1      37.549 -18.387 -21.983  0.00  0.00    -0.165 F 
ATOM     16  F   UNL     1      37.325 -18.731 -19.838  0.00  0.00    -0.165 F 
ATOM     17  C   UNL     1      36.861 -19.058 -21.050  0.00  0.00    +0.446 C 
ENDBRANCH   5  17
BRANCH   5  19
ATOM     18  C   UNL     1      33.906 -20.664 -20.064  0.00  0.00    -0.088 C 
ATOM     19  C   UNL     1      34.563 -19.784 -20.551  0.00  0.00    -0.040 C 
BRANCH  18  20
ATOM     20  C   UNL     1      33.120 -21.720 -19.481  0.00  0.00    +0.064 C 
ATOM     21  C   UNL     1      33.555 -22.298 -18.170  0.00  0.00    +0.014 C 
ATOM     22  C   UNL     1      33.695 -23.101 -19.430  0.00  0.00    +0.014 C 
ENDBRANCH  18  20
ENDBRANCH   5  19
TORSDOF 3
ENDMDL
MODEL 4
REMARK VINA RESULT:      -6.3     16.502     18.157
REMARK  Name = 64139
REMARK  3 active torsions:
REMARK  status: ('A' for Active; 'I' for Inactive)
REMARK    1  A    between atoms: C_5  and  C_17
REMARK    2  A    between atoms: C_5  and  C_19
REMARK    3  A    between atoms: C_18  and  C_20
REMARK                            x       y       z     vdW  Elec       q    Type
REMARK                         _______ _______ _______ _____ _____    ______ ____
ROOT
ATOM      1 CL   UNL     1      31.616 -13.717 -20.960  0.00  0.00    -0.082 Cl
ATOM      2  O   UNL     1      32.640  -7.399 -21.968  0.00  0.00    -0.417 OA
ATOM      3  O   UNL     1      32.554  -5.806 -20.375  0.00  0.00    -0.226 OA
ATOM      4  N   UNL     1      32.138  -7.965 -19.752  0.00  0.00    -0.250 N 
ATOM      5  C   UNL     1      32.370  -8.741 -22.466  0.00  0.00    +0.296 C 
ATOM      6  C   UNL     1      32.146  -9.756 -21.369  0.00  0.00    +0.048 C 
ATOM      7  C   UNL     1      32.023  -9.324 -20.050  0.00  0.00    +0.054 C 
ATOM      8  C   UNL     1      32.013 -11.129 -21.639  0.00  0.00    +0.013 C 
ATOM      9  C   UNL     1      31.776 -10.232 -19.014  0.00  0.00    +0.015 C 
ATOM     10  C   UNL     1      32.440  -6.992 -20.682  0.00  0.00    +0.407 C 
ATOM     11  C   UNL     1      31.773 -12.040 -20.608  0.00  0.00    +0.058 C 
ATOM     12  C   UNL     1      31.655 -11.590 -19.295  0.00  0.00    +0.013 C 
ATOM     13  H   UNL     1      31.994  -7.683 -18.819  0.00  0.00    +0.158 HD
ENDROOT
BRANCH   5  17
ATOM     14  F   UNL     1      30.255  -9.602 -23.037  0.00  0.00    -0.165 F 
ATOM     15  F   UNL     1      30.518  -7.435 -23.103  0.00  0.00    -0.165 F 
ATOM     16  F   UNL     1      31.443  -8.694 -24.628  0.00  0.00    -0.165 F 
ATOM     17  C   UNL     1      31.110  -8.614 -23.335  0.00  0.00    +0.446 C 
ENDBRANCH   5  17
BRANCH   5  19
ATOM     18  C   UNL     1      34.456  -9.414 -24.003  0.00  0.00    -0.088 C 
ATOM     19  C   UNL     1      33.520  -9.112 -23.314  0.00  0.00    -0.040 C 
BRANCH  18  20
ATOM     20  C   UNL     1      35.579  -9.777 -24.829  0.00  0.00    +0.064 C 
ATOM     21  C   UNL     1      35.625  -9.274 -26.238  0.00  0.00    +0.014 C 
ATOM     22  C   UNL     1      35.357 -10.724 -25.966  0.00  0.00    +0.014 C 
ENDBRANCH  18  20
ENDBRANCH   5  19
TORSDOF 3
ENDMDL
MODEL 5
REMARK VINA RESULT:      -5.8      4.775      6.259
REMARK  Name = 64139
REMARK  3 active torsions:
REMARK  status: ('A' for Active; 'I' for Inactive)
REMARK    1  A    between atoms: C_5  and  C_17
REMARK    2  A    between atoms: C_5  and  C_19
REMARK    3  A    between atoms: C_18  and  C_20
REMARK                            x       y       z     vdW  Elec       q    Type
REMARK                         _______ _______ _______ _____ _____    ______ ____
ROOT
ATOM      1 CL   UNL     1      33.813 -23.487 -18.995  0.00  0.00    -0.082 Cl
ATOM      2  O   UNL     1      30.111 -23.442 -13.677  0.00  0.00    -0.417 OA
ATOM      3  O   UNL     1      30.862 -23.080 -11.583  0.00  0.00    -0.226 OA
ATOM      4  N   UNL     1      32.387 -23.055 -13.285  0.00  0.00    -0.250 N 
ATOM      5  C   UNL     1      30.315 -23.758 -15.084  0.00  0.00    +0.296 C 
ATOM      6  C   UNL     1      31.721 -23.481 -15.565  0.00  0.00    +0.048 C 
ATOM      7  C   UNL     1      32.710 -23.154 -14.640  0.00  0.00    +0.054 C 
ATOM      8  C   UNL     1      32.080 -23.585 -16.920  0.00  0.00    +0.013 C 
ATOM      9  C   UNL     1      34.031 -22.930 -15.044  0.00  0.00    +0.015 C 
ATOM     10  C   UNL     1      31.110 -23.195 -12.782  0.00  0.00    +0.407 C 
ATOM     11  C   UNL     1      33.395 -23.356 -17.330  0.00  0.00    +0.058 C 
ATOM     12  C   UNL     1      34.371 -23.029 -16.392  0.00  0.00    +0.013 C 
ATOM     13  H   UNL     1      33.116 -22.875 -12.648  0.00  0.00    +0.158 HD
ENDROOT
BRANCH   5  17
ATOM     14  F   UNL     1      29.919 -25.580 -16.520  0.00  0.00    -0.165 F 
ATOM     15  F   UNL     1      30.957 -25.979 -14.641  0.00  0.00    -0.165 F 
ATOM     16  F   UNL     1      28.822 -25.520 -14.633  0.00  0.00    -0.165 F 
ATOM     17  C   UNL     1      29.993 -25.253 -15.223  0.00  0.00    +0.446 C 
ENDBRANCH   5  17
BRANCH   5  19
ATOM     18  C   UNL     1      28.518 -22.322 -16.454  0.00  0.00    -0.088 C 
ATOM     19  C   UNL     1      29.324 -22.966 -15.840  0.00  0.00    -0.040 C 
BRANCH  18  20
ATOM     20  C   UNL     1      27.551 -21.551 -17.192  0.00  0.00    +0.064 C 
ATOM     21  C   UNL     1      26.102 -21.697 -16.846  0.00  0.00    +0.014 C 
ATOM     22  C   UNL     1      26.629 -22.263 -18.131  0.00  0.00    +0.014 C 
ENDBRANCH  18  20
ENDBRANCH   5  19
TORSDOF 3
ENDMDL
MODEL 6
REMARK VINA RESULT:      -5.6      2.799      4.649
REMARK  Name = 64139
REMARK  3 active torsions:
REMARK  status: ('A' for Active; 'I' for Inactive)
REMARK    1  A    between atoms: C_5  and  C_17
REMARK    2  A    between atoms: C_5  and  C_19
REMARK    3  A    between atoms: C_18  and  C_20
REMARK                            x       y       z     vdW  Elec       q    Type
REMARK                         _______ _______ _______ _____ _____    ______ ____
ROOT
ATOM      1 CL   UNL     1      30.505 -22.015 -14.251  0.00  0.00    -0.082 Cl
ATOM      2  O   UNL     1      36.233 -24.545 -15.917  0.00  0.00    -0.417 OA
ATOM      3  O   UNL     1      36.989 -26.568 -15.269  0.00  0.00    -0.226 OA
ATOM      4  N   UNL     1      34.932 -25.908 -14.525  0.00  0.00    -0.250 N 
ATOM      5  C   UNL     1      35.325 -23.412 -15.806  0.00  0.00    +0.296 C 
ATOM      6  C   UNL     1      34.029 -23.745 -15.103  0.00  0.00    +0.048 C 
ATOM      7  C   UNL     1      33.889 -24.981 -14.473  0.00  0.00    +0.054 C 
ATOM      8  C   UNL     1      32.967 -22.828 -15.022  0.00  0.00    +0.013 C 
ATOM      9  C   UNL     1      32.718 -25.307 -13.778  0.00  0.00    +0.015 C 
ATOM     10  C   UNL     1      36.102 -25.717 -15.229  0.00  0.00    +0.407 C 
ATOM     11  C   UNL     1      31.794 -23.152 -14.336  0.00  0.00    +0.058 C 
ATOM     12  C   UNL     1      31.671 -24.392 -13.714  0.00  0.00    +0.013 C 
ATOM     13  H   UNL     1      34.825 -26.751 -14.028  0.00  0.00    +0.158 HD
ENDROOT
BRANCH   5  17
ATOM     14  F   UNL     1      35.618 -21.127 -15.325  0.00  0.00    -0.165 F 
ATOM     15  F   UNL     1      35.947 -22.553 -13.705  0.00  0.00    -0.165 F 
ATOM     16  F   UNL     1      37.394 -22.397 -15.332  0.00  0.00    -0.165 F 
ATOM     17  C   UNL     1      36.094 -22.341 -15.019  0.00  0.00    +0.446 C 
ENDBRANCH   5  17
BRANCH   5  19
ATOM     18  C   UNL     1      34.883 -22.548 -18.301  0.00  0.00    -0.088 C 
ATOM     19  C   UNL     1      35.081 -22.935 -17.182  0.00  0.00    -0.040 C 
BRANCH  18  20
ATOM     20  C   UNL     1      34.643 -22.083 -19.644  0.00  0.00    +0.064 C 
ATOM     21  C   UNL     1      35.092 -20.705 -20.016  0.00  0.00    +0.014 C 
ATOM     22  C   UNL     1      33.630 -21.004 -19.860  0.00  0.00    +0.014 C 
ENDBRANCH  18  20
ENDBRANCH   5  19
TORSDOF 3
ENDMDL
MODEL 7
REMARK VINA RESULT:      -5.6      3.330      5.965
REMARK  Name = 64139
REMARK  3 active torsions:
REMARK  status: ('A' for Active; 'I' for Inactive)
REMARK    1  A    between atoms: C_5  and  C_17
REMARK    2  A    between atoms: C_5  and  C_19
REMARK    3  A    between atoms: C_18  and  C_20
REMARK                            x       y       z     vdW  Elec       q    Type
REMARK                         _______ _______ _______ _____ _____    ______ ____
ROOT
ATOM      1 CL   UNL     1      35.232 -22.419 -17.337  0.00  0.00    -0.082 Cl
ATOM      2  O   UNL     1      36.552 -24.866 -11.484  0.00  0.00    -0.417 OA
ATOM      3  O   UNL     1      35.008 -25.432  -9.942  0.00  0.00    -0.226 OA
ATOM      4  N   UNL     1      34.271 -24.574 -11.928  0.00  0.00    -0.250 N 
ATOM      5  C   UNL     1      36.968 -24.189 -12.705  0.00  0.00    +0.296 C 
ATOM      6  C   UNL     1      35.822 -23.881 -13.642  0.00  0.00    +0.048 C 
ATOM      7  C   UNL     1      34.512 -24.071 -13.209  0.00  0.00    +0.054 C 
ATOM      8  C   UNL     1      36.032 -23.361 -14.931  0.00  0.00    +0.013 C 
ATOM      9  C   UNL     1      33.426 -23.758 -14.034  0.00  0.00    +0.015 C 
ATOM     10  C   UNL     1      35.262 -24.973 -11.055  0.00  0.00    +0.407 C 
ATOM     11  C   UNL     1      34.953 -23.053 -15.762  0.00  0.00    +0.058 C 
ATOM     12  C   UNL     1      33.650 -23.252 -15.312  0.00  0.00    +0.013 C 
ATOM     13  H   UNL     1      33.336 -24.649 -11.630  0.00  0.00    +0.158 HD
ENDROOT
BRANCH   5  17
ATOM     14  F   UNL     1      37.771 -22.055 -13.289  0.00  0.00    -0.165 F 
ATOM     15  F   UNL     1      36.899 -22.301 -11.302  0.00  0.00    -0.165 F 
ATOM     16  F   UNL     1      38.856 -23.160 -11.750  0.00  0.00    -0.165 F 
ATOM     17  C   UNL     1      37.644 -22.889 -12.248  0.00  0.00    +0.446 C 
ENDBRANCH   5  17
BRANCH   5  19
ATOM     18  C   UNL     1      38.778 -25.778 -13.875  0.00  0.00    -0.088 C 
ATOM     19  C   UNL     1      37.967 -25.066 -13.350  0.00  0.00    -0.040 C 
BRANCH  18  20
ATOM     20  C   UNL     1      39.752 -26.632 -14.505  0.00  0.00    +0.064 C 
ATOM     21  C   UNL     1      41.146 -26.655 -13.960  0.00  0.00    +0.014 C 
ATOM     22  C   UNL     1      40.865 -26.001 -15.281  0.00  0.00    +0.014 C 
ENDBRANCH  18  20
ENDBRANCH   5  19
TORSDOF 3
ENDMDL
MODEL 8
REMARK VINA RESULT:      -5.5      3.460      5.830
REMARK  Name = 64139
REMARK  3 active torsions:
REMARK  status: ('A' for Active; 'I' for Inactive)
REMARK    1  A    between atoms: C_5  and  C_17
REMARK    2  A    between atoms: C_5  and  C_19
REMARK    3  A    between atoms: C_18  and  C_20
REMARK                            x       y       z     vdW  Elec       q    Type
REMARK                         _______ _______ _______ _____ _____    ______ ____
ROOT
ATOM      1 CL   UNL     1      36.951 -21.236 -19.152  0.00  0.00    -0.082 Cl
ATOM      2  O   UNL     1      32.694 -24.329 -15.370  0.00  0.00    -0.417 OA
ATOM      3  O   UNL     1      30.489 -24.522 -15.796  0.00  0.00    -0.226 OA
ATOM      4  N   UNL     1      31.770 -23.363 -17.293  0.00  0.00    -0.250 N 
ATOM      5  C   UNL     1      34.002 -23.724 -15.587  0.00  0.00    +0.296 C 
ATOM      6  C   UNL     1      34.133 -23.039 -16.928  0.00  0.00    +0.048 C 
ATOM      7  C   UNL     1      33.003 -22.870 -17.725  0.00  0.00    +0.054 C 
ATOM      8  C   UNL     1      35.357 -22.520 -17.384  0.00  0.00    +0.013 C 
ATOM      9  C   UNL     1      33.080 -22.205 -18.954  0.00  0.00    +0.015 C 
ATOM     10  C   UNL     1      31.589 -24.085 -16.132  0.00  0.00    +0.407 C 
ATOM     11  C   UNL     1      35.441 -21.861 -18.612  0.00  0.00    +0.058 C 
ATOM     12  C   UNL     1      34.302 -21.704 -19.397  0.00  0.00    +0.013 C 
ATOM     13  H   UNL     1      30.980 -23.184 -17.853  0.00  0.00    +0.158 HD
ENDROOT
BRANCH   5  17
ATOM     14  F   UNL     1      34.396 -23.350 -13.297  0.00  0.00    -0.165 F 
ATOM     15  F   UNL     1      35.227 -21.913 -14.716  0.00  0.00    -0.165 F 
ATOM     16  F   UNL     1      33.077 -21.957 -14.339  0.00  0.00    -0.165 F 
ATOM     17  C   UNL     1      34.180 -22.706 -14.452  0.00  0.00    +0.446 C 
ENDBRANCH   5  17
BRANCH   5  19
ATOM     18  C   UNL     1      35.800 -25.690 -15.319  0.00  0.00    -0.088 C 
ATOM     19  C   UNL     1      34.993 -24.808 -15.439  0.00  0.00    -0.040 C 
BRANCH  18  20
ATOM     20  C   UNL     1      36.767 -26.747 -15.174  0.00  0.00    +0.064 C 
ATOM     21  C   UNL     1      37.324 -27.028 -13.813  0.00  0.00    +0.014 C 
ATOM     22  C   UNL     1      38.185 -26.385 -14.860  0.00  0.00    +0.014 C 
ENDBRANCH  18  20
ENDBRANCH   5  19
TORSDOF 3
ENDMDL
MODEL 9
REMARK VINA RESULT:      -5.5     17.473     18.881
REMARK  Name = 64139
REMARK  3 active torsions:
REMARK  status: ('A' for Active; 'I' for Inactive)
REMARK    1  A    between atoms: C_5  and  C_17
REMARK    2  A    between atoms: C_5  and  C_19
REMARK    3  A    between atoms: C_18  and  C_20
REMARK                            x       y       z     vdW  Elec       q    Type
REMARK                         _______ _______ _______ _____ _____    ______ ____
ROOT
ATOM      1 CL   UNL     1      31.273  -8.549 -18.808  0.00  0.00    -0.082 Cl
ATOM      2  O   UNL     1      33.482  -9.338 -24.848  0.00  0.00    -0.417 OA
ATOM      3  O   UNL     1      33.729 -11.325 -25.884  0.00  0.00    -0.226 OA
ATOM      4  N   UNL     1      32.940 -11.328 -23.739  0.00  0.00    -0.250 N 
ATOM      5  C   UNL     1      33.287  -8.518 -23.660  0.00  0.00    +0.296 C 
ATOM      6  C   UNL     1      32.678  -9.274 -22.500  0.00  0.00    +0.048 C 
ATOM      7  C   UNL     1      32.543 -10.659 -22.580  0.00  0.00    +0.054 C 
ATOM      8  C   UNL     1      32.282  -8.630 -21.316  0.00  0.00    +0.013 C 
ATOM      9  C   UNL     1      32.021 -11.395 -21.510  0.00  0.00    +0.015 C 
ATOM     10  C   UNL     1      33.410 -10.700 -24.873  0.00  0.00    +0.407 C 
ATOM     11  C   UNL     1      31.754  -9.359 -20.248  0.00  0.00    +0.058 C 
ATOM     12  C   UNL     1      31.624 -10.742 -20.346  0.00  0.00    +0.013 C 
ATOM     13  H   UNL     1      32.881 -12.311 -23.747  0.00  0.00    +0.158 HD
ENDROOT
BRANCH   5  17
ATOM     14  F   UNL     1      35.605  -8.920 -23.595  0.00  0.00    -0.165 F 
ATOM     15  F   UNL     1      34.942  -6.870 -23.949  0.00  0.00    -0.165 F 
ATOM     16  F   UNL     1      34.733  -7.758 -21.966  0.00  0.00    -0.165 F 
ATOM     17  C   UNL     1      34.682  -8.001 -23.281  0.00  0.00    +0.446 C 
ENDBRANCH   5  17
BRANCH   5  19
ATOM     18  C   UNL     1      31.739  -6.463 -24.400  0.00  0.00    -0.088 C 
ATOM     19  C   UNL     1      32.434  -7.385 -24.068  0.00  0.00    -0.040 C 
BRANCH  18  20
ATOM     20  C   UNL     1      30.908  -5.356 -24.798  0.00  0.00    +0.064 C 
ATOM     21  C   UNL     1      31.540  -4.206 -25.517  0.00  0.00    +0.014 C 
ATOM     22  C   UNL     1      31.077  -4.043 -24.100  0.00  0.00    +0.014 C 
ENDBRANCH  18  20
ENDBRANCH   5  19
TORSDOF 3
ENDMDL
