MODEL 1
REMARK VINA RESULT:      -5.3      0.000      0.000
REMARK  Name = 5288620
REMARK  6 active torsions:
REMARK  status: ('A' for Active; 'I' for Inactive)
REMARK    1  A    between atoms: CA_1  and  N_2
REMARK    2  A    between atoms: CA_1  and  C_7
REMARK    3  A    between atoms: CA_1  and  C_10
REMARK    4  A    between atoms: C_7  and  O_8
REMARK    5  A    between atoms: C_10  and  C_11
REMARK    6  A    between atoms: C_11  and  C_13
REMARK                            x       y       z     vdW  Elec       q    Type
REMARK                         _______ _______ _______ _____ _____    ______ ____
ROOT
ATOM      1  CA  UNL     1      38.654 -25.223 -14.453  0.00  0.00    +0.036 C 
ENDROOT
BRANCH   1   2
ATOM      2  N   UNL     1      37.835 -26.099 -15.342  0.00  0.00    +0.389 N 
ATOM      3  H1  UNL     1      37.878 -27.060 -15.004  0.00  0.00    -0.088 HD
ATOM      4  H2  UNL     1      38.201 -26.056 -16.293  0.00  0.00    -0.088 HD
ATOM      5  H3  UNL     1      36.867 -25.780 -15.335  0.00  0.00    -0.088 HD
ENDBRANCH   1   2
BRANCH   1   7
ATOM      6  OXT UNL     1      41.026 -24.716 -14.289  0.00  0.00    -0.253 OA
ATOM      7  C   UNL     1      40.099 -25.237 -14.898  0.00  0.00    +0.293 C 
BRANCH   7   8
ATOM      8  O   UNL     1      40.269 -25.907 -16.067  0.00  0.00    -0.482 OA
ATOM      9  H   UNL     1      41.110 -26.253 -16.291  0.00  0.00    +0.295 HD
ENDBRANCH   7   8
ENDBRANCH   1   7
BRANCH   1  10
ATOM     10  C   UNL     1      38.474 -25.656 -12.996  0.00  0.00    -0.003 C 
BRANCH  10  11
ATOM     11  C   UNL     1      37.339 -24.950 -12.253  0.00  0.00    +0.071 C 
BRANCH  11  13
ATOM     12  O   UNL     1      38.810 -23.143 -11.641  0.00  0.00    -0.288 OA
ATOM     13  C   UNL     1      37.701 -23.506 -12.017  0.00  0.00    +0.207 C 
ENDBRANCH  11  13
ENDBRANCH  10  11
ENDBRANCH   1  10
TORSDOF 6
ENDMDL
MODEL 2
REMARK VINA RESULT:      -5.1      1.479      1.539
REMARK  Name = 5288620
REMARK  6 active torsions:
REMARK  status: ('A' for Active; 'I' for Inactive)
REMARK    1  A    between atoms: CA_1  and  N_2
REMARK    2  A    between atoms: CA_1  and  C_7
REMARK    3  A    between atoms: CA_1  and  C_10
REMARK    4  A    between atoms: C_7  and  O_8
REMARK    5  A    between atoms: C_10  and  C_11
REMARK    6  A    between atoms: C_11  and  C_13
REMARK                            x       y       z     vdW  Elec       q    Type
REMARK                         _______ _______ _______ _____ _____    ______ ____
ROOT
ATOM      1  CA  UNL     1      38.813 -25.795 -14.254  0.00  0.00    +0.036 C 
ENDROOT
BRANCH   1   2
ATOM      2  N   UNL     1      37.919 -26.951 -14.557  0.00  0.00    +0.389 N 
ATOM      3  H1  UNL     1      37.045 -26.850 -14.040  0.00  0.00    -0.088 HD
ATOM      4  H2  UNL     1      38.379 -27.819 -14.279  0.00  0.00    -0.088 HD
ATOM      5  H3  UNL     1      37.722 -26.976 -15.556  0.00  0.00    -0.088 HD
ENDBRANCH   1   2
BRANCH   1   7
ATOM      6  OXT UNL     1      41.135 -26.490 -14.069  0.00  0.00    -0.253 OA
ATOM      7  C   UNL     1      40.212 -26.073 -14.758  0.00  0.00    +0.293 C 
BRANCH   7   8
ATOM      8  O   UNL     1      40.339 -25.812 -16.084  0.00  0.00    -0.482 OA
ATOM      9  H   UNL     1      40.415 -26.518 -16.695  0.00  0.00    +0.295 HD
ENDBRANCH   7   8
ENDBRANCH   1   7
BRANCH   1  10
ATOM     10  C   UNL     1      38.769 -25.489 -12.754  0.00  0.00    -0.003 C 
BRANCH  10  11
ATOM     11  C   UNL     1      38.056 -24.186 -12.387  0.00  0.00    +0.071 C 
BRANCH  11  13
ATOM     12  O   UNL     1      36.313 -25.602 -11.515  0.00  0.00    -0.288 OA
ATOM     13  C   UNL     1      36.671 -24.486 -11.875  0.00  0.00    +0.207 C 
ENDBRANCH  11  13
ENDBRANCH  10  11
ENDBRANCH   1  10
TORSDOF 6
ENDMDL
MODEL 3
REMARK VINA RESULT:      -4.9      9.571     10.278
REMARK  Name = 5288620
REMARK  6 active torsions:
REMARK  status: ('A' for Active; 'I' for Inactive)
REMARK    1  A    between atoms: CA_1  and  N_2
REMARK    2  A    between atoms: CA_1  and  C_7
REMARK    3  A    between atoms: CA_1  and  C_10
REMARK    4  A    between atoms: C_7  and  O_8
REMARK    5  A    between atoms: C_10  and  C_11
REMARK    6  A    between atoms: C_11  and  C_13
REMARK                            x       y       z     vdW  Elec       q    Type
REMARK                         _______ _______ _______ _____ _____    ______ ____
ROOT
ATOM      1  CA  UNL     1      28.708 -23.557 -15.364  0.00  0.00    +0.036 C 
ENDROOT
BRANCH   1   2
ATOM      2  N   UNL     1      28.940 -25.016 -15.149  0.00  0.00    +0.389 N 
ATOM      3  H1  UNL     1      29.464 -25.153 -14.285  0.00  0.00    -0.088 HD
ATOM      4  H2  UNL     1      29.472 -25.395 -15.933  0.00  0.00    -0.088 HD
ATOM      5  H3  UNL     1      28.044 -25.496 -15.083  0.00  0.00    -0.088 HD
ENDBRANCH   1   2
BRANCH   1   7
ATOM      6  OXT UNL     1      27.719 -24.160 -17.501  0.00  0.00    -0.253 OA
ATOM      7  C   UNL     1      28.216 -23.310 -16.773  0.00  0.00    +0.293 C 
BRANCH   7   8
ATOM      8  O   UNL     1      28.380 -22.017 -17.153  0.00  0.00    -0.482 OA
ATOM      9  H   UNL     1      27.810 -21.354 -16.816  0.00  0.00    +0.295 HD
ENDBRANCH   7   8
ENDBRANCH   1   7
BRANCH   1  10
ATOM     10  C   UNL     1      29.984 -22.779 -15.033  0.00  0.00    -0.003 C 
BRANCH  10  11
ATOM     11  C   UNL     1      31.282 -23.565 -15.227  0.00  0.00    +0.071 C 
BRANCH  11  13
ATOM     12  O   UNL     1      31.418 -22.393 -17.328  0.00  0.00    -0.288 OA
ATOM     13  C   UNL     1      31.889 -23.229 -16.565  0.00  0.00    +0.207 C 
ENDBRANCH  11  13
ENDBRANCH  10  11
ENDBRANCH   1  10
TORSDOF 6
ENDMDL
MODEL 4
REMARK VINA RESULT:      -4.9      9.238      9.966
REMARK  Name = 5288620
REMARK  6 active torsions:
REMARK  status: ('A' for Active; 'I' for Inactive)
REMARK    1  A    between atoms: CA_1  and  N_2
REMARK    2  A    between atoms: CA_1  and  C_7
REMARK    3  A    between atoms: CA_1  and  C_10
REMARK    4  A    between atoms: C_7  and  O_8
REMARK    5  A    between atoms: C_10  and  C_11
REMARK    6  A    between atoms: C_11  and  C_13
REMARK                            x       y       z     vdW  Elec       q    Type
REMARK                         _______ _______ _______ _____ _____    ______ ____
ROOT
ATOM      1  CA  UNL     1      29.094 -23.450 -15.546  0.00  0.00    +0.036 C 
ENDROOT
BRANCH   1   2
ATOM      2  N   UNL     1      28.853 -24.842 -15.067  0.00  0.00    +0.389 N 
ATOM      3  H1  UNL     1      27.906 -25.128 -15.316  0.00  0.00    -0.088 HD
ATOM      4  H2  UNL     1      28.963 -24.878 -14.053  0.00  0.00    -0.088 HD
ATOM      5  H3  UNL     1      29.524 -25.473 -15.504  0.00  0.00    -0.088 HD
ENDBRANCH   1   2
BRANCH   1   7
ATOM      6  OXT UNL     1      27.767 -24.023 -17.500  0.00  0.00    -0.253 OA
ATOM      7  C   UNL     1      28.254 -23.168 -16.772  0.00  0.00    +0.293 C 
BRANCH   7   8
ATOM      8  O   UNL     1      28.086 -21.837 -16.982  0.00  0.00    -0.482 OA
ATOM      9  H   UNL     1      27.862 -21.274 -16.267  0.00  0.00    +0.295 HD
ENDBRANCH   7   8
ENDBRANCH   1   7
BRANCH   1  10
ATOM     10  C   UNL     1      30.592 -23.240 -15.788  0.00  0.00    -0.003 C 
BRANCH  10  11
ATOM     11  C   UNL     1      31.389 -22.827 -14.550  0.00  0.00    +0.071 C 
BRANCH  11  13
ATOM     12  O   UNL     1      31.516 -24.859 -13.262  0.00  0.00    -0.288 OA
ATOM     13  C   UNL     1      32.084 -24.028 -13.962  0.00  0.00    +0.207 C 
ENDBRANCH  11  13
ENDBRANCH  10  11
ENDBRANCH   1  10
TORSDOF 6
ENDMDL
MODEL 5
REMARK VINA RESULT:      -4.8     10.133     10.658
REMARK  Name = 5288620
REMARK  6 active torsions:
REMARK  status: ('A' for Active; 'I' for Inactive)
REMARK    1  A    between atoms: CA_1  and  N_2
REMARK    2  A    between atoms: CA_1  and  C_7
REMARK    3  A    between atoms: CA_1  and  C_10
REMARK    4  A    between atoms: C_7  and  O_8
REMARK    5  A    between atoms: C_10  and  C_11
REMARK    6  A    between atoms: C_11  and  C_13
REMARK                            x       y       z     vdW  Elec       q    Type
REMARK                         _______ _______ _______ _____ _____    ______ ____
ROOT
ATOM      1  CA  UNL     1      35.127 -19.421 -21.594  0.00  0.00    +0.036 C 
ENDROOT
BRANCH   1   2
ATOM      2  N   UNL     1      36.242 -18.953 -20.719  0.00  0.00    +0.389 N 
ATOM      3  H1  UNL     1      36.233 -19.482 -19.847  0.00  0.00    -0.088 HD
ATOM      4  H2  UNL     1      36.121 -17.961 -20.516  0.00  0.00    -0.088 HD
ATOM      5  H3  UNL     1      37.131 -19.098 -21.195  0.00  0.00    -0.088 HD
ENDBRANCH   1   2
BRANCH   1   7
ATOM      6  OXT UNL     1      34.719 -19.306 -23.988  0.00  0.00    -0.253 OA
ATOM      7  C   UNL     1      35.312 -18.892 -23.000  0.00  0.00    +0.293 C 
BRANCH   7   8
ATOM      8  O   UNL     1      36.219 -17.883 -23.052  0.00  0.00    -0.482 OA
ATOM      9  H   UNL     1      36.006 -17.084 -23.492  0.00  0.00    +0.295 HD
ENDBRANCH   7   8
ENDBRANCH   1   7
BRANCH   1  10
ATOM     10  C   UNL     1      33.784 -19.020 -20.978  0.00  0.00    -0.003 C 
BRANCH  10  11
ATOM     11  C   UNL     1      32.833 -20.185 -20.700  0.00  0.00    +0.071 C 
BRANCH  11  13
ATOM     12  O   UNL     1      32.884 -22.112 -19.256  0.00  0.00    -0.288 OA
ATOM     13  C   UNL     1      33.474 -21.152 -19.738  0.00  0.00    +0.207 C 
ENDBRANCH  11  13
ENDBRANCH  10  11
ENDBRANCH   1  10
TORSDOF 6
ENDMDL
MODEL 6
REMARK VINA RESULT:      -4.8     12.124     12.850
REMARK  Name = 5288620
REMARK  6 active torsions:
REMARK  status: ('A' for Active; 'I' for Inactive)
REMARK    1  A    between atoms: CA_1  and  N_2
REMARK    2  A    between atoms: CA_1  and  C_7
REMARK    3  A    between atoms: CA_1  and  C_10
REMARK    4  A    between atoms: C_7  and  O_8
REMARK    5  A    between atoms: C_10  and  C_11
REMARK    6  A    between atoms: C_11  and  C_13
REMARK                            x       y       z     vdW  Elec       q    Type
REMARK                         _______ _______ _______ _____ _____    ______ ____
ROOT
ATOM      1  CA  UNL     1      35.644 -18.099 -22.138  0.00  0.00    +0.036 C 
ENDROOT
BRANCH   1   2
ATOM      2  N   UNL     1      35.909 -18.547 -20.739  0.00  0.00    +0.389 N 
ATOM      3  H1  UNL     1      36.329 -19.476 -20.754  0.00  0.00    -0.088 HD
ATOM      4  H2  UNL     1      35.031 -18.579 -20.220  0.00  0.00    -0.088 HD
ATOM      5  H3  UNL     1      36.547 -17.893 -20.288  0.00  0.00    -0.088 HD
ENDBRANCH   1   2
BRANCH   1   7
ATOM      6  OXT UNL     1      34.673 -16.065 -21.227  0.00  0.00    -0.253 OA
ATOM      7  C   UNL     1      35.234 -16.643 -22.150  0.00  0.00    +0.293 C 
BRANCH   7   8
ATOM      8  O   UNL     1      35.566 -16.028 -23.314  0.00  0.00    -0.482 OA
ATOM      9  H   UNL     1      36.070 -16.484 -23.958  0.00  0.00    +0.295 HD
ENDBRANCH   7   8
ENDBRANCH   1   7
BRANCH   1  10
ATOM     10  C   UNL     1      34.603 -19.017 -22.784  0.00  0.00    -0.003 C 
BRANCH  10  11
ATOM     11  C   UNL     1      34.907 -19.411 -24.230  0.00  0.00    +0.071 C 
BRANCH  11  13
ATOM     12  O   UNL     1      34.623 -17.494 -25.662  0.00  0.00    -0.288 OA
ATOM     13  C   UNL     1      34.149 -18.515 -25.176  0.00  0.00    +0.207 C 
ENDBRANCH  11  13
ENDBRANCH  10  11
ENDBRANCH   1  10
TORSDOF 6
ENDMDL
MODEL 7
REMARK VINA RESULT:      -4.8     10.226     10.627
REMARK  Name = 5288620
REMARK  6 active torsions:
REMARK  status: ('A' for Active; 'I' for Inactive)
REMARK    1  A    between atoms: CA_1  and  N_2
REMARK    2  A    between atoms: CA_1  and  C_7
REMARK    3  A    between atoms: CA_1  and  C_10
REMARK    4  A    between atoms: C_7  and  O_8
REMARK    5  A    between atoms: C_10  and  C_11
REMARK    6  A    between atoms: C_11  and  C_13
REMARK                            x       y       z     vdW  Elec       q    Type
REMARK                         _______ _______ _______ _____ _____    ______ ____
ROOT
ATOM      1  CA  UNL     1      34.393 -18.755 -21.894  0.00  0.00    +0.036 C 
ENDROOT
BRANCH   1   2
ATOM      2  N   UNL     1      34.808 -19.361 -23.193  0.00  0.00    +0.389 N 
ATOM      3  H1  UNL     1      34.228 -20.178 -23.387  0.00  0.00    -0.088 HD
ATOM      4  H2  UNL     1      35.787 -19.645 -23.139  0.00  0.00    -0.088 HD
ATOM      5  H3  UNL     1      34.692 -18.677 -23.939  0.00  0.00    -0.088 HD
ENDBRANCH   1   2
BRANCH   1   7
ATOM      6  OXT UNL     1      35.309 -16.953 -20.543  0.00  0.00    -0.253 OA
ATOM      7  C   UNL     1      35.177 -17.487 -21.637  0.00  0.00    +0.293 C 
BRANCH   7   8
ATOM      8  O   UNL     1      35.739 -16.994 -22.771  0.00  0.00    -0.482 OA
ATOM      9  H   UNL     1      36.082 -17.580 -23.417  0.00  0.00    +0.295 HD
ENDBRANCH   7   8
ENDBRANCH   1   7
BRANCH   1  10
ATOM     10  C   UNL     1      34.545 -19.787 -20.772  0.00  0.00    -0.003 C 
BRANCH  10  11
ATOM     11  C   UNL     1      33.230 -20.389 -20.275  0.00  0.00    +0.071 C 
BRANCH  11  13
ATOM     12  O   UNL     1      32.672 -22.169 -18.750  0.00  0.00    -0.288 OA
ATOM     13  C   UNL     1      33.508 -21.631 -19.467  0.00  0.00    +0.207 C 
ENDBRANCH  11  13
ENDBRANCH  10  11
ENDBRANCH   1  10
TORSDOF 6
ENDMDL
MODEL 8
REMARK VINA RESULT:      -4.7      2.980      4.825
REMARK  Name = 5288620
REMARK  6 active torsions:
REMARK  status: ('A' for Active; 'I' for Inactive)
REMARK    1  A    between atoms: CA_1  and  N_2
REMARK    2  A    between atoms: CA_1  and  C_7
REMARK    3  A    between atoms: CA_1  and  C_10
REMARK    4  A    between atoms: C_7  and  O_8
REMARK    5  A    between atoms: C_10  and  C_11
REMARK    6  A    between atoms: C_11  and  C_13
REMARK                            x       y       z     vdW  Elec       q    Type
REMARK                         _______ _______ _______ _____ _____    ______ ____
ROOT
ATOM      1  CA  UNL     1      36.510 -23.689 -12.088  0.00  0.00    +0.036 C 
ENDROOT
BRANCH   1   2
ATOM      2  N   UNL     1      37.781 -23.784 -11.310  0.00  0.00    +0.389 N 
ATOM      3  H1  UNL     1      38.531 -24.103 -11.924  0.00  0.00    -0.088 HD
ATOM      4  H2  UNL     1      37.663 -24.448 -10.545  0.00  0.00    -0.088 HD
ATOM      5  H3  UNL     1      38.017 -22.867 -10.933  0.00  0.00    -0.088 HD
ENDBRANCH   1   2
BRANCH   1   7
ATOM      6  OXT UNL     1      35.436 -24.928 -10.292  0.00  0.00    -0.253 OA
ATOM      7  C   UNL     1      35.452 -24.572 -11.464  0.00  0.00    +0.293 C 
BRANCH   7   8
ATOM      8  O   UNL     1      34.495 -24.933 -12.357  0.00  0.00    -0.482 OA
ATOM      9  H   UNL     1      34.184 -25.816 -12.380  0.00  0.00    +0.295 HD
ENDBRANCH   7   8
ENDBRANCH   1   7
BRANCH   1  10
ATOM     10  C   UNL     1      36.779 -24.028 -13.557  0.00  0.00    -0.003 C 
BRANCH  10  11
ATOM     11  C   UNL     1      38.003 -24.913 -13.796  0.00  0.00    +0.071 C 
BRANCH  11  13
ATOM     12  O   UNL     1      38.250 -27.151 -14.650  0.00  0.00    -0.288 OA
ATOM     13  C   UNL     1      37.568 -26.334 -14.042  0.00  0.00    +0.207 C 
ENDBRANCH  11  13
ENDBRANCH  10  11
ENDBRANCH   1  10
TORSDOF 6
ENDMDL
MODEL 9
REMARK VINA RESULT:      -4.7      1.456      3.923
REMARK  Name = 5288620
REMARK  6 active torsions:
REMARK  status: ('A' for Active; 'I' for Inactive)
REMARK    1  A    between atoms: CA_1  and  N_2
REMARK    2  A    between atoms: CA_1  and  C_7
REMARK    3  A    between atoms: CA_1  and  C_10
REMARK    4  A    between atoms: C_7  and  O_8
REMARK    5  A    between atoms: C_10  and  C_11
REMARK    6  A    between atoms: C_11  and  C_13
REMARK                            x       y       z     vdW  Elec       q    Type
REMARK                         _______ _______ _______ _____ _____    ______ ____
ROOT
ATOM      1  CA  UNL     1      37.135 -25.070 -12.269  0.00  0.00    +0.036 C 
ENDROOT
BRANCH   1   2
ATOM      2  N   UNL     1      36.033 -25.279 -13.253  0.00  0.00    +0.389 N 
ATOM      3  H1  UNL     1      35.686 -24.374 -13.571  0.00  0.00    -0.088 HD
ATOM      4  H2  UNL     1      35.274 -25.797 -12.809  0.00  0.00    -0.088 HD
ATOM      5  H3  UNL     1      36.385 -25.808 -14.050  0.00  0.00    -0.088 HD
ENDBRANCH   1   2
BRANCH   1   7
ATOM      6  OXT UNL     1      38.390 -23.080 -11.654  0.00  0.00    -0.253 OA
ATOM      7  C   UNL     1      37.340 -23.592 -12.022  0.00  0.00    +0.293 C 
BRANCH   7   8
ATOM      8  O   UNL     1      36.213 -22.873 -12.263  0.00  0.00    -0.482 OA
ATOM      9  H   UNL     1      35.746 -22.481 -11.552  0.00  0.00    +0.295 HD
ENDBRANCH   7   8
ENDBRANCH   1   7
BRANCH   1  10
ATOM     10  C   UNL     1      38.404 -25.774 -12.759  0.00  0.00    -0.003 C 
BRANCH  10  11
ATOM     11  C   UNL     1      38.747 -25.523 -14.229  0.00  0.00    +0.071 C 
BRANCH  11  13
ATOM     12  O   UNL     1      40.876 -26.549 -14.698  0.00  0.00    -0.288 OA
ATOM     13  C   UNL     1      40.242 -25.538 -14.416  0.00  0.00    +0.207 C 
ENDBRANCH  11  13
ENDBRANCH  10  11
ENDBRANCH   1  10
TORSDOF 6
ENDMDL
