MODEL 1
REMARK VINA RESULT:      -5.9      0.000      0.000
REMARK  Name = 448878
REMARK  6 active torsions:
REMARK  status: ('A' for Active; 'I' for Inactive)
REMARK    1  A    between atoms: CA_1  and  N_3
REMARK    2  A    between atoms: CA_1  and  C_10
REMARK    3  A    between atoms: CA_1  and  CB_13
REMARK    4  A    between atoms: C_10  and  O_11
REMARK    5  A    between atoms: CB_13  and  CG_14
REMARK    6  A    between atoms: CG_14  and  SD_15
REMARK                            x       y       z     vdW  Elec       q    Type
REMARK                         _______ _______ _______ _____ _____    ______ ____
ROOT
ATOM      1  CA  UNL     1      38.767 -25.362 -14.483  0.00  0.00    +0.173 C 
ENDROOT
BRANCH   1   3
ATOM      2  O   UNL     1      36.260 -24.339 -15.524  0.00  0.00    -0.253 OA
ATOM      3  N   UNL     1      38.542 -24.099 -15.138  0.00  0.00    -0.281 N 
ATOM      4  N   UNL     1      37.353 -22.436 -16.197  0.00  0.00    -0.313 N 
ATOM      5  C   ACE A   0      37.300 -23.687 -15.609  0.00  0.00    +0.298 C 
ATOM      6  H   UNL     1      39.309 -23.495 -15.260  0.00  0.00    +0.151 HD
ATOM      7  H   UNL     1      36.538 -22.032 -16.571  0.00  0.00    +0.146 HD
ATOM      8  H   UNL     1      38.209 -21.951 -16.243  0.00  0.00    +0.146 HD
ENDBRANCH   1   3
BRANCH   1  10
ATOM      9  OXT UNL     1      40.900 -26.381 -13.963  0.00  0.00    -0.248 OA
ATOM     10  C   UNL     1      40.126 -25.959 -14.815  0.00  0.00    +0.332 C 
BRANCH  10  11
ATOM     11  O   UNL     1      40.443 -25.937 -16.133  0.00  0.00    -0.479 OA
ATOM     12  H   UNL     1      40.708 -26.725 -16.564  0.00  0.00    +0.295 HD
ENDBRANCH  10  11
ENDBRANCH   1  10
BRANCH   1  13
ATOM     13  CB  UNL     1      38.538 -25.248 -12.970  0.00  0.00    +0.043 C 
BRANCH  13  14
ATOM     14  CG  UNL     1      37.240 -25.905 -12.494  0.00  0.00    +0.060 C 
BRANCH  14  15
ATOM     15  SD  UNL     1      36.086 -24.647 -11.872  0.00  0.00    -0.139 S 
ATOM     16  CE  UNL     1      37.226 -23.247 -11.827  0.00  0.00    +0.069 C 
ENDBRANCH  14  15
ENDBRANCH  13  14
ENDBRANCH   1  13
TORSDOF 6
ENDMDL
MODEL 2
REMARK VINA RESULT:      -5.6      2.495      3.952
REMARK  Name = 448878
REMARK  6 active torsions:
REMARK  status: ('A' for Active; 'I' for Inactive)
REMARK    1  A    between atoms: CA_1  and  N_3
REMARK    2  A    between atoms: CA_1  and  C_10
REMARK    3  A    between atoms: CA_1  and  CB_13
REMARK    4  A    between atoms: C_10  and  O_11
REMARK    5  A    between atoms: CB_13  and  CG_14
REMARK    6  A    between atoms: CG_14  and  SD_15
REMARK                            x       y       z     vdW  Elec       q    Type
REMARK                         _______ _______ _______ _____ _____    ______ ____
ROOT
ATOM      1  CA  UNL     1      37.640 -25.669 -14.714  0.00  0.00    +0.173 C 
ENDROOT
BRANCH   1   3
ATOM      2  O   UNL     1      40.386 -24.736 -14.771  0.00  0.00    -0.253 OA
ATOM      3  N   UNL     1      38.822 -26.406 -14.346  0.00  0.00    -0.281 N 
ATOM      4  N   UNL     1      41.066 -26.789 -13.999  0.00  0.00    -0.313 N 
ATOM      5  C   ACE A   0      40.107 -25.877 -14.405  0.00  0.00    +0.298 C 
ATOM      6  H   UNL     1      38.715 -27.334 -14.037  0.00  0.00    +0.151 HD
ATOM      7  H   UNL     1      42.016 -26.535 -13.996  0.00  0.00    +0.146 HD
ATOM      8  H   UNL     1      40.796 -27.692 -13.714  0.00  0.00    +0.146 HD
ENDBRANCH   1   3
BRANCH   1  10
ATOM      9  OXT UNL     1      36.858 -27.399 -16.215  0.00  0.00    -0.248 OA
ATOM     10  C   UNL     1      36.588 -26.545 -15.377  0.00  0.00    +0.332 C 
BRANCH  10  11
ATOM     11  O   UNL     1      35.314 -26.270 -15.008  0.00  0.00    -0.479 OA
ATOM     12  H   UNL     1      34.993 -25.391 -15.055  0.00  0.00    +0.295 HD
ENDBRANCH  10  11
ENDBRANCH   1  10
BRANCH   1  13
ATOM     13  CB  UNL     1      37.077 -24.894 -13.515  0.00  0.00    +0.043 C 
BRANCH  13  14
ATOM     14  CG  UNL     1      37.075 -23.376 -13.710  0.00  0.00    +0.060 C 
BRANCH  14  15
ATOM     15  SD  UNL     1      37.262 -22.965 -15.470  0.00  0.00    -0.139 S 
ATOM     16  CE  UNL     1      35.511 -22.816 -15.890  0.00  0.00    +0.069 C 
ENDBRANCH  14  15
ENDBRANCH  13  14
ENDBRANCH   1  13
TORSDOF 6
ENDMDL
MODEL 3
REMARK VINA RESULT:      -5.5      3.552      4.441
REMARK  Name = 448878
REMARK  6 active torsions:
REMARK  status: ('A' for Active; 'I' for Inactive)
REMARK    1  A    between atoms: CA_1  and  N_3
REMARK    2  A    between atoms: CA_1  and  C_10
REMARK    3  A    between atoms: CA_1  and  CB_13
REMARK    4  A    between atoms: C_10  and  O_11
REMARK    5  A    between atoms: CB_13  and  CG_14
REMARK    6  A    between atoms: CG_14  and  SD_15
REMARK                            x       y       z     vdW  Elec       q    Type
REMARK                         _______ _______ _______ _____ _____    ______ ____
ROOT
ATOM      1  CA  UNL     1      36.413 -24.574 -12.313  0.00  0.00    +0.173 C 
ENDROOT
BRANCH   1   3
ATOM      2  O   UNL     1      34.812 -23.590 -14.522  0.00  0.00    -0.253 OA
ATOM      3  N   UNL     1      35.024 -24.849 -12.577  0.00  0.00    -0.281 N 
ATOM      4  N   UNL     1      33.012 -24.747 -13.691  0.00  0.00    -0.313 N 
ATOM      5  C   ACE A   0      34.331 -24.332 -13.666  0.00  0.00    +0.298 C 
ATOM      6  H   UNL     1      34.538 -25.435 -11.952  0.00  0.00    +0.151 HD
ATOM      7  H   UNL     1      32.415 -24.448 -14.413  0.00  0.00    +0.146 HD
ATOM      8  H   UNL     1      32.671 -25.341 -12.983  0.00  0.00    +0.146 HD
ENDBRANCH   1   3
BRANCH   1  10
ATOM      9  OXT UNL     1      36.116 -24.158  -9.947  0.00  0.00    -0.248 OA
ATOM     10  C   UNL     1      36.621 -23.815 -11.011  0.00  0.00    +0.332 C 
BRANCH  10  11
ATOM     11  O   UNL     1      37.368 -22.691 -11.128  0.00  0.00    -0.479 OA
ATOM     12  H   UNL     1      36.970 -21.892 -11.415  0.00  0.00    +0.295 HD
ENDBRANCH  10  11
ENDBRANCH   1  10
BRANCH   1  13
ATOM     13  CB  UNL     1      37.252 -25.857 -12.376  0.00  0.00    +0.043 C 
BRANCH  13  14
ATOM     14  CG  UNL     1      37.594 -26.298 -13.801  0.00  0.00    +0.060 C 
BRANCH  14  15
ATOM     15  SD  UNL     1      38.486 -24.978 -14.674  0.00  0.00    -0.139 S 
ATOM     16  CE  UNL     1      40.168 -25.581 -14.411  0.00  0.00    +0.069 C 
ENDBRANCH  14  15
ENDBRANCH  13  14
ENDBRANCH   1  13
TORSDOF 6
ENDMDL
MODEL 4
REMARK VINA RESULT:      -5.4      2.711      3.892
REMARK  Name = 448878
REMARK  6 active torsions:
REMARK  status: ('A' for Active; 'I' for Inactive)
REMARK    1  A    between atoms: CA_1  and  N_3
REMARK    2  A    between atoms: CA_1  and  C_10
REMARK    3  A    between atoms: CA_1  and  CB_13
REMARK    4  A    between atoms: C_10  and  O_11
REMARK    5  A    between atoms: CB_13  and  CG_14
REMARK    6  A    between atoms: CG_14  and  SD_15
REMARK                            x       y       z     vdW  Elec       q    Type
REMARK                         _______ _______ _______ _____ _____    ______ ____
ROOT
ATOM      1  CA  UNL     1      37.411 -24.938 -12.877  0.00  0.00    +0.173 C 
ENDROOT
BRANCH   1   3
ATOM      2  O   UNL     1      38.519 -26.947 -14.652  0.00  0.00    -0.253 OA
ATOM      3  N   UNL     1      38.491 -24.775 -13.817  0.00  0.00    -0.281 N 
ATOM      4  N   UNL     1      40.002 -25.382 -15.443  0.00  0.00    -0.313 N 
ATOM      5  C   ACE A   0      38.961 -25.798 -14.633  0.00  0.00    +0.298 C 
ATOM      6  H   UNL     1      38.919 -23.891 -13.885  0.00  0.00    +0.151 HD
ATOM      7  H   UNL     1      40.424 -26.015 -16.067  0.00  0.00    +0.146 HD
ATOM      8  H   UNL     1      40.323 -24.453 -15.393  0.00  0.00    +0.146 HD
ENDBRANCH   1   3
BRANCH   1  10
ATOM      9  OXT UNL     1      36.822 -24.126 -10.674  0.00  0.00    -0.248 OA
ATOM     10  C   UNL     1      37.580 -24.074 -11.637  0.00  0.00    +0.332 C 
BRANCH  10  11
ATOM     11  O   UNL     1      38.609 -23.194 -11.701  0.00  0.00    -0.479 OA
ATOM     12  H   UNL     1      38.442 -22.291 -11.888  0.00  0.00    +0.295 HD
ENDBRANCH  10  11
ENDBRANCH   1  10
BRANCH   1  13
ATOM     13  CB  UNL     1      36.051 -24.719 -13.555  0.00  0.00    +0.043 C 
BRANCH  13  14
ATOM     14  CG  UNL     1      35.798 -23.268 -13.968  0.00  0.00    +0.060 C 
BRANCH  14  15
ATOM     15  SD  UNL     1      35.683 -23.136 -15.776  0.00  0.00    -0.139 S 
ATOM     16  CE  UNL     1      37.233 -22.257 -16.072  0.00  0.00    +0.069 C 
ENDBRANCH  14  15
ENDBRANCH  13  14
ENDBRANCH   1  13
TORSDOF 6
ENDMDL
MODEL 5
REMARK VINA RESULT:      -5.4      1.781      2.067
REMARK  Name = 448878
REMARK  6 active torsions:
REMARK  status: ('A' for Active; 'I' for Inactive)
REMARK    1  A    between atoms: CA_1  and  N_3
REMARK    2  A    between atoms: CA_1  and  C_10
REMARK    3  A    between atoms: CA_1  and  CB_13
REMARK    4  A    between atoms: C_10  and  O_11
REMARK    5  A    between atoms: CB_13  and  CG_14
REMARK    6  A    between atoms: CG_14  and  SD_15
REMARK                            x       y       z     vdW  Elec       q    Type
REMARK                         _______ _______ _______ _____ _____    ______ ____
ROOT
ATOM      1  CA  UNL     1      37.478 -24.977 -14.481  0.00  0.00    +0.173 C 
ENDROOT
BRANCH   1   3
ATOM      2  O   UNL     1      35.736 -22.767 -15.183  0.00  0.00    -0.253 OA
ATOM      3  N   UNL     1      37.676 -24.005 -15.525  0.00  0.00    -0.281 N 
ATOM      4  N   UNL     1      37.206 -22.178 -16.845  0.00  0.00    -0.313 N 
ATOM      5  C   ACE A   0      36.784 -22.972 -15.794  0.00  0.00    +0.298 C 
ATOM      6  H   UNL     1      38.487 -24.075 -16.079  0.00  0.00    +0.151 HD
ATOM      7  H   UNL     1      36.660 -21.412 -17.134  0.00  0.00    +0.146 HD
ATOM      8  H   UNL     1      38.053 -22.381 -17.305  0.00  0.00    +0.146 HD
ENDBRANCH   1   3
BRANCH   1  10
ATOM      9  OXT UNL     1      38.213 -27.256 -14.841  0.00  0.00    -0.248 OA
ATOM     10  C   UNL     1      37.357 -26.395 -15.019  0.00  0.00    +0.332 C 
BRANCH  10  11
ATOM     11  O   UNL     1      36.248 -26.621 -15.764  0.00  0.00    -0.479 OA
ATOM     12  H   UNL     1      35.903 -25.941 -16.309  0.00  0.00    +0.295 HD
ENDBRANCH  10  11
ENDBRANCH   1  10
BRANCH   1  13
ATOM     13  CB  UNL     1      38.562 -24.858 -13.402  0.00  0.00    +0.043 C 
BRANCH  13  14
ATOM     14  CG  UNL     1      38.004 -24.705 -11.985  0.00  0.00    +0.060 C 
BRANCH  14  15
ATOM     15  SD  UNL     1      37.104 -23.134 -11.826  0.00  0.00    -0.139 S 
ATOM     16  CE  UNL     1      35.426 -23.801 -11.760  0.00  0.00    +0.069 C 
ENDBRANCH  14  15
ENDBRANCH  13  14
ENDBRANCH   1  13
TORSDOF 6
ENDMDL
MODEL 6
REMARK VINA RESULT:      -5.4      7.548      9.844
REMARK  Name = 448878
REMARK  6 active torsions:
REMARK  status: ('A' for Active; 'I' for Inactive)
REMARK    1  A    between atoms: CA_1  and  N_3
REMARK    2  A    between atoms: CA_1  and  C_10
REMARK    3  A    between atoms: CA_1  and  CB_13
REMARK    4  A    between atoms: C_10  and  O_11
REMARK    5  A    between atoms: CB_13  and  CG_14
REMARK    6  A    between atoms: CG_14  and  SD_15
REMARK                            x       y       z     vdW  Elec       q    Type
REMARK                         _______ _______ _______ _____ _____    ______ ____
ROOT
ATOM      1  CA  UNL     1      34.579 -20.331 -20.993  0.00  0.00    +0.173 C 
ENDROOT
BRANCH   1   3
ATOM      2  O   UNL     1      35.303 -22.555 -19.278  0.00  0.00    -0.253 OA
ATOM      3  N   UNL     1      35.522 -20.324 -19.903  0.00  0.00    -0.281 N 
ATOM      4  N   UNL     1      36.747 -21.172 -18.148  0.00  0.00    -0.313 N 
ATOM      5  C   ACE A   0      35.809 -21.443 -19.129  0.00  0.00    +0.298 C 
ATOM      6  H   UNL     1      35.987 -19.483 -19.695  0.00  0.00    +0.151 HD
ATOM      7  H   UNL     1      37.035 -21.884 -17.533  0.00  0.00    +0.146 HD
ATOM      8  H   UNL     1      37.124 -20.267 -18.066  0.00  0.00    +0.146 HD
ENDBRANCH   1   3
BRANCH   1  10
ATOM      9  OXT UNL     1      32.430 -19.366 -20.437  0.00  0.00    -0.248 OA
ATOM     10  C   UNL     1      33.135 -20.366 -20.516  0.00  0.00    +0.332 C 
BRANCH  10  11
ATOM     11  O   UNL     1      32.702 -21.590 -20.128  0.00  0.00    -0.479 OA
ATOM     12  H   UNL     1      33.302 -22.307 -20.084  0.00  0.00    +0.295 HD
ENDBRANCH  10  11
ENDBRANCH   1  10
BRANCH   1  13
ATOM     13  CB  UNL     1      34.843 -19.166 -21.957  0.00  0.00    +0.043 C 
BRANCH  13  14
ATOM     14  CG  UNL     1      35.652 -18.026 -21.336  0.00  0.00    +0.060 C 
BRANCH  14  15
ATOM     15  SD  UNL     1      34.703 -16.477 -21.385  0.00  0.00    -0.139 S 
ATOM     16  CE  UNL     1      34.946 -16.079 -23.131  0.00  0.00    +0.069 C 
ENDBRANCH  14  15
ENDBRANCH  13  14
ENDBRANCH   1  13
TORSDOF 6
ENDMDL
MODEL 7
REMARK VINA RESULT:      -5.3      3.836      4.873
REMARK  Name = 448878
REMARK  6 active torsions:
REMARK  status: ('A' for Active; 'I' for Inactive)
REMARK    1  A    between atoms: CA_1  and  N_3
REMARK    2  A    between atoms: CA_1  and  C_10
REMARK    3  A    between atoms: CA_1  and  CB_13
REMARK    4  A    between atoms: C_10  and  O_11
REMARK    5  A    between atoms: CB_13  and  CG_14
REMARK    6  A    between atoms: CG_14  and  SD_15
REMARK                            x       y       z     vdW  Elec       q    Type
REMARK                         _______ _______ _______ _____ _____    ______ ____
ROOT
ATOM      1  CA  UNL     1      35.385 -23.803 -12.543  0.00  0.00    +0.173 C 
ENDROOT
BRANCH   1   3
ATOM      2  O   UNL     1      32.563 -23.275 -12.960  0.00  0.00    -0.253 OA
ATOM      3  N   UNL     1      34.412 -24.677 -13.147  0.00  0.00    -0.281 N 
ATOM      4  N   UNL     1      32.349 -25.353 -13.915  0.00  0.00    -0.313 N 
ATOM      5  C   ACE A   0      33.071 -24.341 -13.308  0.00  0.00    +0.298 C 
ATOM      6  H   UNL     1      34.711 -25.560 -13.464  0.00  0.00    +0.151 HD
ATOM      7  H   UNL     1      31.387 -25.237 -14.084  0.00  0.00    +0.146 HD
ATOM      8  H   UNL     1      32.798 -26.189 -14.176  0.00  0.00    +0.146 HD
ENDBRANCH   1   3
BRANCH   1  10
ATOM      9  OXT UNL     1      37.260 -24.348 -11.112  0.00  0.00    -0.248 OA
ATOM     10  C   UNL     1      36.055 -24.427 -11.329  0.00  0.00    +0.332 C 
BRANCH  10  11
ATOM     11  O   UNL     1      35.221 -25.131 -10.526  0.00  0.00    -0.479 OA
ATOM     12  H   UNL     1      35.165 -24.926  -9.614  0.00  0.00    +0.295 HD
ENDBRANCH  10  11
ENDBRANCH   1  10
BRANCH   1  13
ATOM     13  CB  UNL     1      36.404 -23.312 -13.579  0.00  0.00    +0.043 C 
BRANCH  13  14
ATOM     14  CG  UNL     1      36.563 -24.251 -14.777  0.00  0.00    +0.060 C 
BRANCH  14  15
ATOM     15  SD  UNL     1      38.064 -25.259 -14.597  0.00  0.00    -0.139 S 
ATOM     16  CE  UNL     1      37.282 -26.793 -14.048  0.00  0.00    +0.069 C 
ENDBRANCH  14  15
ENDBRANCH  13  14
ENDBRANCH   1  13
TORSDOF 6
ENDMDL
MODEL 8
REMARK VINA RESULT:      -5.3     11.191     12.655
REMARK  Name = 448878
REMARK  6 active torsions:
REMARK  status: ('A' for Active; 'I' for Inactive)
REMARK    1  A    between atoms: CA_1  and  N_3
REMARK    2  A    between atoms: CA_1  and  C_10
REMARK    3  A    between atoms: CA_1  and  CB_13
REMARK    4  A    between atoms: C_10  and  O_11
REMARK    5  A    between atoms: CB_13  and  CG_14
REMARK    6  A    between atoms: CG_14  and  SD_15
REMARK                            x       y       z     vdW  Elec       q    Type
REMARK                         _______ _______ _______ _____ _____    ______ ____
ROOT
ATOM      1  CA  UNL     1      34.594 -16.938 -23.501  0.00  0.00    +0.173 C 
ENDROOT
BRANCH   1   3
ATOM      2  O   UNL     1      32.807 -14.896 -22.474  0.00  0.00    -0.253 OA
ATOM      3  N   UNL     1      34.752 -15.509 -23.596  0.00  0.00    -0.281 N 
ATOM      4  N   UNL     1      34.223 -13.288 -23.298  0.00  0.00    -0.313 N 
ATOM      5  C   ACE A   0      33.840 -14.598 -23.072  0.00  0.00    +0.298 C 
ATOM      6  H   UNL     1      35.547 -15.158 -24.057  0.00  0.00    +0.151 HD
ATOM      7  H   UNL     1      33.661 -12.548 -22.975  0.00  0.00    +0.146 HD
ATOM      8  H   UNL     1      35.059 -13.097 -23.782  0.00  0.00    +0.146 HD
ENDBRANCH   1   3
BRANCH   1  10
ATOM      9  OXT UNL     1      34.769 -17.011 -25.914  0.00  0.00    -0.248 OA
ATOM     10  C   UNL     1      34.648 -17.623 -24.858  0.00  0.00    +0.332 C 
BRANCH  10  11
ATOM     11  O   UNL     1      34.496 -18.968 -24.815  0.00  0.00    -0.479 OA
ATOM     12  H   UNL     1      33.972 -19.359 -24.143  0.00  0.00    +0.295 HD
ENDBRANCH  10  11
ENDBRANCH   1  10
BRANCH   1  13
ATOM     13  CB  UNL     1      35.597 -17.539 -22.507  0.00  0.00    +0.043 C 
BRANCH  13  14
ATOM     14  CG  UNL     1      34.971 -17.939 -21.169  0.00  0.00    +0.060 C 
BRANCH  14  15
ATOM     15  SD  UNL     1      34.847 -19.747 -21.044  0.00  0.00    -0.139 S 
ATOM     16  CE  UNL     1      33.068 -19.866 -20.750  0.00  0.00    +0.069 C 
ENDBRANCH  14  15
ENDBRANCH  13  14
ENDBRANCH   1  13
TORSDOF 6
ENDMDL
MODEL 9
REMARK VINA RESULT:      -5.2      3.037      4.071
REMARK  Name = 448878
REMARK  6 active torsions:
REMARK  status: ('A' for Active; 'I' for Inactive)
REMARK    1  A    between atoms: CA_1  and  N_3
REMARK    2  A    between atoms: CA_1  and  C_10
REMARK    3  A    between atoms: CA_1  and  CB_13
REMARK    4  A    between atoms: C_10  and  O_11
REMARK    5  A    between atoms: CB_13  and  CG_14
REMARK    6  A    between atoms: CG_14  and  SD_15
REMARK                            x       y       z     vdW  Elec       q    Type
REMARK                         _______ _______ _______ _____ _____    ______ ____
ROOT
ATOM      1  CA  UNL     1      36.651 -24.857 -14.263  0.00  0.00    +0.173 C 
ENDROOT
BRANCH   1   3
ATOM      2  O   UNL     1      38.006 -22.881 -12.628  0.00  0.00    -0.253 OA
ATOM      3  N   UNL     1      36.461 -24.607 -12.857  0.00  0.00    -0.281 N 
ATOM      4  N   UNL     1      36.792 -23.597 -10.815  0.00  0.00    -0.313 N 
ATOM      5  C   ACE A   0      37.158 -23.634 -12.149  0.00  0.00    +0.298 C 
ATOM      6  H   UNL     1      35.803 -25.154 -12.371  0.00  0.00    +0.151 HD
ATOM      7  H   UNL     1      37.215 -22.950 -10.206  0.00  0.00    +0.146 HD
ATOM      8  H   UNL     1      36.108 -24.219 -10.476  0.00  0.00    +0.146 HD
ENDBRANCH   1   3
BRANCH   1  10
ATOM      9  OXT UNL     1      37.417 -27.074 -13.664  0.00  0.00    -0.248 OA
ATOM     10  C   UNL     1      37.110 -26.279 -14.546  0.00  0.00    +0.332 C 
BRANCH  10  11
ATOM     11  O   UNL     1      37.207 -26.587 -15.862  0.00  0.00    -0.479 OA
ATOM     12  H   UNL     1      37.986 -26.373 -16.337  0.00  0.00    +0.295 HD
ENDBRANCH  10  11
ENDBRANCH   1  10
BRANCH   1  13
ATOM     13  CB  UNL     1      35.397 -24.482 -15.064  0.00  0.00    +0.043 C 
BRANCH  13  14
ATOM     14  CG  UNL     1      35.431 -23.061 -15.630  0.00  0.00    +0.060 C 
BRANCH  14  15
ATOM     15  SD  UNL     1      37.131 -22.599 -16.076  0.00  0.00    -0.139 S 
ATOM     16  CE  UNL     1      36.771 -21.760 -17.635  0.00  0.00    +0.069 C 
ENDBRANCH  14  15
ENDBRANCH  13  14
ENDBRANCH   1  13
TORSDOF 6
ENDMDL
