MODEL 1
REMARK VINA RESULT:      -5.6      0.000      0.000
REMARK  Name = 403
REMARK  2 active torsions:
REMARK  status: ('A' for Active; 'I' for Inactive)
REMARK    1  A    between atoms: C_1  and  N_7
REMARK    2  A    between atoms: C_4  and  O_10
REMARK                            x       y       z     vdW  Elec       q    Type
REMARK                         _______ _______ _______ _____ _____    ______ ____
ROOT
ATOM      1  C   UNL     1      35.230 -19.576 -20.940  0.00  0.00    +0.042 C 
ATOM      2  C   UNL     1      35.789 -20.629 -20.217  0.00  0.00    +0.017 C 
ATOM      3  C   UNL     1      33.844 -19.422 -20.989  0.00  0.00    +0.017 C 
ATOM      4  C   UNL     1      33.577 -21.374 -19.592  0.00  0.00    +0.134 C 
ATOM      5  C   UNL     1      34.962 -21.528 -19.543  0.00  0.00    +0.038 C 
ATOM      6  C   UNL     1      33.017 -20.321 -20.315  0.00  0.00    +0.038 C 
ENDROOT
BRANCH   1   7
ATOM      7  N   UNL     1      36.065 -18.667 -21.621  0.00  0.00    -0.357 N 
ATOM      8  H   UNL     1      35.950 -18.523 -22.588  0.00  0.00    +0.142 HD
ATOM      9  H   UNL     1      36.763 -18.176 -21.131  0.00  0.00    +0.142 HD
ENDBRANCH   1   7
BRANCH   4  10
ATOM     10  O   UNL     1      32.770 -22.252 -18.934  0.00  0.00    -0.506 OA
ATOM     11  H   UNL     1      32.725 -23.145 -19.214  0.00  0.00    +0.292 HD
ENDBRANCH   4  10
TORSDOF 2
ENDMDL
MODEL 2
REMARK VINA RESULT:      -5.6      0.002      1.708
REMARK  Name = 403
REMARK  2 active torsions:
REMARK  status: ('A' for Active; 'I' for Inactive)
REMARK    1  A    between atoms: C_1  and  N_7
REMARK    2  A    between atoms: C_4  and  O_10
REMARK                            x       y       z     vdW  Elec       q    Type
REMARK                         _______ _______ _______ _____ _____    ______ ____
ROOT
ATOM      1  C   UNL     1      35.229 -19.575 -20.939  0.00  0.00    +0.042 C 
ATOM      2  C   UNL     1      33.843 -19.421 -20.990  0.00  0.00    +0.017 C 
ATOM      3  C   UNL     1      35.787 -20.629 -20.215  0.00  0.00    +0.017 C 
ATOM      4  C   UNL     1      33.575 -21.375 -19.593  0.00  0.00    +0.134 C 
ATOM      5  C   UNL     1      33.017 -20.322 -20.317  0.00  0.00    +0.038 C 
ATOM      6  C   UNL     1      34.961 -21.529 -19.542  0.00  0.00    +0.038 C 
ENDROOT
BRANCH   1   7
ATOM      7  N   UNL     1      36.064 -18.665 -21.619  0.00  0.00    -0.357 N 
ATOM      8  H   UNL     1      36.984 -18.924 -21.855  0.00  0.00    +0.142 HD
ATOM      9  H   UNL     1      35.728 -17.771 -21.858  0.00  0.00    +0.142 HD
ENDBRANCH   1   7
BRANCH   4  10
ATOM     10  O   UNL     1      32.769 -22.253 -18.937  0.00  0.00    -0.506 OA
ATOM     11  H   UNL     1      31.846 -22.097 -18.891  0.00  0.00    +0.292 HD
ENDBRANCH   4  10
TORSDOF 2
ENDMDL
MODEL 3
REMARK VINA RESULT:      -5.6      2.782      3.265
REMARK  Name = 403
REMARK  2 active torsions:
REMARK  status: ('A' for Active; 'I' for Inactive)
REMARK    1  A    between atoms: C_1  and  N_7
REMARK    2  A    between atoms: C_4  and  O_10
REMARK                            x       y       z     vdW  Elec       q    Type
REMARK                         _______ _______ _______ _____ _____    ______ ____
ROOT
ATOM      1  C   UNL     1      33.654 -21.386 -19.535  0.00  0.00    +0.042 C 
ATOM      2  C   UNL     1      35.038 -21.545 -19.480  0.00  0.00    +0.017 C 
ATOM      3  C   UNL     1      33.100 -20.353 -20.292  0.00  0.00    +0.017 C 
ATOM      4  C   UNL     1      35.314 -19.637 -20.938  0.00  0.00    +0.134 C 
ATOM      5  C   UNL     1      35.869 -20.670 -20.181  0.00  0.00    +0.038 C 
ATOM      6  C   UNL     1      33.930 -19.479 -20.993  0.00  0.00    +0.038 C 
ENDROOT
BRANCH   1   7
ATOM      7  N   UNL     1      32.814 -22.270 -18.826  0.00  0.00    -0.357 N 
ATOM      8  H   UNL     1      32.038 -21.920 -18.331  0.00  0.00    +0.142 HD
ATOM      9  H   UNL     1      33.003 -23.236 -18.827  0.00  0.00    +0.142 HD
ENDBRANCH   1   7
BRANCH   4  10
ATOM     10  O   UNL     1      36.125 -18.784 -21.622  0.00  0.00    -0.506 OA
ATOM     11  H   UNL     1      36.792 -18.307 -21.168  0.00  0.00    +0.292 HD
ENDBRANCH   4  10
TORSDOF 2
ENDMDL
MODEL 4
REMARK VINA RESULT:      -5.6      2.782      3.685
REMARK  Name = 403
REMARK  2 active torsions:
REMARK  status: ('A' for Active; 'I' for Inactive)
REMARK    1  A    between atoms: C_1  and  N_7
REMARK    2  A    between atoms: C_4  and  O_10
REMARK                            x       y       z     vdW  Elec       q    Type
REMARK                         _______ _______ _______ _____ _____    ______ ____
ROOT
ATOM      1  C   UNL     1      33.652 -21.389 -19.530  0.00  0.00    +0.042 C 
ATOM      2  C   UNL     1      33.097 -20.358 -20.286  0.00  0.00    +0.017 C 
ATOM      3  C   UNL     1      35.038 -21.547 -19.476  0.00  0.00    +0.017 C 
ATOM      4  C   UNL     1      35.312 -19.642 -20.936  0.00  0.00    +0.134 C 
ATOM      5  C   UNL     1      33.927 -19.484 -20.989  0.00  0.00    +0.038 C 
ATOM      6  C   UNL     1      35.867 -20.673 -20.179  0.00  0.00    +0.038 C 
ENDROOT
BRANCH   1   7
ATOM      7  N   UNL     1      32.814 -22.272 -18.819  0.00  0.00    -0.357 N 
ATOM      8  H   UNL     1      31.837 -22.145 -18.838  0.00  0.00    +0.142 HD
ATOM      9  H   UNL     1      33.203 -23.015 -18.304  0.00  0.00    +0.142 HD
ENDBRANCH   1   7
BRANCH   4  10
ATOM     10  O   UNL     1      36.121 -18.789 -21.621  0.00  0.00    -0.506 OA
ATOM     11  H   UNL     1      37.045 -18.946 -21.656  0.00  0.00    +0.292 HD
ENDBRANCH   4  10
TORSDOF 2
ENDMDL
MODEL 5
REMARK VINA RESULT:      -5.2      4.361      5.293
REMARK  Name = 403
REMARK  2 active torsions:
REMARK  status: ('A' for Active; 'I' for Inactive)
REMARK    1  A    between atoms: C_1  and  N_7
REMARK    2  A    between atoms: C_4  and  O_10
REMARK                            x       y       z     vdW  Elec       q    Type
REMARK                         _______ _______ _______ _____ _____    ______ ____
ROOT
ATOM      1  C   UNL     1      35.207 -18.123 -22.085  0.00  0.00    +0.042 C 
ATOM      2  C   UNL     1      35.178 -16.751 -22.332  0.00  0.00    +0.017 C 
ATOM      3  C   UNL     1      34.981 -19.024 -23.125  0.00  0.00    +0.017 C 
ATOM      4  C   UNL     1      34.697 -17.181 -24.661  0.00  0.00    +0.134 C 
ATOM      5  C   UNL     1      34.923 -16.280 -23.621  0.00  0.00    +0.038 C 
ATOM      6  C   UNL     1      34.726 -18.554 -24.414  0.00  0.00    +0.038 C 
ENDROOT
BRANCH   1   7
ATOM      7  N   UNL     1      35.465 -18.599 -20.783  0.00  0.00    -0.357 N 
ATOM      8  H   UNL     1      36.350 -18.968 -20.560  0.00  0.00    +0.142 HD
ATOM      9  H   UNL     1      34.761 -18.562 -20.096  0.00  0.00    +0.142 HD
ENDBRANCH   1   7
BRANCH   4  10
ATOM     10  O   UNL     1      34.448 -16.722 -25.918  0.00  0.00    -0.506 OA
ATOM     11  H   UNL     1      34.634 -17.264 -26.660  0.00  0.00    +0.292 HD
ENDBRANCH   4  10
TORSDOF 2
ENDMDL
MODEL 6
REMARK VINA RESULT:      -5.2      4.361      5.209
REMARK  Name = 403
REMARK  2 active torsions:
REMARK  status: ('A' for Active; 'I' for Inactive)
REMARK    1  A    between atoms: C_1  and  N_7
REMARK    2  A    between atoms: C_4  and  O_10
REMARK                            x       y       z     vdW  Elec       q    Type
REMARK                         _______ _______ _______ _____ _____    ______ ____
ROOT
ATOM      1  C   UNL     1      35.207 -18.120 -22.085  0.00  0.00    +0.042 C 
ATOM      2  C   UNL     1      34.978 -19.023 -23.123  0.00  0.00    +0.017 C 
ATOM      3  C   UNL     1      35.179 -16.748 -22.336  0.00  0.00    +0.017 C 
ATOM      4  C   UNL     1      34.692 -17.182 -24.662  0.00  0.00    +0.134 C 
ATOM      5  C   UNL     1      34.721 -18.555 -24.411  0.00  0.00    +0.038 C 
ATOM      6  C   UNL     1      34.921 -16.279 -23.625  0.00  0.00    +0.038 C 
ENDROOT
BRANCH   1   7
ATOM      7  N   UNL     1      35.467 -18.594 -20.783  0.00  0.00    -0.357 N 
ATOM      8  H   UNL     1      34.755 -19.042 -20.271  0.00  0.00    +0.142 HD
ATOM      9  H   UNL     1      36.360 -18.477 -20.385  0.00  0.00    +0.142 HD
ENDBRANCH   1   7
BRANCH   4  10
ATOM     10  O   UNL     1      34.441 -16.725 -25.919  0.00  0.00    -0.506 OA
ATOM     11  H   UNL     1      34.919 -17.071 -26.647  0.00  0.00    +0.292 HD
ENDBRANCH   4  10
TORSDOF 2
ENDMDL
MODEL 7
REMARK VINA RESULT:      -5.2      9.232      9.477
REMARK  Name = 403
REMARK  2 active torsions:
REMARK  status: ('A' for Active; 'I' for Inactive)
REMARK    1  A    between atoms: C_1  and  N_7
REMARK    2  A    between atoms: C_4  and  O_10
REMARK                            x       y       z     vdW  Elec       q    Type
REMARK                         _______ _______ _______ _____ _____    ______ ____
ROOT
ATOM      1  C   UNL     1      42.018 -15.972 -18.146  0.00  0.00    +0.042 C 
ATOM      2  C   UNL     1      41.938 -16.838 -17.055  0.00  0.00    +0.017 C 
ATOM      3  C   UNL     1      41.598 -14.648 -18.018  0.00  0.00    +0.017 C 
ATOM      4  C   UNL     1      41.018 -15.054 -15.708  0.00  0.00    +0.134 C 
ATOM      5  C   UNL     1      41.438 -16.379 -15.836  0.00  0.00    +0.038 C 
ATOM      6  C   UNL     1      41.098 -14.189 -16.799  0.00  0.00    +0.038 C 
ENDROOT
BRANCH   1   7
ATOM      7  N   UNL     1      42.523 -16.436 -19.378  0.00  0.00    -0.357 N 
ATOM      8  H   UNL     1      41.906 -16.640 -20.117  0.00  0.00    +0.142 HD
ATOM      9  H   UNL     1      43.493 -16.556 -19.499  0.00  0.00    +0.142 HD
ENDBRANCH   1   7
BRANCH   4  10
ATOM     10  O   UNL     1      40.531 -14.607 -14.519  0.00  0.00    -0.506 OA
ATOM     11  H   UNL     1      39.956 -13.866 -14.498  0.00  0.00    +0.292 HD
ENDBRANCH   4  10
TORSDOF 2
ENDMDL
MODEL 8
REMARK VINA RESULT:      -5.1      2.701      3.158
REMARK  Name = 403
REMARK  2 active torsions:
REMARK  status: ('A' for Active; 'I' for Inactive)
REMARK    1  A    between atoms: C_1  and  N_7
REMARK    2  A    between atoms: C_4  and  O_10
REMARK                            x       y       z     vdW  Elec       q    Type
REMARK                         _______ _______ _______ _____ _____    ______ ____
ROOT
ATOM      1  C   UNL     1      34.377 -21.401 -19.536  0.00  0.00    +0.042 C 
ATOM      2  C   UNL     1      35.594 -20.922 -20.022  0.00  0.00    +0.017 C 
ATOM      3  C   UNL     1      33.183 -20.794 -19.927  0.00  0.00    +0.017 C 
ATOM      4  C   UNL     1      34.422 -19.231 -21.289  0.00  0.00    +0.134 C 
ATOM      5  C   UNL     1      35.616 -19.837 -20.898  0.00  0.00    +0.038 C 
ATOM      6  C   UNL     1      33.205 -19.710 -20.804  0.00  0.00    +0.038 C 
ENDROOT
BRANCH   1   7
ATOM      7  N   UNL     1      34.354 -22.497 -18.650  0.00  0.00    -0.357 N 
ATOM      8  H   UNL     1      34.149 -23.399 -18.988  0.00  0.00    +0.142 HD
ATOM      9  H   UNL     1      34.543 -22.362 -17.693  0.00  0.00    +0.142 HD
ENDBRANCH   1   7
BRANCH   4  10
ATOM     10  O   UNL     1      34.444 -18.173 -22.145  0.00  0.00    -0.506 OA
ATOM     11  H   UNL     1      34.895 -18.242 -22.963  0.00  0.00    +0.292 HD
ENDBRANCH   4  10
TORSDOF 2
ENDMDL
MODEL 9
REMARK VINA RESULT:      -5.0      4.479      5.340
REMARK  Name = 403
REMARK  2 active torsions:
REMARK  status: ('A' for Active; 'I' for Inactive)
REMARK    1  A    between atoms: C_1  and  N_7
REMARK    2  A    between atoms: C_4  and  O_10
REMARK                            x       y       z     vdW  Elec       q    Type
REMARK                         _______ _______ _______ _____ _____    ______ ____
ROOT
ATOM      1  C   UNL     1      34.451 -14.658 -22.767  0.00  0.00    +0.042 C 
ATOM      2  C   UNL     1      34.320 -14.701 -21.379  0.00  0.00    +0.017 C 
ATOM      3  C   UNL     1      34.890 -15.786 -23.461  0.00  0.00    +0.017 C 
ATOM      4  C   UNL     1      35.066 -16.999 -21.379  0.00  0.00    +0.134 C 
ATOM      5  C   UNL     1      34.628 -15.871 -20.685  0.00  0.00    +0.038 C 
ATOM      6  C   UNL     1      35.197 -16.957 -22.767  0.00  0.00    +0.038 C 
ENDROOT
BRANCH   1   7
ATOM      7  N   UNL     1      34.140 -13.475 -23.469  0.00  0.00    -0.357 N 
ATOM      8  H   UNL     1      33.276 -13.392 -23.934  0.00  0.00    +0.142 HD
ATOM      9  H   UNL     1      34.786 -12.733 -23.494  0.00  0.00    +0.142 HD
ENDBRANCH   1   7
BRANCH   4  10
ATOM     10  O   UNL     1      35.366 -18.141 -20.702  0.00  0.00    -0.506 OA
ATOM     11  H   UNL     1      36.082 -18.677 -20.983  0.00  0.00    +0.292 HD
ENDBRANCH   4  10
TORSDOF 2
ENDMDL
