MODEL 1
REMARK VINA RESULT:      -5.9      0.000      0.000
REMARK  Name = 5443
REMARK  3 active torsions:
REMARK  status: ('A' for Active; 'I' for Inactive)
REMARK    1  A    between atoms: C_1  and  C_10
REMARK    2  A    between atoms: C_2  and  S_7
REMARK    3  A    between atoms: C_10  and  O_11
REMARK                            x       y       z     vdW  Elec       q    Type
REMARK                         _______ _______ _______ _____ _____    ______ ____
ROOT
ATOM      1  C   UNL     1      34.115 -21.434 -19.603  0.00  0.00    +0.081 C 
ATOM      2  C   UNL     1      35.236 -20.758 -20.085  0.00  0.00    +0.028 C 
ATOM      3  C   UNL     1      32.837 -20.943 -19.871  0.00  0.00    +0.007 C 
ATOM      4  C   UNL     1      35.079 -19.591 -20.835  0.00  0.00    +0.006 C 
ATOM      5  C   UNL     1      32.680 -19.777 -20.620  0.00  0.00    +0.000 C 
ATOM      6  C   UNL     1      33.801 -19.101 -21.101  0.00  0.00    +0.000 C 
ENDROOT
BRANCH   2   7
ATOM      7  S   UNL     1      36.898 -21.341 -19.773  0.00  0.00    -0.141 S 
ATOM      8  H   UNL     1      37.307 -20.911 -18.549  0.00  0.00    +0.107 HD
ENDBRANCH   2   7
BRANCH   1  10
ATOM      9  O   UNL     1      34.537 -22.711 -17.624  0.00  0.00    -0.245 OA
ATOM     10  C   UNL     1      34.221 -22.657 -18.816  0.00  0.00    +0.338 C 
BRANCH  10  11
ATOM     11  O   UNL     1      33.928 -23.767 -19.544  0.00  0.00    -0.477 OA
ATOM     12  H   UNL     1      34.594 -24.402 -19.719  0.00  0.00    +0.295 HD
ENDBRANCH  10  11
ENDBRANCH   1  10
TORSDOF 3
ENDMDL
MODEL 2
REMARK VINA RESULT:      -5.7      3.787      4.637
REMARK  Name = 5443
REMARK  3 active torsions:
REMARK  status: ('A' for Active; 'I' for Inactive)
REMARK    1  A    between atoms: C_1  and  C_10
REMARK    2  A    between atoms: C_2  and  S_7
REMARK    3  A    between atoms: C_10  and  O_11
REMARK                            x       y       z     vdW  Elec       q    Type
REMARK                         _______ _______ _______ _____ _____    ______ ____
ROOT
ATOM      1  C   UNL     1      34.786 -18.396 -22.416  0.00  0.00    +0.081 C 
ATOM      2  C   UNL     1      34.670 -17.009 -22.495  0.00  0.00    +0.028 C 
ATOM      3  C   UNL     1      34.812 -19.161 -23.582  0.00  0.00    +0.007 C 
ATOM      4  C   UNL     1      34.581 -16.386 -23.741  0.00  0.00    +0.006 C 
ATOM      5  C   UNL     1      34.723 -18.539 -24.827  0.00  0.00    +0.000 C 
ATOM      6  C   UNL     1      34.607 -17.151 -24.906  0.00  0.00    +0.000 C 
ENDROOT
BRANCH   2   7
ATOM      7  S   UNL     1      34.632 -15.978 -21.033  0.00  0.00    -0.141 S 
ATOM      8  H   UNL     1      34.914 -16.734 -19.939  0.00  0.00    +0.107 HD
ENDBRANCH   2   7
BRANCH   1  10
ATOM      9  O   UNL     1      35.922 -19.266 -20.498  0.00  0.00    -0.245 OA
ATOM     10  C   UNL     1      34.883 -19.098 -21.141  0.00  0.00    +0.338 C 
BRANCH  10  11
ATOM     11  O   UNL     1      33.678 -19.564 -20.716  0.00  0.00    -0.477 OA
ATOM     12  H   UNL     1      32.905 -19.389 -21.216  0.00  0.00    +0.295 HD
ENDBRANCH  10  11
ENDBRANCH   1  10
TORSDOF 3
ENDMDL
MODEL 3
REMARK VINA RESULT:      -5.6      3.306      4.427
REMARK  Name = 5443
REMARK  3 active torsions:
REMARK  status: ('A' for Active; 'I' for Inactive)
REMARK    1  A    between atoms: C_1  and  C_10
REMARK    2  A    between atoms: C_2  and  S_7
REMARK    3  A    between atoms: C_10  and  O_11
REMARK                            x       y       z     vdW  Elec       q    Type
REMARK                         _______ _______ _______ _____ _____    ______ ____
ROOT
ATOM      1  C   UNL     1      35.388 -19.809 -20.596  0.00  0.00    +0.081 C 
ATOM      2  C   UNL     1      34.162 -20.395 -20.279  0.00  0.00    +0.028 C 
ATOM      3  C   UNL     1      36.571 -20.361 -20.105  0.00  0.00    +0.007 C 
ATOM      4  C   UNL     1      34.119 -21.532 -19.472  0.00  0.00    +0.006 C 
ATOM      5  C   UNL     1      36.528 -21.498 -19.298  0.00  0.00    +0.000 C 
ATOM      6  C   UNL     1      35.302 -22.083 -18.982  0.00  0.00    +0.000 C 
ENDROOT
BRANCH   2   7
ATOM      7  S   UNL     1      32.614 -19.730 -20.881  0.00  0.00    -0.141 S 
ATOM      8  H   UNL     1      32.093 -20.569 -21.816  0.00  0.00    +0.107 HD
ENDBRANCH   2   7
BRANCH   1  10
ATOM      9  O   UNL     1      35.645 -18.624 -22.658  0.00  0.00    -0.245 OA
ATOM     10  C   UNL     1      35.491 -18.621 -21.434  0.00  0.00    +0.338 C 
BRANCH  10  11
ATOM     11  O   UNL     1      35.395 -17.471 -20.714  0.00  0.00    -0.477 OA
ATOM     12  H   UNL     1      34.704 -17.365 -20.090  0.00  0.00    +0.295 HD
ENDBRANCH  10  11
ENDBRANCH   1  10
TORSDOF 3
ENDMDL
MODEL 4
REMARK VINA RESULT:      -5.6      7.141      8.140
REMARK  Name = 5443
REMARK  3 active torsions:
REMARK  status: ('A' for Active; 'I' for Inactive)
REMARK    1  A    between atoms: C_1  and  C_10
REMARK    2  A    between atoms: C_2  and  S_7
REMARK    3  A    between atoms: C_10  and  O_11
REMARK                            x       y       z     vdW  Elec       q    Type
REMARK                         _______ _______ _______ _____ _____    ______ ____
ROOT
ATOM      1  C   UNL     1      33.959 -15.064 -23.684  0.00  0.00    +0.081 C 
ATOM      2  C   UNL     1      33.828 -15.669 -24.934  0.00  0.00    +0.028 C 
ATOM      3  C   UNL     1      34.643 -15.720 -22.661  0.00  0.00    +0.007 C 
ATOM      4  C   UNL     1      34.382 -16.929 -25.161  0.00  0.00    +0.006 C 
ATOM      5  C   UNL     1      35.196 -16.979 -22.887  0.00  0.00    +0.000 C 
ATOM      6  C   UNL     1      35.065 -17.585 -24.137  0.00  0.00    +0.000 C 
ENDROOT
BRANCH   2   7
ATOM      7  S   UNL     1      32.961 -14.874 -26.283  0.00  0.00    -0.141 S 
ATOM      8  H   UNL     1      33.113 -13.526 -26.187  0.00  0.00    +0.107 HD
ENDBRANCH   2   7
BRANCH   1  10
ATOM      9  O   UNL     1      32.276 -13.539 -22.931  0.00  0.00    -0.245 OA
ATOM     10  C   UNL     1      33.401 -13.748 -23.393  0.00  0.00    +0.338 C 
BRANCH  10  11
ATOM     11  O   UNL     1      34.268 -12.743 -23.686  0.00  0.00    -0.477 OA
ATOM     12  H   UNL     1      34.051 -11.858 -23.468  0.00  0.00    +0.295 HD
ENDBRANCH  10  11
ENDBRANCH   1  10
TORSDOF 3
ENDMDL
MODEL 5
REMARK VINA RESULT:      -5.6      2.838      3.592
REMARK  Name = 5443
REMARK  3 active torsions:
REMARK  status: ('A' for Active; 'I' for Inactive)
REMARK    1  A    between atoms: C_1  and  C_10
REMARK    2  A    between atoms: C_2  and  S_7
REMARK    3  A    between atoms: C_10  and  O_11
REMARK                            x       y       z     vdW  Elec       q    Type
REMARK                         _______ _______ _______ _____ _____    ______ ____
ROOT
ATOM      1  C   UNL     1      34.369 -19.922 -20.685  0.00  0.00    +0.081 C 
ATOM      2  C   UNL     1      35.630 -20.346 -20.264  0.00  0.00    +0.028 C 
ATOM      3  C   UNL     1      33.227 -20.595 -20.251  0.00  0.00    +0.007 C 
ATOM      4  C   UNL     1      35.748 -21.442 -19.408  0.00  0.00    +0.006 C 
ATOM      5  C   UNL     1      33.345 -21.690 -19.396  0.00  0.00    +0.000 C 
ATOM      6  C   UNL     1      34.606 -22.114 -18.975  0.00  0.00    +0.000 C 
ENDROOT
BRANCH   2   7
ATOM      7  S   UNL     1      37.128 -19.521 -20.789  0.00  0.00    -0.141 S 
ATOM      8  H   UNL     1      37.553 -18.684 -19.805  0.00  0.00    +0.107 HD
ENDBRANCH   2   7
BRANCH   1  10
ATOM      9  O   UNL     1      33.954 -17.627 -21.219  0.00  0.00    -0.245 OA
ATOM     10  C   UNL     1      34.188 -18.783 -21.578  0.00  0.00    +0.338 C 
BRANCH  10  11
ATOM     11  O   UNL     1      34.308 -19.130 -22.887  0.00  0.00    -0.477 OA
ATOM     12  H   UNL     1      34.294 -20.033 -23.136  0.00  0.00    +0.295 HD
ENDBRANCH  10  11
ENDBRANCH   1  10
TORSDOF 3
ENDMDL
MODEL 6
REMARK VINA RESULT:      -5.6      4.207      5.147
REMARK  Name = 5443
REMARK  3 active torsions:
REMARK  status: ('A' for Active; 'I' for Inactive)
REMARK    1  A    between atoms: C_1  and  C_10
REMARK    2  A    between atoms: C_2  and  S_7
REMARK    3  A    between atoms: C_10  and  O_11
REMARK                            x       y       z     vdW  Elec       q    Type
REMARK                         _______ _______ _______ _____ _____    ______ ____
ROOT
ATOM      1  C   UNL     1      34.814 -17.002 -21.585  0.00  0.00    +0.081 C 
ATOM      2  C   UNL     1      34.763 -16.743 -22.954  0.00  0.00    +0.028 C 
ATOM      3  C   UNL     1      34.633 -15.964 -20.671  0.00  0.00    +0.007 C 
ATOM      4  C   UNL     1      34.530 -15.445 -23.410  0.00  0.00    +0.006 C 
ATOM      5  C   UNL     1      34.399 -14.667 -21.127  0.00  0.00    +0.000 C 
ATOM      6  C   UNL     1      34.348 -14.407 -22.497  0.00  0.00    +0.000 C 
ENDROOT
BRANCH   2   7
ATOM      7  S   UNL     1      34.989 -18.036 -24.170  0.00  0.00    -0.141 S 
ATOM      8  H   UNL     1      34.056 -17.903 -25.151  0.00  0.00    +0.107 HD
ENDBRANCH   2   7
BRANCH   1  10
ATOM      9  O   UNL     1      36.154 -18.784 -20.715  0.00  0.00    -0.245 OA
ATOM     10  C   UNL     1      35.054 -18.339 -21.053  0.00  0.00    +0.338 C 
BRANCH  10  11
ATOM     11  O   UNL     1      33.912 -19.071 -20.961  0.00  0.00    -0.477 OA
ATOM     12  H   UNL     1      33.460 -19.133 -20.143  0.00  0.00    +0.295 HD
ENDBRANCH  10  11
ENDBRANCH   1  10
TORSDOF 3
ENDMDL
MODEL 7
REMARK VINA RESULT:      -5.5     11.619     12.763
REMARK  Name = 5443
REMARK  3 active torsions:
REMARK  status: ('A' for Active; 'I' for Inactive)
REMARK    1  A    between atoms: C_1  and  C_10
REMARK    2  A    between atoms: C_2  and  S_7
REMARK    3  A    between atoms: C_10  and  O_11
REMARK                            x       y       z     vdW  Elec       q    Type
REMARK                         _______ _______ _______ _____ _____    ______ ____
ROOT
ATOM      1  C   UNL     1      32.004  -8.965 -20.514  0.00  0.00    +0.081 C 
ATOM      2  C   UNL     1      31.995  -9.563 -21.774  0.00  0.00    +0.028 C 
ATOM      3  C   UNL     1      31.702  -9.721 -19.382  0.00  0.00    +0.007 C 
ATOM      4  C   UNL     1      31.685 -10.918 -21.902  0.00  0.00    +0.006 C 
ATOM      5  C   UNL     1      31.392 -11.075 -19.509  0.00  0.00    +0.000 C 
ATOM      6  C   UNL     1      31.383 -11.673 -20.769  0.00  0.00    +0.000 C 
ENDROOT
BRANCH   2   7
ATOM      7  S   UNL     1      32.375  -8.642 -23.261  0.00  0.00    -0.141 S 
ATOM      8  H   UNL     1      33.720  -8.630 -23.455  0.00  0.00    +0.107 HD
ENDBRANCH   2   7
BRANCH   1  10
ATOM      9  O   UNL     1      31.678  -6.610 -20.790  0.00  0.00    -0.245 OA
ATOM     10  C   UNL     1      32.321  -7.554 -20.324  0.00  0.00    +0.338 C 
BRANCH  10  11
ATOM     11  O   UNL     1      33.428  -7.374 -19.555  0.00  0.00    -0.477 OA
ATOM     12  H   UNL     1      33.674  -6.511 -19.283  0.00  0.00    +0.295 HD
ENDBRANCH  10  11
ENDBRANCH   1  10
TORSDOF 3
ENDMDL
MODEL 8
REMARK VINA RESULT:      -5.5      5.231      5.994
REMARK  Name = 5443
REMARK  3 active torsions:
REMARK  status: ('A' for Active; 'I' for Inactive)
REMARK    1  A    between atoms: C_1  and  C_10
REMARK    2  A    between atoms: C_2  and  S_7
REMARK    3  A    between atoms: C_10  and  O_11
REMARK                            x       y       z     vdW  Elec       q    Type
REMARK                         _______ _______ _______ _____ _____    ______ ____
ROOT
ATOM      1  C   UNL     1      34.509 -16.711 -21.812  0.00  0.00    +0.081 C 
ATOM      2  C   UNL     1      34.499 -16.457 -23.184  0.00  0.00    +0.028 C 
ATOM      3  C   UNL     1      34.878 -17.970 -21.339  0.00  0.00    +0.007 C 
ATOM      4  C   UNL     1      34.860 -17.463 -24.082  0.00  0.00    +0.006 C 
ATOM      5  C   UNL     1      35.238 -18.974 -22.236  0.00  0.00    +0.000 C 
ATOM      6  C   UNL     1      35.228 -18.721 -23.608  0.00  0.00    +0.000 C 
ENDROOT
BRANCH   2   7
ATOM      7  S   UNL     1      34.035 -14.862 -23.847  0.00  0.00    -0.141 S 
ATOM      8  H   UNL     1      32.790 -14.941 -24.388  0.00  0.00    +0.107 HD
ENDBRANCH   2   7
BRANCH   1  10
ATOM      9  O   UNL     1      34.932 -14.946 -20.253  0.00  0.00    -0.245 OA
ATOM     10  C   UNL     1      34.142 -15.697 -20.830  0.00  0.00    +0.338 C 
BRANCH  10  11
ATOM     11  O   UNL     1      32.802 -15.657 -20.606  0.00  0.00    -0.477 OA
ATOM     12  H   UNL     1      32.351 -16.426 -20.316  0.00  0.00    +0.295 HD
ENDBRANCH  10  11
ENDBRANCH   1  10
TORSDOF 3
ENDMDL
MODEL 9
REMARK VINA RESULT:      -5.5      2.532      3.820
REMARK  Name = 5443
REMARK  3 active torsions:
REMARK  status: ('A' for Active; 'I' for Inactive)
REMARK    1  A    between atoms: C_1  and  C_10
REMARK    2  A    between atoms: C_2  and  S_7
REMARK    3  A    between atoms: C_10  and  O_11
REMARK                            x       y       z     vdW  Elec       q    Type
REMARK                         _______ _______ _______ _____ _____    ______ ____
ROOT
ATOM      1  C   UNL     1      34.843 -22.536 -17.829  0.00  0.00    +0.081 C 
ATOM      2  C   UNL     1      36.005 -21.854 -18.191  0.00  0.00    +0.028 C 
ATOM      3  C   UNL     1      34.713 -23.056 -16.541  0.00  0.00    +0.007 C 
ATOM      4  C   UNL     1      37.037 -21.692 -17.265  0.00  0.00    +0.006 C 
ATOM      5  C   UNL     1      35.744 -22.894 -15.616  0.00  0.00    +0.000 C 
ATOM      6  C   UNL     1      36.906 -22.212 -15.978  0.00  0.00    +0.000 C 
ENDROOT
BRANCH   2   7
ATOM      7  S   UNL     1      36.226 -21.167 -19.828  0.00  0.00    -0.141 S 
ATOM      8  H   UNL     1      35.017 -21.056 -20.440  0.00  0.00    +0.107 HD
ENDBRANCH   2   7
BRANCH   1  10
ATOM      9  O   UNL     1      32.738 -22.011 -18.839  0.00  0.00    -0.245 OA
ATOM     10  C   UNL     1      33.735 -22.734 -18.756  0.00  0.00    +0.338 C 
BRANCH  10  11
ATOM     11  O   UNL     1      33.912 -23.826 -19.546  0.00  0.00    -0.477 OA
ATOM     12  H   UNL     1      33.670 -24.675 -19.234  0.00  0.00    +0.295 HD
ENDBRANCH  10  11
ENDBRANCH   1  10
TORSDOF 3
ENDMDL
