MODEL 1
REMARK VINA RESULT:      -7.9      0.000      0.000
REMARK  Name = 18343
REMARK  3 active torsions:
REMARK  status: ('A' for Active; 'I' for Inactive)
REMARK    1  A    between atoms: N_4  and  C_14
REMARK    2  A    between atoms: C_12  and  O_17
REMARK    3  A    between atoms: C_13  and  O_19
REMARK                            x       y       z     vdW  Elec       q    Type
REMARK                         _______ _______ _______ _____ _____    ______ ____
ROOT
ATOM      1  F   UNL     1      39.412 -23.872 -16.104  0.00  0.00    -0.198 F 
ATOM      2  O   UNL     1      37.261 -26.649 -11.991  0.00  0.00    -0.252 OA
ATOM      3  O   UNL     1      40.977 -25.122 -14.265  0.00  0.00    -0.267 OA
ATOM      4  N   UNL     1      36.924 -25.352 -13.908  0.00  0.00    -0.214 N 
ATOM      5  N   UNL     1      39.110 -25.889 -13.124  0.00  0.00    -0.234 N 
ATOM      6  C   UNL     1      37.723 -26.010 -12.940  0.00  0.00    +0.316 C 
ATOM      7  C   UNL     1      37.524 -24.651 -14.948  0.00  0.00    +0.106 C 
ATOM      8  C   UNL     1      38.844 -24.556 -15.094  0.00  0.00    +0.208 C 
ATOM      9  C   UNL     1      39.759 -25.203 -14.141  0.00  0.00    +0.282 C 
ATOM     10  H   UNL     1      39.683 -26.339 -12.461  0.00  0.00    +0.159 HD
ENDROOT
BRANCH   4  14
ATOM     11  O   UNL     1      34.957 -25.069 -15.138  0.00  0.00    -0.335 OA
ATOM     12  C   UNL     1      34.925 -24.370 -12.874  0.00  0.00    +0.187 C 
ATOM     13  C   UNL     1      33.582 -24.058 -13.496  0.00  0.00    +0.168 C 
ATOM     14  C   UNL     1      35.492 -25.393 -13.844  0.00  0.00    +0.229 C 
ATOM     15  C   UNL     1      33.902 -24.095 -14.985  0.00  0.00    +0.146 C 
ATOM     16  C   UNL     1      34.404 -22.762 -15.525  0.00  0.00    +0.035 C 
BRANCH  12  17
ATOM     17  O   UNL     1      34.804 -24.876 -11.560  0.00  0.00    -0.378 OA
ATOM     18  H   UNL     1      33.907 -25.221 -11.428  0.00  0.00    +0.211 HD
ENDBRANCH  12  17
BRANCH  13  19
ATOM     19  O   UNL     1      32.652 -25.106 -13.220  0.00  0.00    -0.379 OA
ATOM     20  H   UNL     1      32.956 -25.925 -13.641  0.00  0.00    +0.211 HD
ENDBRANCH  13  19
ENDBRANCH   4  14
TORSDOF 3
ENDMDL
MODEL 2
REMARK VINA RESULT:      -7.9      8.282     10.239
REMARK  Name = 18343
REMARK  3 active torsions:
REMARK  status: ('A' for Active; 'I' for Inactive)
REMARK    1  A    between atoms: N_4  and  C_14
REMARK    2  A    between atoms: C_12  and  O_17
REMARK    3  A    between atoms: C_13  and  O_19
REMARK                            x       y       z     vdW  Elec       q    Type
REMARK                         _______ _______ _______ _____ _____    ______ ____
ROOT
ATOM      1  F   UNL     1      32.609 -21.288 -19.783  0.00  0.00    -0.198 F 
ATOM      2  O   UNL     1      37.710 -19.670 -20.571  0.00  0.00    -0.252 OA
ATOM      3  O   UNL     1      34.716 -22.726 -18.839  0.00  0.00    -0.267 OA
ATOM      4  N   UNL     1      35.426 -19.278 -20.890  0.00  0.00    -0.214 N 
ATOM      5  N   UNL     1      36.219 -21.190 -19.709  0.00  0.00    -0.234 N 
ATOM      6  C   UNL     1      36.537 -20.014 -20.406  0.00  0.00    +0.316 C 
ATOM      7  C   UNL     1      34.133 -19.734 -20.661  0.00  0.00    +0.106 C 
ATOM      8  C   UNL     1      33.867 -20.856 -19.995  0.00  0.00    +0.208 C 
ATOM      9  C   UNL     1      34.950 -21.691 -19.453  0.00  0.00    +0.282 C 
ATOM     10  H   UNL     1      36.977 -21.716 -19.364  0.00  0.00    +0.159 HD
ENDROOT
BRANCH   4  14
ATOM     11  O   UNL     1      35.258 -16.950 -20.769  0.00  0.00    -0.335 OA
ATOM     12  C   UNL     1      34.696 -17.967 -22.834  0.00  0.00    +0.187 C 
ATOM     13  C   UNL     1      34.475 -16.474 -22.953  0.00  0.00    +0.168 C 
ATOM     14  C   UNL     1      35.604 -18.055 -21.619  0.00  0.00    +0.229 C 
ATOM     15  C   UNL     1      34.396 -16.046 -21.493  0.00  0.00    +0.146 C 
ATOM     16  C   UNL     1      32.994 -16.154 -20.909  0.00  0.00    +0.035 C 
BRANCH  12  17
ATOM     17  O   UNL     1      35.286 -18.516 -23.994  0.00  0.00    -0.378 OA
ATOM     18  H   UNL     1      35.224 -17.878 -24.721  0.00  0.00    +0.211 HD
ENDBRANCH  12  17
BRANCH  13  19
ATOM     19  O   UNL     1      35.619 -15.849 -23.534  0.00  0.00    -0.379 OA
ATOM     20  H   UNL     1      36.373 -15.929 -22.929  0.00  0.00    +0.211 HD
ENDBRANCH  13  19
ENDBRANCH   4  14
TORSDOF 3
ENDMDL
MODEL 3
REMARK VINA RESULT:      -7.8      2.985      5.581
REMARK  Name = 18343
REMARK  3 active torsions:
REMARK  status: ('A' for Active; 'I' for Inactive)
REMARK    1  A    between atoms: N_4  and  C_14
REMARK    2  A    between atoms: C_12  and  O_17
REMARK    3  A    between atoms: C_13  and  O_19
REMARK                            x       y       z     vdW  Elec       q    Type
REMARK                         _______ _______ _______ _____ _____    ______ ____
ROOT
ATOM      1  F   UNL     1      32.944 -22.619 -18.158  0.00  0.00    -0.198 F 
ATOM      2  O   UNL     1      32.653 -24.571 -13.123  0.00  0.00    -0.252 OA
ATOM      3  O   UNL     1      30.563 -22.858 -16.865  0.00  0.00    -0.267 OA
ATOM      4  N   UNL     1      33.981 -23.996 -14.960  0.00  0.00    -0.214 N 
ATOM      5  N   UNL     1      31.614 -23.717 -14.985  0.00  0.00    -0.234 N 
ATOM      6  C   UNL     1      32.750 -24.128 -14.269  0.00  0.00    +0.316 C 
ATOM      7  C   UNL     1      34.005 -23.488 -16.254  0.00  0.00    +0.106 C 
ATOM      8  C   UNL     1      32.907 -23.107 -16.904  0.00  0.00    +0.208 C 
ATOM      9  C   UNL     1      31.581 -23.205 -16.275  0.00  0.00    +0.282 C 
ATOM     10  H   UNL     1      30.749 -23.801 -14.523  0.00  0.00    +0.159 HD
ENDROOT
BRANCH   4  14
ATOM     11  O   UNL     1      36.032 -23.204 -14.168  0.00  0.00    -0.335 OA
ATOM     12  C   UNL     1      36.028 -25.329 -15.216  0.00  0.00    +0.187 C 
ATOM     13  C   UNL     1      37.448 -24.986 -14.824  0.00  0.00    +0.168 C 
ATOM     14  C   UNL     1      35.222 -24.377 -14.349  0.00  0.00    +0.229 C 
ATOM     15  C   UNL     1      37.372 -23.476 -14.634  0.00  0.00    +0.146 C 
ATOM     16  C   UNL     1      37.594 -22.696 -15.923  0.00  0.00    +0.035 C 
BRANCH  12  17
ATOM     17  O   UNL     1      35.715 -26.685 -14.970  0.00  0.00    -0.378 OA
ATOM     18  H   UNL     1      36.532 -27.179 -14.801  0.00  0.00    +0.211 HD
ENDBRANCH  12  17
BRANCH  13  19
ATOM     19  O   UNL     1      37.769 -25.571 -13.562  0.00  0.00    -0.379 OA
ATOM     20  H   UNL     1      38.641 -25.993 -13.614  0.00  0.00    +0.211 HD
ENDBRANCH  13  19
ENDBRANCH   4  14
TORSDOF 3
ENDMDL
MODEL 4
REMARK VINA RESULT:      -7.7      7.914      9.974
REMARK  Name = 18343
REMARK  3 active torsions:
REMARK  status: ('A' for Active; 'I' for Inactive)
REMARK    1  A    between atoms: N_4  and  C_14
REMARK    2  A    between atoms: C_12  and  O_17
REMARK    3  A    between atoms: C_13  and  O_19
REMARK                            x       y       z     vdW  Elec       q    Type
REMARK                         _______ _______ _______ _____ _____    ______ ____
ROOT
ATOM      1  F   UNL     1      37.170 -22.035 -18.795  0.00  0.00    -0.198 F 
ATOM      2  O   UNL     1      32.971 -19.510 -21.085  0.00  0.00    -0.252 OA
ATOM      3  O   UNL     1      34.622 -22.924 -18.454  0.00  0.00    -0.267 OA
ATOM      4  N   UNL     1      35.282 -19.618 -20.743  0.00  0.00    -0.214 N 
ATOM      5  N   UNL     1      33.794 -21.210 -19.776  0.00  0.00    -0.234 N 
ATOM      6  C   UNL     1      33.947 -20.066 -20.576  0.00  0.00    +0.316 C 
ATOM      7  C   UNL     1      36.328 -20.302 -20.134  0.00  0.00    +0.106 C 
ATOM      8  C   UNL     1      36.147 -21.384 -19.380  0.00  0.00    +0.208 C 
ATOM      9  C   UNL     1      34.801 -21.928 -19.146  0.00  0.00    +0.282 C 
ATOM     10  H   UNL     1      32.874 -21.537 -19.648  0.00  0.00    +0.159 HD
ENDROOT
BRANCH   4  14
ATOM     11  O   UNL     1      35.347 -17.282 -20.751  0.00  0.00    -0.335 OA
ATOM     12  C   UNL     1      34.698 -18.351 -22.764  0.00  0.00    +0.187 C 
ATOM     13  C   UNL     1      34.629 -16.853 -22.967  0.00  0.00    +0.168 C 
ATOM     14  C   UNL     1      35.586 -18.462 -21.536  0.00  0.00    +0.229 C 
ATOM     15  C   UNL     1      34.585 -16.338 -21.534  0.00  0.00    +0.146 C 
ATOM     16  C   UNL     1      33.176 -16.273 -20.961  0.00  0.00    +0.035 C 
BRANCH  12  17
ATOM     17  O   UNL     1      35.236 -19.021 -23.885  0.00  0.00    -0.378 OA
ATOM     18  H   UNL     1      34.790 -18.713 -24.690  0.00  0.00    +0.211 HD
ENDBRANCH  12  17
BRANCH  13  19
ATOM     19  O   UNL     1      35.833 -16.378 -23.568  0.00  0.00    -0.379 OA
ATOM     20  H   UNL     1      35.616 -15.752 -24.277  0.00  0.00    +0.211 HD
ENDBRANCH  13  19
ENDBRANCH   4  14
TORSDOF 3
ENDMDL
MODEL 5
REMARK VINA RESULT:      -7.6      3.800      6.475
REMARK  Name = 18343
REMARK  3 active torsions:
REMARK  status: ('A' for Active; 'I' for Inactive)
REMARK    1  A    between atoms: N_4  and  C_14
REMARK    2  A    between atoms: C_12  and  O_17
REMARK    3  A    between atoms: C_13  and  O_19
REMARK                            x       y       z     vdW  Elec       q    Type
REMARK                         _______ _______ _______ _____ _____    ______ ____
ROOT
ATOM      1  F   UNL     1      30.604 -23.153 -14.398  0.00  0.00    -0.198 F 
ATOM      2  O   UNL     1      34.164 -23.135 -18.470  0.00  0.00    -0.252 OA
ATOM      3  O   UNL     1      29.891 -22.366 -16.902  0.00  0.00    -0.267 OA
ATOM      4  N   UNL     1      33.726 -23.558 -16.212  0.00  0.00    -0.214 N 
ATOM      5  N   UNL     1      32.038 -22.754 -17.689  0.00  0.00    -0.234 N 
ATOM      6  C   UNL     1      33.374 -23.151 -17.523  0.00  0.00    +0.316 C 
ATOM      7  C   UNL     1      32.775 -23.545 -15.198  0.00  0.00    +0.106 C 
ATOM      8  C   UNL     1      31.515 -23.162 -15.390  0.00  0.00    +0.208 C 
ATOM      9  C   UNL     1      31.050 -22.721 -16.714  0.00  0.00    +0.282 C 
ATOM     10  H   UNL     1      31.773 -22.467 -18.593  0.00  0.00    +0.159 HD
ENDROOT
BRANCH   4  14
ATOM     11  O   UNL     1      35.010 -24.863 -14.759  0.00  0.00    -0.335 OA
ATOM     12  C   UNL     1      35.969 -22.834 -15.520  0.00  0.00    +0.187 C 
ATOM     13  C   UNL     1      36.934 -23.496 -14.561  0.00  0.00    +0.168 C 
ATOM     14  C   UNL     1      35.058 -23.990 -15.899  0.00  0.00    +0.229 C 
ATOM     15  C   UNL     1      36.028 -24.467 -13.815  0.00  0.00    +0.146 C 
ATOM     16  C   UNL     1      35.341 -23.841 -12.608  0.00  0.00    +0.035 C 
BRANCH  12  17
ATOM     17  O   UNL     1      36.624 -22.269 -16.637  0.00  0.00    -0.378 OA
ATOM     18  H   UNL     1      36.137 -21.486 -16.935  0.00  0.00    +0.211 HD
ENDBRANCH  12  17
BRANCH  13  19
ATOM     19  O   UNL     1      37.900 -24.262 -15.281  0.00  0.00    -0.379 OA
ATOM     20  H   UNL     1      38.159 -23.783 -16.084  0.00  0.00    +0.211 HD
ENDBRANCH  13  19
ENDBRANCH   4  14
TORSDOF 3
ENDMDL
MODEL 6
REMARK VINA RESULT:      -7.5     15.983     17.815
REMARK  Name = 18343
REMARK  3 active torsions:
REMARK  status: ('A' for Active; 'I' for Inactive)
REMARK    1  A    between atoms: N_4  and  C_14
REMARK    2  A    between atoms: C_12  and  O_17
REMARK    3  A    between atoms: C_13  and  O_19
REMARK                            x       y       z     vdW  Elec       q    Type
REMARK                         _______ _______ _______ _____ _____    ______ ____
ROOT
ATOM      1  F   UNL     1      34.211 -12.363 -24.554  0.00  0.00    -0.198 F 
ATOM      2  O   UNL     1      30.491 -11.245 -20.791  0.00  0.00    -0.252 OA
ATOM      3  O   UNL     1      32.898 -14.340 -23.226  0.00  0.00    -0.267 OA
ATOM      4  N   UNL     1      32.037 -10.453 -22.357  0.00  0.00    -0.214 N 
ATOM      5  N   UNL     1      31.689 -12.784 -22.004  0.00  0.00    -0.234 N 
ATOM      6  C   UNL     1      31.342 -11.470 -21.654  0.00  0.00    +0.316 C 
ATOM      7  C   UNL     1      32.984 -10.791 -23.317  0.00  0.00    +0.106 C 
ATOM      8  C   UNL     1      33.289 -12.050 -23.624  0.00  0.00    +0.208 C 
ATOM      9  C   UNL     1      32.625 -13.176 -22.951  0.00  0.00    +0.282 C 
ATOM     10  H   UNL     1      31.218 -13.505 -21.526  0.00  0.00    +0.159 HD
ENDROOT
BRANCH   4  14
ATOM     11  O   UNL     1      32.137  -8.303 -23.268  0.00  0.00    -0.335 OA
ATOM     12  C   UNL     1      32.623  -8.521 -20.960  0.00  0.00    +0.187 C 
ATOM     13  C   UNL     1      32.790  -7.070 -21.355  0.00  0.00    +0.168 C 
ATOM     14  C   UNL     1      31.782  -9.064 -22.102  0.00  0.00    +0.229 C 
ATOM     15  C   UNL     1      32.930  -7.165 -22.869  0.00  0.00    +0.146 C 
ATOM     16  C   UNL     1      34.364  -7.401 -23.326  0.00  0.00    +0.035 C 
BRANCH  12  17
ATOM     17  O   UNL     1      31.992  -8.667 -19.704  0.00  0.00    -0.378 OA
ATOM     18  H   UNL     1      31.646  -7.808 -19.415  0.00  0.00    +0.211 HD
ENDBRANCH  12  17
BRANCH  13  19
ATOM     19  O   UNL     1      31.598  -6.338 -21.069  0.00  0.00    -0.379 OA
ATOM     20  H   UNL     1      31.395  -5.748 -21.811  0.00  0.00    +0.211 HD
ENDBRANCH  13  19
ENDBRANCH   4  14
TORSDOF 3
ENDMDL
MODEL 7
REMARK VINA RESULT:      -7.4     14.189     16.332
REMARK  Name = 18343
REMARK  3 active torsions:
REMARK  status: ('A' for Active; 'I' for Inactive)
REMARK    1  A    between atoms: N_4  and  C_14
REMARK    2  A    between atoms: C_12  and  O_17
REMARK    3  A    between atoms: C_13  and  O_19
REMARK                            x       y       z     vdW  Elec       q    Type
REMARK                         _______ _______ _______ _____ _____    ______ ____
ROOT
ATOM      1  F   UNL     1      31.419 -11.010 -18.371  0.00  0.00    -0.198 F 
ATOM      2  O   UNL     1      32.566 -10.092 -23.576  0.00  0.00    -0.252 OA
ATOM      3  O   UNL     1      31.664  -8.482 -19.345  0.00  0.00    -0.267 OA
ATOM      4  N   UNL     1      32.171 -11.641 -21.869  0.00  0.00    -0.214 N 
ATOM      5  N   UNL     1      32.116  -9.292 -21.470  0.00  0.00    -0.234 N 
ATOM      6  C   UNL     1      32.304 -10.331 -22.395  0.00  0.00    +0.316 C 
ATOM      7  C   UNL     1      31.875 -11.826 -20.523  0.00  0.00    +0.106 C 
ATOM      8  C   UNL     1      31.703 -10.817 -19.672  0.00  0.00    +0.208 C 
ATOM      9  C   UNL     1      31.820  -9.420 -20.120  0.00  0.00    +0.282 C 
ATOM     10  H   UNL     1      32.204  -8.374 -21.816  0.00  0.00    +0.159 HD
ENDROOT
BRANCH   4  14
ATOM     11  O   UNL     1      31.880 -13.957 -21.985  0.00  0.00    -0.335 OA
ATOM     12  C   UNL     1      33.791 -13.054 -23.057  0.00  0.00    +0.187 C 
ATOM     13  C   UNL     1      33.817 -14.559 -23.209  0.00  0.00    +0.168 C 
ATOM     14  C   UNL     1      32.336 -12.798 -22.701  0.00  0.00    +0.229 C 
ATOM     15  C   UNL     1      32.863 -15.008 -22.109  0.00  0.00    +0.146 C 
ATOM     16  C   UNL     1      33.543 -15.184 -20.758  0.00  0.00    +0.035 C 
BRANCH  12  17
ATOM     17  O   UNL     1      34.187 -12.388 -24.239  0.00  0.00    -0.378 OA
ATOM     18  H   UNL     1      34.830 -12.934 -24.717  0.00  0.00    +0.211 HD
ENDBRANCH  12  17
BRANCH  13  19
ATOM     19  O   UNL     1      33.252 -14.940 -24.463  0.00  0.00    -0.379 OA
ATOM     20  H   UNL     1      33.583 -14.351 -25.159  0.00  0.00    +0.211 HD
ENDBRANCH  13  19
ENDBRANCH   4  14
TORSDOF 3
ENDMDL
MODEL 8
REMARK VINA RESULT:      -7.3      4.067      5.000
REMARK  Name = 18343
REMARK  3 active torsions:
REMARK  status: ('A' for Active; 'I' for Inactive)
REMARK    1  A    between atoms: N_4  and  C_14
REMARK    2  A    between atoms: C_12  and  O_17
REMARK    3  A    between atoms: C_13  and  O_19
REMARK                            x       y       z     vdW  Elec       q    Type
REMARK                         _______ _______ _______ _____ _____    ______ ____
ROOT
ATOM      1  F   UNL     1      33.145 -22.271 -19.295  0.00  0.00    -0.198 F 
ATOM      2  O   UNL     1      35.094 -23.649 -14.442  0.00  0.00    -0.252 OA
ATOM      3  O   UNL     1      35.765 -21.906 -18.663  0.00  0.00    -0.267 OA
ATOM      4  N   UNL     1      33.260 -23.529 -15.888  0.00  0.00    -0.214 N 
ATOM      5  N   UNL     1      35.427 -22.783 -16.543  0.00  0.00    -0.234 N 
ATOM      6  C   UNL     1      34.622 -23.346 -15.540  0.00  0.00    +0.316 C 
ATOM      7  C   UNL     1      32.807 -23.159 -17.149  0.00  0.00    +0.106 C 
ATOM      8  C   UNL     1      33.598 -22.627 -18.078  0.00  0.00    +0.208 C 
ATOM      9  C   UNL     1      35.026 -22.396 -17.815  0.00  0.00    +0.282 C 
ATOM     10  H   UNL     1      36.377 -22.647 -16.321  0.00  0.00    +0.159 HD
ENDROOT
BRANCH   4  14
ATOM     11  O   UNL     1      31.128 -24.460 -15.668  0.00  0.00    -0.335 OA
ATOM     12  C   UNL     1      31.905 -23.108 -13.884  0.00  0.00    +0.187 C 
ATOM     13  C   UNL     1      30.499 -23.568 -13.566  0.00  0.00    +0.168 C 
ATOM     14  C   UNL     1      32.324 -24.095 -14.960  0.00  0.00    +0.229 C 
ATOM     15  C   UNL     1      29.979 -23.978 -14.937  0.00  0.00    +0.146 C 
ATOM     16  C   UNL     1      29.369 -22.823 -15.719  0.00  0.00    +0.035 C 
BRANCH  12  17
ATOM     17  O   UNL     1      32.752 -23.146 -12.753  0.00  0.00    -0.378 OA
ATOM     18  H   UNL     1      32.239 -22.932 -11.958  0.00  0.00    +0.211 HD
ENDBRANCH  12  17
BRANCH  13  19
ATOM     19  O   UNL     1      30.534 -24.734 -12.742  0.00  0.00    -0.379 OA
ATOM     20  H   UNL     1      30.027 -24.572 -11.931  0.00  0.00    +0.211 HD
ENDBRANCH  13  19
ENDBRANCH   4  14
TORSDOF 3
ENDMDL
MODEL 9
REMARK VINA RESULT:      -7.3      2.439      4.540
REMARK  Name = 18343
REMARK  3 active torsions:
REMARK  status: ('A' for Active; 'I' for Inactive)
REMARK    1  A    between atoms: N_4  and  C_14
REMARK    2  A    between atoms: C_12  and  O_17
REMARK    3  A    between atoms: C_13  and  O_19
REMARK                            x       y       z     vdW  Elec       q    Type
REMARK                         _______ _______ _______ _____ _____    ______ ____
ROOT
ATOM      1  F   UNL     1      37.185 -22.195 -17.685  0.00  0.00    -0.198 F 
ATOM      2  O   UNL     1      33.396 -23.673 -14.120  0.00  0.00    -0.252 OA
ATOM      3  O   UNL     1      34.594 -22.545 -18.432  0.00  0.00    -0.267 OA
ATOM      4  N   UNL     1      35.636 -23.148 -14.539  0.00  0.00    -0.214 N 
ATOM      5  N   UNL     1      33.993 -23.110 -16.265  0.00  0.00    -0.234 N 
ATOM      6  C   UNL     1      34.280 -23.335 -14.910  0.00  0.00    +0.316 C 
ATOM      7  C   UNL     1      36.573 -22.767 -15.492  0.00  0.00    +0.106 C 
ATOM      8  C   UNL     1      36.266 -22.562 -16.771  0.00  0.00    +0.208 C 
ATOM      9  C   UNL     1      34.888 -22.731 -17.256  0.00  0.00    +0.282 C 
ATOM     10  H   UNL     1      33.056 -23.236 -16.543  0.00  0.00    +0.159 HD
ENDROOT
BRANCH   4  14
ATOM     11  O   UNL     1      37.480 -23.070 -13.106  0.00  0.00    -0.335 OA
ATOM     12  C   UNL     1      35.880 -24.774 -12.715  0.00  0.00    +0.187 C 
ATOM     13  C   UNL     1      37.006 -24.929 -11.717  0.00  0.00    +0.168 C 
ATOM     14  C   UNL     1      36.072 -23.342 -13.186  0.00  0.00    +0.229 C 
ATOM     15  C   UNL     1      38.127 -24.133 -12.373  0.00  0.00    +0.146 C 
ATOM     16  C   UNL     1      38.953 -24.954 -13.354  0.00  0.00    +0.035 C 
BRANCH  12  17
ATOM     17  O   UNL     1      34.611 -24.988 -12.131  0.00  0.00    -0.378 OA
ATOM     18  H   UNL     1      34.104 -25.607 -12.680  0.00  0.00    +0.211 HD
ENDBRANCH  12  17
BRANCH  13  19
ATOM     19  O   UNL     1      36.671 -24.286 -10.487  0.00  0.00    -0.379 OA
ATOM     20  H   UNL     1      36.104 -24.871  -9.960  0.00  0.00    +0.211 HD
ENDBRANCH  13  19
ENDBRANCH   4  14
TORSDOF 3
ENDMDL
