MODEL 1
REMARK VINA RESULT:      -4.9      0.000      0.000
REMARK  Name = 5255805
REMARK  5 active torsions:
REMARK  status: ('A' for Active; 'I' for Inactive)
REMARK    1  A    between atoms: CA_1  and  N_2
REMARK    2  A    between atoms: CA_1  and  C_8
REMARK    3  A    between atoms: CA_1  and  CB_9
REMARK    4  A    between atoms: CB_9  and  CG_10
REMARK    5  A    between atoms: CG_10  and  SD_11
REMARK                            x       y       z     vdW  Elec       q    Type
REMARK                         _______ _______ _______ _____ _____    ______ ____
ROOT
ATOM      1  CA  MET A   1      38.725 -25.557 -14.471  0.00  0.00    +0.041 C 
ENDROOT
BRANCH   1   2
ATOM      2  N   MET A   1      38.188 -26.954 -14.493  0.00  0.00    +0.389 N 
ATOM      3  H1  MET A   1      37.753 -27.165 -13.595  0.00  0.00    -0.088 HD
ATOM      4  H2  MET A   1      38.950 -27.609 -14.665  0.00  0.00    -0.088 HD
ATOM      5  H3  MET A   1      37.493 -27.039 -15.235  0.00  0.00    -0.088 HD
ENDBRANCH   1   2
BRANCH   1   8
ATOM      6  O   MET A   1      40.571 -26.109 -15.867  0.00  0.00    -0.248 OA
ATOM      7  OXT MET A   1      40.898 -24.672 -14.125  0.00  0.00    -0.248 OA
ATOM      8  C   MET A   1      40.212 -25.443 -14.855  0.00  0.00    +0.345 C 
ENDBRANCH   1   8
BRANCH   1   9
ATOM      9  CB  MET A   1      38.344 -24.935 -13.120  0.00  0.00    +0.001 C 
BRANCH   9  10
ATOM     10  CG  MET A   1      37.182 -25.640 -12.416  0.00  0.00    +0.056 C 
BRANCH  10  11
ATOM     11  SD  MET A   1      36.053 -24.423 -11.675  0.00  0.00    -0.139 S 
ATOM     12  CE  MET A   1      37.146 -22.986 -11.727  0.00  0.00    +0.069 C 
ENDBRANCH  10  11
ENDBRANCH   9  10
ENDBRANCH   1   9
TORSDOF 5
ENDMDL
MODEL 2
REMARK VINA RESULT:      -4.8      1.185      1.577
REMARK  Name = 5255805
REMARK  5 active torsions:
REMARK  status: ('A' for Active; 'I' for Inactive)
REMARK    1  A    between atoms: CA_1  and  N_2
REMARK    2  A    between atoms: CA_1  and  C_8
REMARK    3  A    between atoms: CA_1  and  CB_9
REMARK    4  A    between atoms: CB_9  and  CG_10
REMARK    5  A    between atoms: CG_10  and  SD_11
REMARK                            x       y       z     vdW  Elec       q    Type
REMARK                         _______ _______ _______ _____ _____    ______ ____
ROOT
ATOM      1  CA  MET A   1      38.774 -25.213 -14.355  0.00  0.00    +0.041 C 
ENDROOT
BRANCH   1   2
ATOM      2  N   MET A   1      37.826 -25.852 -15.322  0.00  0.00    +0.389 N 
ATOM      3  H1  MET A   1      38.121 -25.642 -16.276  0.00  0.00    -0.088 HD
ATOM      4  H2  MET A   1      36.886 -25.487 -15.168  0.00  0.00    -0.088 HD
ATOM      5  H3  MET A   1      37.826 -26.861 -15.181  0.00  0.00    -0.088 HD
ENDBRANCH   1   2
BRANCH   1   8
ATOM      6  O   MET A   1      41.088 -24.708 -14.580  0.00  0.00    -0.248 OA
ATOM      7  OXT MET A   1      40.433 -26.893 -14.569  0.00  0.00    -0.248 OA
ATOM      8  C   MET A   1      40.242 -25.644 -14.527  0.00  0.00    +0.345 C 
ENDBRANCH   1   8
BRANCH   1   9
ATOM      9  CB  MET A   1      38.194 -25.398 -12.946  0.00  0.00    +0.001 C 
BRANCH   9  10
ATOM     10  CG  MET A   1      38.377 -24.184 -12.033  0.00  0.00    +0.056 C 
BRANCH  10  11
ATOM     11  SD  MET A   1      36.828 -23.241 -11.904  0.00  0.00    -0.139 S 
ATOM     12  CE  MET A   1      35.689 -24.634 -11.738  0.00  0.00    +0.069 C 
ENDBRANCH  10  11
ENDBRANCH   9  10
ENDBRANCH   1   9
TORSDOF 5
ENDMDL
MODEL 3
REMARK VINA RESULT:      -4.8      3.979      4.786
REMARK  Name = 5255805
REMARK  5 active torsions:
REMARK  status: ('A' for Active; 'I' for Inactive)
REMARK    1  A    between atoms: CA_1  and  N_2
REMARK    2  A    between atoms: CA_1  and  C_8
REMARK    3  A    between atoms: CA_1  and  CB_9
REMARK    4  A    between atoms: CB_9  and  CG_10
REMARK    5  A    between atoms: CG_10  and  SD_11
REMARK                            x       y       z     vdW  Elec       q    Type
REMARK                         _______ _______ _______ _____ _____    ______ ____
ROOT
ATOM      1  CA  MET A   1      36.798 -23.374 -11.755  0.00  0.00    +0.041 C 
ENDROOT
BRANCH   1   2
ATOM      2  N   MET A   1      38.234 -23.788 -11.659  0.00  0.00    +0.389 N 
ATOM      3  H1  MET A   1      38.504 -24.278 -12.513  0.00  0.00    -0.088 HD
ATOM      4  H2  MET A   1      38.356 -24.408 -10.859  0.00  0.00    -0.088 HD
ATOM      5  H3  MET A   1      38.819 -22.962 -11.542  0.00  0.00    -0.088 HD
ENDBRANCH   1   2
BRANCH   1   8
ATOM      6  O   MET A   1      34.974 -24.894 -11.609  0.00  0.00    -0.248 OA
ATOM      7  OXT MET A   1      36.023 -24.244  -9.691  0.00  0.00    -0.248 OA
ATOM      8  C   MET A   1      35.830 -24.249 -10.940  0.00  0.00    +0.345 C 
ENDBRANCH   1   8
BRANCH   1   9
ATOM      9  CB  MET A   1      36.457 -23.226 -13.245  0.00  0.00    +0.001 C 
BRANCH   9  10
ATOM     10  CG  MET A   1      37.412 -23.973 -14.179  0.00  0.00    +0.056 C 
BRANCH  10  11
ATOM     11  SD  MET A   1      36.600 -25.440 -14.882  0.00  0.00    -0.139 S 
ATOM     12  CE  MET A   1      37.264 -26.676 -13.743  0.00  0.00    +0.069 C 
ENDBRANCH  10  11
ENDBRANCH   9  10
ENDBRANCH   1   9
TORSDOF 5
ENDMDL
MODEL 4
REMARK VINA RESULT:      -4.7      3.977      4.705
REMARK  Name = 5255805
REMARK  5 active torsions:
REMARK  status: ('A' for Active; 'I' for Inactive)
REMARK    1  A    between atoms: CA_1  and  N_2
REMARK    2  A    between atoms: CA_1  and  C_8
REMARK    3  A    between atoms: CA_1  and  CB_9
REMARK    4  A    between atoms: CB_9  and  CG_10
REMARK    5  A    between atoms: CG_10  and  SD_11
REMARK                            x       y       z     vdW  Elec       q    Type
REMARK                         _______ _______ _______ _____ _____    ______ ____
ROOT
ATOM      1  CA  MET A   1      37.106 -24.515 -12.058  0.00  0.00    +0.041 C 
ENDROOT
BRANCH   1   2
ATOM      2  N   MET A   1      38.317 -23.746 -11.630  0.00  0.00    +0.389 N 
ATOM      3  H1  MET A   1      39.141 -24.344 -11.697  0.00  0.00    -0.088 HD
ATOM      4  H2  MET A   1      38.199 -23.435 -10.666  0.00  0.00    -0.088 HD
ATOM      5  H3  MET A   1      38.436 -22.934 -12.236  0.00  0.00    -0.088 HD
ENDBRANCH   1   2
BRANCH   1   8
ATOM      6  O   MET A   1      36.233 -24.072  -9.890  0.00  0.00    -0.248 OA
ATOM      7  OXT MET A   1      34.822 -24.837 -11.510  0.00  0.00    -0.248 OA
ATOM      8  C   MET A   1      35.943 -24.479 -11.050  0.00  0.00    +0.345 C 
ENDBRANCH   1   8
BRANCH   1   9
ATOM      9  CB  MET A   1      37.572 -25.917 -12.477  0.00  0.00    +0.001 C 
BRANCH   9  10
ATOM     10  CG  MET A   1      37.206 -26.291 -13.915  0.00  0.00    +0.056 C 
BRANCH  10  11
ATOM     11  SD  MET A   1      37.003 -24.798 -14.931  0.00  0.00    -0.139 S 
ATOM     12  CE  MET A   1      35.208 -24.854 -15.121  0.00  0.00    +0.069 C 
ENDBRANCH  10  11
ENDBRANCH   9  10
ENDBRANCH   1   9
TORSDOF 5
ENDMDL
MODEL 5
REMARK VINA RESULT:      -4.7      1.859      2.021
REMARK  Name = 5255805
REMARK  5 active torsions:
REMARK  status: ('A' for Active; 'I' for Inactive)
REMARK    1  A    between atoms: CA_1  and  N_2
REMARK    2  A    between atoms: CA_1  and  C_8
REMARK    3  A    between atoms: CA_1  and  CB_9
REMARK    4  A    between atoms: CB_9  and  CG_10
REMARK    5  A    between atoms: CG_10  and  SD_11
REMARK                            x       y       z     vdW  Elec       q    Type
REMARK                         _______ _______ _______ _____ _____    ______ ____
ROOT
ATOM      1  CA  MET A   1      38.790 -25.600 -14.273  0.00  0.00    +0.041 C 
ENDROOT
BRANCH   1   2
ATOM      2  N   MET A   1      38.109 -26.932 -14.324  0.00  0.00    +0.389 N 
ATOM      3  H1  MET A   1      37.240 -26.890 -13.791  0.00  0.00    -0.088 HD
ATOM      4  H2  MET A   1      38.721 -27.642 -13.922  0.00  0.00    -0.088 HD
ATOM      5  H3  MET A   1      37.902 -27.172 -15.293  0.00  0.00    -0.088 HD
ENDBRANCH   1   2
BRANCH   1   8
ATOM      6  O   MET A   1      40.794 -26.798 -14.730  0.00  0.00    -0.248 OA
ATOM      7  OXT MET A   1      40.918 -24.556 -14.331  0.00  0.00    -0.248 OA
ATOM      8  C   MET A   1      40.317 -25.661 -14.454  0.00  0.00    +0.345 C 
ENDBRANCH   1   8
BRANCH   1   9
ATOM      9  CB  MET A   1      38.304 -24.880 -13.007  0.00  0.00    +0.001 C 
BRANCH   9  10
ATOM     10  CG  MET A   1      37.375 -23.695 -13.282  0.00  0.00    +0.056 C 
BRANCH  10  11
ATOM     11  SD  MET A   1      37.145 -23.466 -15.071  0.00  0.00    -0.139 S 
ATOM     12  CE  MET A   1      35.499 -24.196 -15.218  0.00  0.00    +0.069 C 
ENDBRANCH  10  11
ENDBRANCH   9  10
ENDBRANCH   1   9
TORSDOF 5
ENDMDL
MODEL 6
REMARK VINA RESULT:      -4.7      9.340      9.918
REMARK  Name = 5255805
REMARK  5 active torsions:
REMARK  status: ('A' for Active; 'I' for Inactive)
REMARK    1  A    between atoms: CA_1  and  N_2
REMARK    2  A    between atoms: CA_1  and  C_8
REMARK    3  A    between atoms: CA_1  and  CB_9
REMARK    4  A    between atoms: CB_9  and  CG_10
REMARK    5  A    between atoms: CG_10  and  SD_11
REMARK                            x       y       z     vdW  Elec       q    Type
REMARK                         _______ _______ _______ _____ _____    ______ ____
ROOT
ATOM      1  CA  MET A   1      28.809 -23.458 -15.463  0.00  0.00    +0.041 C 
ENDROOT
BRANCH   1   2
ATOM      2  N   MET A   1      28.913 -24.925 -15.183  0.00  0.00    +0.389 N 
ATOM      3  H1  MET A   1      29.014 -25.073 -14.179  0.00  0.00    -0.088 HD
ATOM      4  H2  MET A   1      29.726 -25.306 -15.666  0.00  0.00    -0.088 HD
ATOM      5  H3  MET A   1      28.071 -25.395 -15.513  0.00  0.00    -0.088 HD
ENDBRANCH   1   2
BRANCH   1   8
ATOM      6  O   MET A   1      28.236 -21.896 -17.163  0.00  0.00    -0.248 OA
ATOM      7  OXT MET A   1      27.775 -24.104 -17.496  0.00  0.00    -0.248 OA
ATOM      8  C   MET A   1      28.207 -23.116 -16.837  0.00  0.00    +0.345 C 
ENDBRANCH   1   8
BRANCH   1   9
ATOM      9  CB  MET A   1      30.180 -22.832 -15.170  0.00  0.00    +0.001 C 
BRANCH   9  10
ATOM     10  CG  MET A   1      31.312 -23.376 -16.044  0.00  0.00    +0.056 C 
BRANCH  10  11
ATOM     11  SD  MET A   1      32.848 -23.522 -15.082  0.00  0.00    -0.139 S 
ATOM     12  CE  MET A   1      32.286 -24.746 -13.878  0.00  0.00    +0.069 C 
ENDBRANCH  10  11
ENDBRANCH   9  10
ENDBRANCH   1   9
TORSDOF 5
ENDMDL
MODEL 7
REMARK VINA RESULT:      -4.6      2.671      2.888
REMARK  Name = 5255805
REMARK  5 active torsions:
REMARK  status: ('A' for Active; 'I' for Inactive)
REMARK    1  A    between atoms: CA_1  and  N_2
REMARK    2  A    between atoms: CA_1  and  C_8
REMARK    3  A    between atoms: CA_1  and  CB_9
REMARK    4  A    between atoms: CB_9  and  CG_10
REMARK    5  A    between atoms: CG_10  and  SD_11
REMARK                            x       y       z     vdW  Elec       q    Type
REMARK                         _______ _______ _______ _____ _____    ______ ____
ROOT
ATOM      1  CA  MET A   1      37.929 -26.159 -14.581  0.00  0.00    +0.041 C 
ENDROOT
BRANCH   1   2
ATOM      2  N   MET A   1      38.824 -25.057 -15.057  0.00  0.00    +0.389 N 
ATOM      3  H1  MET A   1      39.772 -25.218 -14.716  0.00  0.00    -0.088 HD
ATOM      4  H2  MET A   1      38.482 -24.164 -14.701  0.00  0.00    -0.088 HD
ATOM      5  H3  MET A   1      38.828 -25.038 -16.076  0.00  0.00    -0.088 HD
ENDBRANCH   1   2
BRANCH   1   8
ATOM      6  O   MET A   1      36.686 -27.420 -16.171  0.00  0.00    -0.248 OA
ATOM      7  OXT MET A   1      35.774 -25.508 -15.325  0.00  0.00    -0.248 OA
ATOM      8  C   MET A   1      36.679 -26.381 -15.452  0.00  0.00    +0.345 C 
ENDBRANCH   1   8
BRANCH   1   9
ATOM      9  CB  MET A   1      37.659 -25.925 -13.088  0.00  0.00    +0.001 C 
BRANCH   9  10
ATOM     10  CG  MET A   1      38.246 -24.620 -12.546  0.00  0.00    +0.056 C 
BRANCH  10  11
ATOM     11  SD  MET A   1      36.924 -23.422 -12.197  0.00  0.00    -0.139 S 
ATOM     12  CE  MET A   1      35.589 -24.594 -11.871  0.00  0.00    +0.069 C 
ENDBRANCH  10  11
ENDBRANCH   9  10
ENDBRANCH   1   9
TORSDOF 5
ENDMDL
MODEL 8
REMARK VINA RESULT:      -4.5      9.702      9.971
REMARK  Name = 5255805
REMARK  5 active torsions:
REMARK  status: ('A' for Active; 'I' for Inactive)
REMARK    1  A    between atoms: CA_1  and  N_2
REMARK    2  A    between atoms: CA_1  and  C_8
REMARK    3  A    between atoms: CA_1  and  CB_9
REMARK    4  A    between atoms: CB_9  and  CG_10
REMARK    5  A    between atoms: CG_10  and  SD_11
REMARK                            x       y       z     vdW  Elec       q    Type
REMARK                         _______ _______ _______ _____ _____    ______ ____
ROOT
ATOM      1  CA  MET A   1      33.953 -20.864 -20.263  0.00  0.00    +0.041 C 
ENDROOT
BRANCH   1   2
ATOM      2  N   MET A   1      32.705 -20.983 -19.443  0.00  0.00    +0.389 N 
ATOM      3  H1  MET A   1      31.896 -20.754 -20.021  0.00  0.00    -0.088 HD
ATOM      4  H2  MET A   1      32.753 -20.338 -18.655  0.00  0.00    -0.088 HD
ATOM      5  H3  MET A   1      32.615 -21.937 -19.096  0.00  0.00    -0.088 HD
ENDBRANCH   1   2
BRANCH   1   8
ATOM      6  O   MET A   1      35.218 -22.478 -19.057  0.00  0.00    -0.248 OA
ATOM      7  OXT MET A   1      36.168 -20.458 -19.523  0.00  0.00    -0.248 OA
ATOM      8  C   MET A   1      35.234 -21.309 -19.534  0.00  0.00    +0.345 C 
ENDBRANCH   1   8
BRANCH   1   9
ATOM      9  CB  MET A   1      33.987 -19.447 -20.851  0.00  0.00    +0.001 C 
BRANCH   9  10
ATOM     10  CG  MET A   1      34.522 -19.380 -22.283  0.00  0.00    +0.056 C 
BRANCH  10  11
ATOM     11  SD  MET A   1      35.621 -17.947 -22.488  0.00  0.00    -0.139 S 
ATOM     12  CE  MET A   1      34.991 -16.938 -21.128  0.00  0.00    +0.069 C 
ENDBRANCH  10  11
ENDBRANCH   9  10
ENDBRANCH   1   9
TORSDOF 5
ENDMDL
MODEL 9
REMARK VINA RESULT:      -4.5     11.590     11.926
REMARK  Name = 5255805
REMARK  5 active torsions:
REMARK  status: ('A' for Active; 'I' for Inactive)
REMARK    1  A    between atoms: CA_1  and  N_2
REMARK    2  A    between atoms: CA_1  and  C_8
REMARK    3  A    between atoms: CA_1  and  CB_9
REMARK    4  A    between atoms: CB_9  and  CG_10
REMARK    5  A    between atoms: CG_10  and  SD_11
REMARK                            x       y       z     vdW  Elec       q    Type
REMARK                         _______ _______ _______ _____ _____    ______ ____
ROOT
ATOM      1  CA  MET A   1      34.209 -18.959 -21.368  0.00  0.00    +0.041 C 
ENDROOT
BRANCH   1   2
ATOM      2  N   MET A   1      35.323 -18.140 -20.794  0.00  0.00    +0.389 N 
ATOM      3  H1  MET A   1      36.098 -18.109 -21.457  0.00  0.00    -0.088 HD
ATOM      4  H2  MET A   1      35.639 -18.559 -19.920  0.00  0.00    -0.088 HD
ATOM      5  H3  MET A   1      34.991 -17.192 -20.615  0.00  0.00    -0.088 HD
ENDBRANCH   1   2
BRANCH   1   8
ATOM      6  O   MET A   1      32.576 -20.432 -20.460  0.00  0.00    -0.248 OA
ATOM      7  OXT MET A   1      34.775 -20.796 -19.980  0.00  0.00    -0.248 OA
ATOM      8  C   MET A   1      33.812 -20.175 -20.512  0.00  0.00    +0.345 C 
ENDBRANCH   1   8
BRANCH   1   9
ATOM      9  CB  MET A   1      34.568 -19.270 -22.828  0.00  0.00    +0.001 C 
BRANCH   9  10
ATOM     10  CG  MET A   1      35.573 -18.294 -23.444  0.00  0.00    +0.056 C 
BRANCH  10  11
ATOM     11  SD  MET A   1      34.736 -17.150 -24.583  0.00  0.00    -0.139 S 
ATOM     12  CE  MET A   1      34.714 -15.691 -23.517  0.00  0.00    +0.069 C 
ENDBRANCH  10  11
ENDBRANCH   9  10
ENDBRANCH   1   9
TORSDOF 5
ENDMDL
