MODEL 1
REMARK VINA RESULT:      -6.0      0.000      0.000
REMARK  Name = 24812808
REMARK  0 active torsions:
REMARK  status: ('A' for Active; 'I' for Inactive)
REMARK                            x       y       z     vdW  Elec       q    Type
REMARK                         _______ _______ _______ _____ _____    ______ ____
ROOT
ATOM      1  N   UNL     1      35.635 -24.612 -12.349  0.00  0.00    -0.267 N 
ATOM      2  N   UNL     1      36.236 -26.010 -14.077  0.00  0.00    -0.238 N 
ATOM      3  N   UNL     1      37.892 -25.206 -12.637  0.00  0.00    -0.313 NA
ATOM      4  N   UNL     1      38.384 -26.744 -14.635  0.00  0.00    -0.313 NA
ATOM      5  N   UNL     1      36.513 -27.362 -15.920  0.00  0.00    -0.320 N 
ATOM      6  C   UNL     1      38.856 -25.995 -13.443  0.00  0.00    +0.121 C 
ATOM      7  C   UNL     1      36.646 -25.270 -12.995  0.00  0.00    +0.256 C 
ATOM      8  C   UNL     1      37.106 -26.713 -14.870  0.00  0.00    +0.249 C 
ATOM      9  C   UNL     1      39.954 -25.044 -13.905  0.00  0.00    +0.143 C 
ATOM     10  C   UNL     1      35.722 -24.338 -10.930  0.00  0.00    +0.116 C 
ATOM     11  C   UNL     1      34.585 -23.955 -13.096  0.00  0.00    +0.116 C 
ATOM     12  H   UNL     1      35.275 -26.037 -14.292  0.00  0.00    +0.159 HD
ATOM     13  H   UNL     1      35.540 -27.303 -16.048  0.00  0.00    +0.146 HD
ATOM     14  H   UNL     1      37.062 -27.887 -16.547  0.00  0.00    +0.146 HD
ENDROOT
TORSDOF 0
ENDMDL
MODEL 2
REMARK VINA RESULT:      -5.9     12.865     13.625
REMARK  Name = 24812808
REMARK  0 active torsions:
REMARK  status: ('A' for Active; 'I' for Inactive)
REMARK                            x       y       z     vdW  Elec       q    Type
REMARK                         _______ _______ _______ _____ _____    ______ ____
ROOT
ATOM      1  N   UNL     1      33.653 -14.557 -22.727  0.00  0.00    -0.267 N 
ATOM      2  N   UNL     1      34.719 -16.415 -21.882  0.00  0.00    -0.238 N 
ATOM      3  N   UNL     1      34.413 -16.232 -24.193  0.00  0.00    -0.313 NA
ATOM      4  N   UNL     1      35.546 -18.248 -23.074  0.00  0.00    -0.313 NA
ATOM      5  N   UNL     1      35.680 -18.160 -20.727  0.00  0.00    -0.320 N 
ATOM      6  C   UNL     1      35.116 -17.534 -24.302  0.00  0.00    +0.121 C 
ATOM      7  C   UNL     1      34.267 -15.750 -22.996  0.00  0.00    +0.256 C 
ATOM      8  C   UNL     1      35.331 -17.641 -21.945  0.00  0.00    +0.249 C 
ATOM      9  C   UNL     1      34.213 -18.478 -25.089  0.00  0.00    +0.143 C 
ATOM     10  C   UNL     1      33.690 -13.476 -23.688  0.00  0.00    +0.116 C 
ATOM     11  C   UNL     1      32.746 -14.429 -21.607  0.00  0.00    +0.116 C 
ATOM     12  H   UNL     1      34.597 -15.994 -21.001  0.00  0.00    +0.159 HD
ATOM     13  H   UNL     1      35.491 -17.654 -19.905  0.00  0.00    +0.146 HD
ATOM     14  H   UNL     1      36.120 -19.039 -20.675  0.00  0.00    +0.146 HD
ENDROOT
TORSDOF 0
ENDMDL
MODEL 3
REMARK VINA RESULT:      -5.8      2.451      3.382
REMARK  Name = 24812808
REMARK  0 active torsions:
REMARK  status: ('A' for Active; 'I' for Inactive)
REMARK                            x       y       z     vdW  Elec       q    Type
REMARK                         _______ _______ _______ _____ _____    ______ ____
ROOT
ATOM      1  N   UNL     1      36.508 -23.167 -15.884  0.00  0.00    -0.267 N 
ATOM      2  N   UNL     1      38.341 -24.479 -15.413  0.00  0.00    -0.238 N 
ATOM      3  N   UNL     1      36.372 -24.796 -14.193  0.00  0.00    -0.313 NA
ATOM      4  N   UNL     1      38.521 -26.141 -13.780  0.00  0.00    -0.313 NA
ATOM      5  N   UNL     1      40.349 -25.573 -15.147  0.00  0.00    -0.320 N 
ATOM      6  C   UNL     1      37.094 -25.874 -13.473  0.00  0.00    +0.121 C 
ATOM      7  C   UNL     1      37.034 -24.174 -15.121  0.00  0.00    +0.256 C 
ATOM      8  C   UNL     1      39.051 -25.437 -14.735  0.00  0.00    +0.249 C 
ATOM      9  C   UNL     1      36.995 -25.574 -11.981  0.00  0.00    +0.143 C 
ATOM     10  C   UNL     1      35.093 -23.132 -16.185  0.00  0.00    +0.116 C 
ATOM     11  C   UNL     1      37.289 -21.989 -16.191  0.00  0.00    +0.116 C 
ATOM     12  H   UNL     1      38.788 -23.988 -16.140  0.00  0.00    +0.159 HD
ATOM     13  H   UNL     1      40.695 -25.011 -15.876  0.00  0.00    +0.146 HD
ATOM     14  H   UNL     1      40.937 -26.233 -14.712  0.00  0.00    +0.146 HD
ENDROOT
TORSDOF 0
ENDMDL
MODEL 4
REMARK VINA RESULT:      -5.8     13.651     14.601
REMARK  Name = 24812808
REMARK  0 active torsions:
REMARK  status: ('A' for Active; 'I' for Inactive)
REMARK                            x       y       z     vdW  Elec       q    Type
REMARK                         _______ _______ _______ _____ _____    ______ ____
ROOT
ATOM      1  N   UNL     1      35.177 -17.932 -23.466  0.00  0.00    -0.267 N 
ATOM      2  N   UNL     1      34.160 -16.336 -24.776  0.00  0.00    -0.238 N 
ATOM      3  N   UNL     1      34.387 -15.947 -22.483  0.00  0.00    -0.313 NA
ATOM      4  N   UNL     1      33.250 -14.296 -24.088  0.00  0.00    -0.313 NA
ATOM      5  N   UNL     1      33.145 -14.980 -26.337  0.00  0.00    -0.320 N 
ATOM      6  C   UNL     1      33.727 -14.641 -22.726  0.00  0.00    +0.121 C 
ATOM      7  C   UNL     1      34.572 -16.706 -23.520  0.00  0.00    +0.256 C 
ATOM      8  C   UNL     1      33.505 -15.157 -25.027  0.00  0.00    +0.249 C 
ATOM      9  C   UNL     1      32.529 -14.552 -21.785  0.00  0.00    +0.143 C 
ATOM     10  C   UNL     1      36.188 -18.212 -22.469  0.00  0.00    +0.116 C 
ATOM     11  C   UNL     1      34.652 -19.049 -24.222  0.00  0.00    +0.116 C 
ATOM     12  H   UNL     1      34.342 -16.943 -25.530  0.00  0.00    +0.159 HD
ATOM     13  H   UNL     1      33.365 -15.668 -27.004  0.00  0.00    +0.146 HD
ATOM     14  H   UNL     1      32.664 -14.165 -26.609  0.00  0.00    +0.146 HD
ENDROOT
TORSDOF 0
ENDMDL
MODEL 5
REMARK VINA RESULT:      -5.6      1.701      3.228
REMARK  Name = 24812808
REMARK  0 active torsions:
REMARK  status: ('A' for Active; 'I' for Inactive)
REMARK                            x       y       z     vdW  Elec       q    Type
REMARK                         _______ _______ _______ _____ _____    ______ ____
ROOT
ATOM      1  N   UNL     1      33.997 -23.991 -14.627  0.00  0.00    -0.267 N 
ATOM      2  N   UNL     1      35.775 -25.348 -14.080  0.00  0.00    -0.238 N 
ATOM      3  N   UNL     1      34.737 -24.102 -12.397  0.00  0.00    -0.313 NA
ATOM      4  N   UNL     1      36.753 -25.638 -11.977  0.00  0.00    -0.313 NA
ATOM      5  N   UNL     1      37.600 -26.738 -13.876  0.00  0.00    -0.320 N 
ATOM      6  C   UNL     1      35.707 -24.720 -11.460  0.00  0.00    +0.121 C 
ATOM      7  C   UNL     1      34.824 -24.460 -13.642  0.00  0.00    +0.256 C 
ATOM      8  C   UNL     1      36.715 -25.902 -13.248  0.00  0.00    +0.249 C 
ATOM      9  C   UNL     1      36.414 -23.590 -10.720  0.00  0.00    +0.143 C 
ATOM     10  C   UNL     1      32.636 -23.602 -14.324  0.00  0.00    +0.116 C 
ATOM     11  C   UNL     1      34.524 -23.633 -15.926  0.00  0.00    +0.116 C 
ATOM     12  H   UNL     1      35.783 -25.598 -15.033  0.00  0.00    +0.159 HD
ATOM     13  H   UNL     1      37.522 -26.901 -14.843  0.00  0.00    +0.146 HD
ATOM     14  H   UNL     1      38.314 -27.177 -13.358  0.00  0.00    +0.146 HD
ENDROOT
TORSDOF 0
ENDMDL
MODEL 6
REMARK VINA RESULT:      -5.6      2.190      3.634
REMARK  Name = 24812808
REMARK  0 active torsions:
REMARK  status: ('A' for Active; 'I' for Inactive)
REMARK                            x       y       z     vdW  Elec       q    Type
REMARK                         _______ _______ _______ _____ _____    ______ ____
ROOT
ATOM      1  N   UNL     1      34.217 -23.601 -14.908  0.00  0.00    -0.267 N 
ATOM      2  N   UNL     1      35.806 -23.298 -13.269  0.00  0.00    -0.238 N 
ATOM      3  N   UNL     1      36.432 -24.295 -15.289  0.00  0.00    -0.313 NA
ATOM      4  N   UNL     1      38.061 -23.911 -13.340  0.00  0.00    -0.313 NA
ATOM      5  N   UNL     1      37.129 -22.914 -11.424  0.00  0.00    -0.320 N 
ATOM      6  C   UNL     1      37.803 -24.370 -14.728  0.00  0.00    +0.121 C 
ATOM      7  C   UNL     1      35.524 -23.756 -14.533  0.00  0.00    +0.256 C 
ATOM      8  C   UNL     1      37.052 -23.396 -12.703  0.00  0.00    +0.249 C 
ATOM      9  C   UNL     1      38.256 -25.823 -14.821  0.00  0.00    +0.143 C 
ATOM     10  C   UNL     1      33.867 -23.415 -16.300  0.00  0.00    +0.116 C 
ATOM     11  C   UNL     1      33.144 -23.870 -13.975  0.00  0.00    +0.116 C 
ATOM     12  H   UNL     1      35.083 -22.882 -12.747  0.00  0.00    +0.159 HD
ATOM     13  H   UNL     1      36.330 -22.535 -10.993  0.00  0.00    +0.146 HD
ATOM     14  H   UNL     1      37.983 -22.949 -10.936  0.00  0.00    +0.146 HD
ENDROOT
TORSDOF 0
ENDMDL
MODEL 7
REMARK VINA RESULT:      -5.6     18.627     19.894
REMARK  Name = 24812808
REMARK  0 active torsions:
REMARK  status: ('A' for Active; 'I' for Inactive)
REMARK                            x       y       z     vdW  Elec       q    Type
REMARK                         _______ _______ _______ _____ _____    ______ ____
ROOT
ATOM      1  N   UNL     1      31.748 -10.098 -20.873  0.00  0.00    -0.267 N 
ATOM      2  N   UNL     1      31.823  -7.814 -21.153  0.00  0.00    -0.238 N 
ATOM      3  N   UNL     1      32.883  -9.186 -22.720  0.00  0.00    -0.313 NA
ATOM      4  N   UNL     1      32.894  -6.621 -22.854  0.00  0.00    -0.313 NA
ATOM      5  N   UNL     1      31.766  -5.512 -21.112  0.00  0.00    -0.320 N 
ATOM      6  C   UNL     1      33.258  -7.939 -23.431  0.00  0.00    +0.121 C 
ATOM      7  C   UNL     1      32.183  -9.048 -21.635  0.00  0.00    +0.256 C 
ATOM      8  C   UNL     1      32.192  -6.641 -21.760  0.00  0.00    +0.249 C 
ATOM      9  C   UNL     1      34.771  -7.955 -23.618  0.00  0.00    +0.143 C 
ATOM     10  C   UNL     1      31.462 -11.381 -21.479  0.00  0.00    +0.116 C 
ATOM     11  C   UNL     1      31.806 -10.036 -19.429  0.00  0.00    +0.116 C 
ATOM     12  H   UNL     1      31.276  -7.769 -20.335  0.00  0.00    +0.159 HD
ATOM     13  H   UNL     1      31.237  -5.590 -20.286  0.00  0.00    +0.146 HD
ATOM     14  H   UNL     1      31.991  -4.624 -21.472  0.00  0.00    +0.146 HD
ENDROOT
TORSDOF 0
ENDMDL
MODEL 8
REMARK VINA RESULT:      -5.5     17.187     18.220
REMARK  Name = 24812808
REMARK  0 active torsions:
REMARK  status: ('A' for Active; 'I' for Inactive)
REMARK                            x       y       z     vdW  Elec       q    Type
REMARK                         _______ _______ _______ _____ _____    ______ ____
ROOT
ATOM      1  N   UNL     1      32.903 -13.273 -23.270  0.00  0.00    -0.267 N 
ATOM      2  N   UNL     1      34.205 -11.611 -24.189  0.00  0.00    -0.238 N 
ATOM      3  N   UNL     1      32.450 -11.022 -22.762  0.00  0.00    -0.313 NA
ATOM      4  N   UNL     1      33.980  -9.302 -23.902  0.00  0.00    -0.313 NA
ATOM      5  N   UNL     1      35.639 -10.199 -25.309  0.00  0.00    -0.320 N 
ATOM      6  C   UNL     1      32.865  -9.613 -22.973  0.00  0.00    +0.121 C 
ATOM      7  C   UNL     1      33.149 -11.931 -23.372  0.00  0.00    +0.256 C 
ATOM      8  C   UNL     1      34.585 -10.317 -24.442  0.00  0.00    +0.249 C 
ATOM      9  C   UNL     1      31.641  -8.842 -23.452  0.00  0.00    +0.143 C 
ATOM     10  C   UNL     1      32.326 -13.828 -22.065  0.00  0.00    +0.116 C 
ATOM     11  C   UNL     1      32.972 -14.127 -24.437  0.00  0.00    +0.116 C 
ATOM     12  H   UNL     1      34.712 -12.342 -24.612  0.00  0.00    +0.159 HD
ATOM     13  H   UNL     1      36.058 -11.005 -25.686  0.00  0.00    +0.146 HD
ATOM     14  H   UNL     1      35.976  -9.307 -25.554  0.00  0.00    +0.146 HD
ENDROOT
TORSDOF 0
ENDMDL
MODEL 9
REMARK VINA RESULT:      -5.5     11.984     12.613
REMARK  Name = 24812808
REMARK  0 active torsions:
REMARK  status: ('A' for Active; 'I' for Inactive)
REMARK                            x       y       z     vdW  Elec       q    Type
REMARK                         _______ _______ _______ _____ _____    ______ ____
ROOT
ATOM      1  N   UNL     1      33.856 -15.240 -21.778  0.00  0.00    -0.267 N 
ATOM      2  N   UNL     1      34.292 -16.827 -23.388  0.00  0.00    -0.238 N 
ATOM      3  N   UNL     1      34.636 -17.365 -21.139  0.00  0.00    -0.313 NA
ATOM      4  N   UNL     1      35.103 -18.996 -23.068  0.00  0.00    -0.313 NA
ATOM      5  N   UNL     1      34.689 -18.156 -25.226  0.00  0.00    -0.320 N 
ATOM      6  C   UNL     1      35.049 -18.709 -21.612  0.00  0.00    +0.121 C 
ATOM      7  C   UNL     1      34.275 -16.514 -22.051  0.00  0.00    +0.256 C 
ATOM      8  C   UNL     1      34.712 -18.044 -23.861  0.00  0.00    +0.249 C 
ATOM      9  C   UNL     1      36.432 -18.992 -21.038  0.00  0.00    +0.143 C 
ATOM     10  C   UNL     1      33.185 -14.936 -20.532  0.00  0.00    +0.116 C 
ATOM     11  C   UNL     1      34.290 -14.128 -22.595  0.00  0.00    +0.116 C 
ATOM     12  H   UNL     1      33.990 -16.149 -24.035  0.00  0.00    +0.159 HD
ATOM     13  H   UNL     1      34.383 -17.400 -25.776  0.00  0.00    +0.146 HD
ATOM     14  H   UNL     1      34.980 -18.993 -25.656  0.00  0.00    +0.146 HD
ENDROOT
TORSDOF 0
ENDMDL
