MODEL 1
REMARK VINA RESULT:      -9.3      0.000      0.000
REMARK  Name = 68671
REMARK  10 active torsions:
REMARK  status: ('A' for Active; 'I' for Inactive)
REMARK    1  A    between atoms: O_1  and  C_3
REMARK    2  A    between atoms: O_1  and  C_15
REMARK    3  A    between atoms: C_3  and  C_4
REMARK    4  A    between atoms: C_4  and  O_7
REMARK    5  A    between atoms: O_7  and  C_9
REMARK    6  A    between atoms: C_15  and  C_16
REMARK    7  A    between atoms: C_16  and  C_17
REMARK    8  A    between atoms: C_17  and  O_18
REMARK    9  A    between atoms: O_18  and  C_20
REMARK   10  A    between atoms: C_20  and  C_22
REMARK                            x       y       z     vdW  Elec       q    Type
REMARK                         _______ _______ _______ _____ _____    ______ ____
ROOT
ATOM      1  O   UNL     1      33.788 -16.077 -24.777  0.00  0.00    -0.446 OA
ENDROOT
BRANCH   1   3
ATOM      2  O   UNL     1      34.993 -15.054 -23.102  0.00  0.00    -0.246 OA
ATOM      3  C   UNL     1      34.151 -15.021 -23.992  0.00  0.00    +0.353 C 
BRANCH   3   4
ATOM      4  C   UNL     1      33.330 -13.783 -24.343  0.00  0.00    +0.221 C 
ATOM      5  C   UNL     1      34.075 -12.542 -23.861  0.00  0.00    +0.055 C 
ATOM      6  C   UNL     1      33.071 -13.715 -25.847  0.00  0.00    +0.055 C 
BRANCH   4   7
ATOM      7  O   UNL     1      32.075 -13.828 -23.677  0.00  0.00    -0.472 OA
BRANCH   7   9
ATOM      8 CL   UNL     1      31.597 -10.731 -18.701  0.00  0.00    -0.082 Cl
ATOM      9  C   UNL     1      31.965 -13.105 -22.517  0.00  0.00    +0.139 C 
ATOM     10  C   UNL     1      31.486 -11.796 -22.554  0.00  0.00    +0.038 C 
ATOM     11  C   UNL     1      32.329 -13.682 -21.300  0.00  0.00    +0.038 C 
ATOM     12  C   UNL     1      31.372 -11.062 -21.374  0.00  0.00    +0.015 C 
ATOM     13  C   UNL     1      32.214 -12.948 -20.119  0.00  0.00    +0.015 C 
ATOM     14  C   UNL     1      31.736 -11.638 -20.157  0.00  0.00    +0.058 C 
ENDBRANCH   7   9
ENDBRANCH   4   7
ENDBRANCH   3   4
ENDBRANCH   1   3
BRANCH   1  15
ATOM     15  C   UNL     1      34.847 -16.967 -25.147  0.00  0.00    +0.212 C 
BRANCH  15  16
ATOM     16  C   UNL     1      34.451 -18.400 -24.830  0.00  0.00    +0.095 C 
BRANCH  16  17
ATOM     17  C   UNL     1      35.138 -18.916 -23.578  0.00  0.00    +0.213 C 
BRANCH  17  18
ATOM     18  O   UNL     1      34.215 -18.883 -22.498  0.00  0.00    -0.445 OA
BRANCH  18  20
ATOM     19  O   UNL     1      35.385 -17.893 -20.781  0.00  0.00    -0.245 OA
ATOM     20  C   UNL     1      34.755 -18.828 -21.249  0.00  0.00    +0.343 C 
BRANCH  20  22
ATOM     21  N   UNL     1      32.862 -21.642 -19.612  0.00  0.00    -0.242 NA
ATOM     22  C   UNL     1      34.479 -20.081 -20.501  0.00  0.00    +0.095 C 
ATOM     23  C   UNL     1      35.517 -20.857 -19.997  0.00  0.00    +0.010 C 
ATOM     24  C   UNL     1      33.181 -20.512 -20.284  0.00  0.00    +0.105 C 
ATOM     25  C   UNL     1      35.229 -22.026 -19.301  0.00  0.00    +0.021 C 
ATOM     26  C   UNL     1      33.897 -22.371 -19.137  0.00  0.00    +0.099 C 
ENDBRANCH  20  22
ENDBRANCH  18  20
ENDBRANCH  17  18
ENDBRANCH  16  17
ENDBRANCH  15  16
ENDBRANCH   1  15
TORSDOF 10
ENDMDL
MODEL 2
REMARK VINA RESULT:      -9.0      3.921      6.259
REMARK  Name = 68671
REMARK  10 active torsions:
REMARK  status: ('A' for Active; 'I' for Inactive)
REMARK    1  A    between atoms: O_1  and  C_3
REMARK    2  A    between atoms: O_1  and  C_15
REMARK    3  A    between atoms: C_3  and  C_4
REMARK    4  A    between atoms: C_4  and  O_7
REMARK    5  A    between atoms: O_7  and  C_9
REMARK    6  A    between atoms: C_15  and  C_16
REMARK    7  A    between atoms: C_16  and  C_17
REMARK    8  A    between atoms: C_17  and  O_18
REMARK    9  A    between atoms: O_18  and  C_20
REMARK   10  A    between atoms: C_20  and  C_22
REMARK                            x       y       z     vdW  Elec       q    Type
REMARK                         _______ _______ _______ _____ _____    ______ ____
ROOT
ATOM      1  O   UNL     1      35.114 -21.088 -20.540  0.00  0.00    -0.446 OA
ENDROOT
BRANCH   1   3
ATOM      2  O   UNL     1      36.869 -19.680 -20.049  0.00  0.00    -0.246 OA
ATOM      3  C   UNL     1      35.775 -19.894 -20.559  0.00  0.00    +0.353 C 
BRANCH   3   4
ATOM      4  C   UNL     1      34.945 -18.830 -21.273  0.00  0.00    +0.221 C 
ATOM      5  C   UNL     1      35.224 -18.908 -22.771  0.00  0.00    +0.055 C 
ATOM      6  C   UNL     1      33.457 -19.023 -20.984  0.00  0.00    +0.055 C 
BRANCH   4   7
ATOM      7  O   UNL     1      35.322 -17.537 -20.822  0.00  0.00    -0.472 OA
BRANCH   7   9
ATOM      8 CL   UNL     1      32.247 -12.997 -22.949  0.00  0.00    -0.082 Cl
ATOM      9  C   UNL     1      34.606 -16.477 -21.318  0.00  0.00    +0.139 C 
ATOM     10  C   UNL     1      34.890 -15.977 -22.588  0.00  0.00    +0.038 C 
ATOM     11  C   UNL     1      33.591 -15.903 -20.551  0.00  0.00    +0.038 C 
ATOM     12  C   UNL     1      34.159 -14.901 -23.092  0.00  0.00    +0.015 C 
ATOM     13  C   UNL     1      32.861 -14.827 -21.056  0.00  0.00    +0.015 C 
ATOM     14  C   UNL     1      33.146 -14.326 -22.327  0.00  0.00    +0.058 C 
ENDBRANCH   7   9
ENDBRANCH   4   7
ENDBRANCH   3   4
ENDBRANCH   1   3
BRANCH   1  15
ATOM     15  C   UNL     1      35.081 -21.757 -19.275  0.00  0.00    +0.212 C 
BRANCH  15  16
ATOM     16  C   UNL     1      33.661 -22.201 -18.963  0.00  0.00    +0.095 C 
BRANCH  16  17
ATOM     17  C   UNL     1      33.601 -23.099 -17.739  0.00  0.00    +0.213 C 
BRANCH  17  18
ATOM     18  O   UNL     1      34.845 -23.028 -17.055  0.00  0.00    -0.445 OA
BRANCH  18  20
ATOM     19  O   UNL     1      33.918 -23.097 -14.949  0.00  0.00    -0.245 OA
ATOM     20  C   UNL     1      34.820 -23.351 -15.732  0.00  0.00    +0.343 C 
BRANCH  20  22
ATOM     21  N   UNL     1      38.449 -24.024 -14.987  0.00  0.00    -0.242 NA
ATOM     22  C   UNL     1      36.059 -24.070 -15.343  0.00  0.00    +0.095 C 
ATOM     23  C   UNL     1      36.024 -25.413 -14.979  0.00  0.00    +0.010 C 
ATOM     24  C   UNL     1      37.285 -23.427 -15.331  0.00  0.00    +0.105 C 
ATOM     25  C   UNL     1      37.200 -26.060 -14.618  0.00  0.00    +0.021 C 
ATOM     26  C   UNL     1      38.377 -25.327 -14.639  0.00  0.00    +0.099 C 
ENDBRANCH  20  22
ENDBRANCH  18  20
ENDBRANCH  17  18
ENDBRANCH  16  17
ENDBRANCH  15  16
ENDBRANCH   1  15
TORSDOF 10
ENDMDL
MODEL 3
REMARK VINA RESULT:      -8.9      4.156      8.872
REMARK  Name = 68671
REMARK  10 active torsions:
REMARK  status: ('A' for Active; 'I' for Inactive)
REMARK    1  A    between atoms: O_1  and  C_3
REMARK    2  A    between atoms: O_1  and  C_15
REMARK    3  A    between atoms: C_3  and  C_4
REMARK    4  A    between atoms: C_4  and  O_7
REMARK    5  A    between atoms: O_7  and  C_9
REMARK    6  A    between atoms: C_15  and  C_16
REMARK    7  A    between atoms: C_16  and  C_17
REMARK    8  A    between atoms: C_17  and  O_18
REMARK    9  A    between atoms: O_18  and  C_20
REMARK   10  A    between atoms: C_20  and  C_22
REMARK                            x       y       z     vdW  Elec       q    Type
REMARK                         _______ _______ _______ _____ _____    ______ ____
ROOT
ATOM      1  O   UNL     1      35.298 -15.746 -23.228  0.00  0.00    -0.446 OA
ENDROOT
BRANCH   1   3
ATOM      2  O   UNL     1      34.203 -16.945 -24.862  0.00  0.00    -0.246 OA
ATOM      3  C   UNL     1      34.818 -16.888 -23.804  0.00  0.00    +0.353 C 
BRANCH   3   4
ATOM      4  C   UNL     1      35.114 -18.099 -22.923  0.00  0.00    +0.221 C 
ATOM      5  C   UNL     1      34.721 -19.366 -23.677  0.00  0.00    +0.055 C 
ATOM      6  C   UNL     1      36.589 -18.133 -22.529  0.00  0.00    +0.055 C 
BRANCH   4   7
ATOM      7  O   UNL     1      34.337 -18.036 -21.735  0.00  0.00    -0.472 OA
BRANCH   7   9
ATOM      8 CL   UNL     1      33.843 -22.999 -18.619  0.00  0.00    -0.082 Cl
ATOM      9  C   UNL     1      34.222 -19.194 -21.010  0.00  0.00    +0.139 C 
ATOM     10  C   UNL     1      35.367 -19.870 -20.589  0.00  0.00    +0.038 C 
ATOM     11  C   UNL     1      32.959 -19.693 -20.690  0.00  0.00    +0.038 C 
ATOM     12  C   UNL     1      35.249 -21.046 -19.849  0.00  0.00    +0.015 C 
ATOM     13  C   UNL     1      32.842 -20.870 -19.950  0.00  0.00    +0.015 C 
ATOM     14  C   UNL     1      33.987 -21.546 -19.530  0.00  0.00    +0.058 C 
ENDBRANCH   7   9
ENDBRANCH   4   7
ENDBRANCH   3   4
ENDBRANCH   1   3
BRANCH   1  15
ATOM     15  C   UNL     1      34.377 -15.042 -22.388  0.00  0.00    +0.212 C 
BRANCH  15  16
ATOM     16  C   UNL     1      33.234 -14.491 -23.225  0.00  0.00    +0.095 C 
BRANCH  16  17
ATOM     17  C   UNL     1      33.724 -13.537 -24.300  0.00  0.00    +0.213 C 
BRANCH  17  18
ATOM     18  O   UNL     1      33.878 -12.243 -23.732  0.00  0.00    -0.445 OA
BRANCH  18  20
ATOM     19  O   UNL     1      34.191 -11.319 -25.817  0.00  0.00    -0.245 OA
ATOM     20  C   UNL     1      34.013 -11.214 -24.614  0.00  0.00    +0.343 C 
BRANCH  20  22
ATOM     21  N   UNL     1      32.742  -8.477 -22.361  0.00  0.00    -0.242 NA
ATOM     22  C   UNL     1      33.917  -9.907 -23.915  0.00  0.00    +0.095 C 
ATOM     23  C   UNL     1      34.862  -8.909 -24.131  0.00  0.00    +0.010 C 
ATOM     24  C   UNL     1      32.886  -9.644 -23.029  0.00  0.00    +0.105 C 
ATOM     25  C   UNL     1      34.747  -7.695 -23.463  0.00  0.00    +0.021 C 
ATOM     26  C   UNL     1      33.678  -7.530 -22.596  0.00  0.00    +0.099 C 
ENDBRANCH  20  22
ENDBRANCH  18  20
ENDBRANCH  17  18
ENDBRANCH  16  17
ENDBRANCH  15  16
ENDBRANCH   1  15
TORSDOF 10
ENDMDL
MODEL 4
REMARK VINA RESULT:      -8.9      3.453      5.759
REMARK  Name = 68671
REMARK  10 active torsions:
REMARK  status: ('A' for Active; 'I' for Inactive)
REMARK    1  A    between atoms: O_1  and  C_3
REMARK    2  A    between atoms: O_1  and  C_15
REMARK    3  A    between atoms: C_3  and  C_4
REMARK    4  A    between atoms: C_4  and  O_7
REMARK    5  A    between atoms: O_7  and  C_9
REMARK    6  A    between atoms: C_15  and  C_16
REMARK    7  A    between atoms: C_16  and  C_17
REMARK    8  A    between atoms: C_17  and  O_18
REMARK    9  A    between atoms: O_18  and  C_20
REMARK   10  A    between atoms: C_20  and  C_22
REMARK                            x       y       z     vdW  Elec       q    Type
REMARK                         _______ _______ _______ _____ _____    ______ ____
ROOT
ATOM      1  O   UNL     1      35.357 -20.063 -19.915  0.00  0.00    -0.446 OA
ENDROOT
BRANCH   1   3
ATOM      2  O   UNL     1      37.290 -19.359 -20.952  0.00  0.00    -0.246 OA
ATOM      3  C   UNL     1      36.068 -19.387 -20.866  0.00  0.00    +0.353 C 
BRANCH   3   4
ATOM      4  C   UNL     1      35.129 -18.624 -21.797  0.00  0.00    +0.221 C 
ATOM      5  C   UNL     1      35.029 -19.374 -23.121  0.00  0.00    +0.055 C 
ATOM      6  C   UNL     1      33.752 -18.457 -21.158  0.00  0.00    +0.055 C 
BRANCH   4   7
ATOM      7  O   UNL     1      35.656 -17.331 -22.062  0.00  0.00    -0.472 OA
BRANCH   7   9
ATOM      8 CL   UNL     1      31.907 -12.813 -21.718  0.00  0.00    -0.082 Cl
ATOM      9  C   UNL     1      34.781 -16.279 -21.982  0.00  0.00    +0.139 C 
ATOM     10  C   UNL     1      34.504 -15.695 -20.746  0.00  0.00    +0.038 C 
ATOM     11  C   UNL     1      34.171 -15.790 -23.138  0.00  0.00    +0.038 C 
ATOM     12  C   UNL     1      33.616 -14.623 -20.665  0.00  0.00    +0.015 C 
ATOM     13  C   UNL     1      33.282 -14.718 -23.056  0.00  0.00    +0.015 C 
ATOM     14  C   UNL     1      33.005 -14.135 -21.819  0.00  0.00    +0.058 C 
ENDBRANCH   7   9
ENDBRANCH   4   7
ENDBRANCH   3   4
ENDBRANCH   1   3
BRANCH   1  15
ATOM     15  C   UNL     1      35.825 -21.382 -19.613  0.00  0.00    +0.212 C 
BRANCH  15  16
ATOM     16  C   UNL     1      34.691 -22.381 -19.775  0.00  0.00    +0.095 C 
BRANCH  16  17
ATOM     17  C   UNL     1      33.516 -22.060 -18.866  0.00  0.00    +0.213 C 
BRANCH  17  18
ATOM     18  O   UNL     1      33.192 -23.217 -18.107  0.00  0.00    -0.445 OA
BRANCH  18  20
ATOM     19  O   UNL     1      34.982 -23.351 -16.665  0.00  0.00    -0.245 OA
ATOM     20  C   UNL     1      33.780 -23.315 -16.883  0.00  0.00    +0.343 C 
BRANCH  20  22
ATOM     21  N   UNL     1      32.217 -23.786 -13.489  0.00  0.00    -0.242 NA
ATOM     22  C   UNL     1      32.756 -23.377 -15.810  0.00  0.00    +0.095 C 
ATOM     23  C   UNL     1      31.419 -23.100 -16.079  0.00  0.00    +0.010 C 
ATOM     24  C   UNL     1      33.100 -23.712 -14.511  0.00  0.00    +0.105 C 
ATOM     25  C   UNL     1      30.482 -23.166 -15.054  0.00  0.00    +0.021 C 
ATOM     26  C   UNL     1      30.928 -23.510 -13.788  0.00  0.00    +0.099 C 
ENDBRANCH  20  22
ENDBRANCH  18  20
ENDBRANCH  17  18
ENDBRANCH  16  17
ENDBRANCH  15  16
ENDBRANCH   1  15
TORSDOF 10
ENDMDL
MODEL 5
REMARK VINA RESULT:      -8.9      3.947      6.456
REMARK  Name = 68671
REMARK  10 active torsions:
REMARK  status: ('A' for Active; 'I' for Inactive)
REMARK    1  A    between atoms: O_1  and  C_3
REMARK    2  A    between atoms: O_1  and  C_15
REMARK    3  A    between atoms: C_3  and  C_4
REMARK    4  A    between atoms: C_4  and  O_7
REMARK    5  A    between atoms: O_7  and  C_9
REMARK    6  A    between atoms: C_15  and  C_16
REMARK    7  A    between atoms: C_16  and  C_17
REMARK    8  A    between atoms: C_17  and  O_18
REMARK    9  A    between atoms: O_18  and  C_20
REMARK   10  A    between atoms: C_20  and  C_22
REMARK                            x       y       z     vdW  Elec       q    Type
REMARK                         _______ _______ _______ _____ _____    ______ ____
ROOT
ATOM      1  O   UNL     1      34.970 -21.265 -20.331  0.00  0.00    -0.446 OA
ENDROOT
BRANCH   1   3
ATOM      2  O   UNL     1      36.741 -19.874 -19.848  0.00  0.00    -0.246 OA
ATOM      3  C   UNL     1      35.658 -20.087 -20.382  0.00  0.00    +0.353 C 
BRANCH   3   4
ATOM      4  C   UNL     1      34.873 -19.038 -21.166  0.00  0.00    +0.221 C 
ATOM      5  C   UNL     1      35.144 -19.229 -22.655  0.00  0.00    +0.055 C 
ATOM      6  C   UNL     1      33.379 -19.145 -20.865  0.00  0.00    +0.055 C 
BRANCH   4   7
ATOM      7  O   UNL     1      35.308 -17.735 -20.803  0.00  0.00    -0.472 OA
BRANCH   7   9
ATOM      8 CL   UNL     1      32.483 -13.209 -23.275  0.00  0.00    -0.082 Cl
ATOM      9  C   UNL     1      34.648 -16.681 -21.379  0.00  0.00    +0.139 C 
ATOM     10  C   UNL     1      33.644 -16.018 -20.676  0.00  0.00    +0.038 C 
ATOM     11  C   UNL     1      34.985 -16.270 -22.670  0.00  0.00    +0.038 C 
ATOM     12  C   UNL     1      32.974 -14.944 -21.262  0.00  0.00    +0.015 C 
ATOM     13  C   UNL     1      34.316 -15.196 -23.256  0.00  0.00    +0.015 C 
ATOM     14  C   UNL     1      33.310 -14.533 -22.551  0.00  0.00    +0.058 C 
ENDBRANCH   7   9
ENDBRANCH   4   7
ENDBRANCH   3   4
ENDBRANCH   1   3
BRANCH   1  15
ATOM     15  C   UNL     1      35.066 -21.986 -19.098  0.00  0.00    +0.212 C 
BRANCH  15  16
ATOM     16  C   UNL     1      33.679 -22.401 -18.634  0.00  0.00    +0.095 C 
BRANCH  16  17
ATOM     17  C   UNL     1      33.737 -23.378 -17.471  0.00  0.00    +0.213 C 
BRANCH  17  18
ATOM     18  O   UNL     1      33.108 -22.787 -16.342  0.00  0.00    -0.445 OA
BRANCH  18  20
ATOM     19  O   UNL     1      32.924 -24.342 -14.654  0.00  0.00    -0.245 OA
ATOM     20  C   UNL     1      32.431 -23.637 -15.521  0.00  0.00    +0.343 C 
BRANCH  20  22
ATOM     21  N   UNL     1      29.111 -22.512 -16.897  0.00  0.00    -0.242 NA
ATOM     22  C   UNL     1      30.976 -23.606 -15.816  0.00  0.00    +0.095 C 
ATOM     23  C   UNL     1      30.124 -24.588 -15.323  0.00  0.00    +0.010 C 
ATOM     24  C   UNL     1      30.426 -22.598 -16.591  0.00  0.00    +0.105 C 
ATOM     25  C   UNL     1      28.766 -24.533 -15.616  0.00  0.00    +0.021 C 
ATOM     26  C   UNL     1      28.313 -23.484 -16.400  0.00  0.00    +0.099 C 
ENDBRANCH  20  22
ENDBRANCH  18  20
ENDBRANCH  17  18
ENDBRANCH  16  17
ENDBRANCH  15  16
ENDBRANCH   1  15
TORSDOF 10
ENDMDL
MODEL 6
REMARK VINA RESULT:      -8.7      3.926      8.385
REMARK  Name = 68671
REMARK  10 active torsions:
REMARK  status: ('A' for Active; 'I' for Inactive)
REMARK    1  A    between atoms: O_1  and  C_3
REMARK    2  A    between atoms: O_1  and  C_15
REMARK    3  A    between atoms: C_3  and  C_4
REMARK    4  A    between atoms: C_4  and  O_7
REMARK    5  A    between atoms: O_7  and  C_9
REMARK    6  A    between atoms: C_15  and  C_16
REMARK    7  A    between atoms: C_16  and  C_17
REMARK    8  A    between atoms: C_17  and  O_18
REMARK    9  A    between atoms: O_18  and  C_20
REMARK   10  A    between atoms: C_20  and  C_22
REMARK                            x       y       z     vdW  Elec       q    Type
REMARK                         _______ _______ _______ _____ _____    ______ ____
ROOT
ATOM      1  O   UNL     1      33.773 -13.682 -22.543  0.00  0.00    -0.446 OA
ENDROOT
BRANCH   1   3
ATOM      2  O   UNL     1      35.168 -15.170 -23.613  0.00  0.00    -0.246 OA
ATOM      3  C   UNL     1      34.362 -14.900 -22.731  0.00  0.00    +0.353 C 
BRANCH   3   4
ATOM      4  C   UNL     1      33.844 -15.911 -21.711  0.00  0.00    +0.221 C 
ATOM      5  C   UNL     1      34.824 -15.981 -20.544  0.00  0.00    +0.055 C 
ATOM      6  C   UNL     1      32.448 -15.524 -21.228  0.00  0.00    +0.055 C 
BRANCH   4   7
ATOM      7  O   UNL     1      33.770 -17.201 -22.301  0.00  0.00    -0.472 OA
BRANCH   7   9
ATOM      8 CL   UNL     1      36.461 -21.576 -19.436  0.00  0.00    -0.082 Cl
ATOM      9  C   UNL     1      34.398 -18.222 -21.635  0.00  0.00    +0.139 C 
ATOM     10  C   UNL     1      35.790 -18.280 -21.599  0.00  0.00    +0.038 C 
ATOM     11  C   UNL     1      33.641 -19.201 -20.988  0.00  0.00    +0.038 C 
ATOM     12  C   UNL     1      36.428 -19.317 -20.919  0.00  0.00    +0.015 C 
ATOM     13  C   UNL     1      34.279 -20.238 -20.308  0.00  0.00    +0.015 C 
ATOM     14  C   UNL     1      35.673 -20.295 -20.274  0.00  0.00    +0.058 C 
ENDBRANCH   7   9
ENDBRANCH   4   7
ENDBRANCH   3   4
ENDBRANCH   1   3
BRANCH   1  15
ATOM     15  C   UNL     1      33.032 -13.175 -23.657  0.00  0.00    +0.212 C 
BRANCH  15  16
ATOM     16  C   UNL     1      33.884 -12.186 -24.436  0.00  0.00    +0.095 C 
BRANCH  16  17
ATOM     17  C   UNL     1      33.806 -10.785 -23.854  0.00  0.00    +0.213 C 
BRANCH  17  18
ATOM     18  O   UNL     1      32.444 -10.381 -23.809  0.00  0.00    -0.445 OA
BRANCH  18  20
ATOM     19  O   UNL     1      32.102  -8.135 -23.434  0.00  0.00    -0.245 OA
ATOM     20  C   UNL     1      32.169  -9.289 -23.042  0.00  0.00    +0.343 C 
BRANCH  20  22
ATOM     21  N   UNL     1      32.161  -9.144 -19.279  0.00  0.00    -0.242 NA
ATOM     22  C   UNL     1      31.954  -9.682 -21.626  0.00  0.00    +0.095 C 
ATOM     23  C   UNL     1      31.370 -10.903 -21.302  0.00  0.00    +0.010 C 
ATOM     24  C   UNL     1      32.328  -8.846 -20.587  0.00  0.00    +0.105 C 
ATOM     25  C   UNL     1      31.181 -11.243 -19.967  0.00  0.00    +0.021 C 
ATOM     26  C   UNL     1      31.590 -10.337 -19.002  0.00  0.00    +0.099 C 
ENDBRANCH  20  22
ENDBRANCH  18  20
ENDBRANCH  17  18
ENDBRANCH  16  17
ENDBRANCH  15  16
ENDBRANCH   1  15
TORSDOF 10
ENDMDL
MODEL 7
REMARK VINA RESULT:      -8.7      4.854      9.543
REMARK  Name = 68671
REMARK  10 active torsions:
REMARK  status: ('A' for Active; 'I' for Inactive)
REMARK    1  A    between atoms: O_1  and  C_3
REMARK    2  A    between atoms: O_1  and  C_15
REMARK    3  A    between atoms: C_3  and  C_4
REMARK    4  A    between atoms: C_4  and  O_7
REMARK    5  A    between atoms: O_7  and  C_9
REMARK    6  A    between atoms: C_15  and  C_16
REMARK    7  A    between atoms: C_16  and  C_17
REMARK    8  A    between atoms: C_17  and  O_18
REMARK    9  A    between atoms: O_18  and  C_20
REMARK   10  A    between atoms: C_20  and  C_22
REMARK                            x       y       z     vdW  Elec       q    Type
REMARK                         _______ _______ _______ _____ _____    ______ ____
ROOT
ATOM      1  O   UNL     1      32.107 -13.742 -22.206  0.00  0.00    -0.446 OA
ENDROOT
BRANCH   1   3
ATOM      2  O   UNL     1      34.193 -13.780 -23.181  0.00  0.00    -0.246 OA
ATOM      3  C   UNL     1      33.357 -14.249 -22.418  0.00  0.00    +0.353 C 
BRANCH   3   4
ATOM      4  C   UNL     1      33.568 -15.520 -21.600  0.00  0.00    +0.221 C 
ATOM      5  C   UNL     1      34.698 -15.285 -20.602  0.00  0.00    +0.055 C 
ATOM      6  C   UNL     1      32.280 -15.920 -20.882  0.00  0.00    +0.055 C 
BRANCH   4   7
ATOM      7  O   UNL     1      33.951 -16.589 -22.454  0.00  0.00    -0.472 OA
BRANCH   7   9
ATOM      8 CL   UNL     1      36.199 -21.366 -19.863  0.00  0.00    -0.082 Cl
ATOM      9  C   UNL     1      34.476 -17.703 -21.852  0.00  0.00    +0.139 C 
ATOM     10  C   UNL     1      35.857 -17.880 -21.793  0.00  0.00    +0.038 C 
ATOM     11  C   UNL     1      33.625 -18.659 -21.293  0.00  0.00    +0.038 C 
ATOM     12  C   UNL     1      36.390 -19.012 -21.178  0.00  0.00    +0.015 C 
ATOM     13  C   UNL     1      34.158 -19.791 -20.678  0.00  0.00    +0.015 C 
ATOM     14  C   UNL     1      35.541 -19.968 -20.620  0.00  0.00    +0.058 C 
ENDBRANCH   7   9
ENDBRANCH   4   7
ENDBRANCH   3   4
ENDBRANCH   1   3
BRANCH   1  15
ATOM     15  C   UNL     1      32.054 -12.363 -21.827  0.00  0.00    +0.212 C 
BRANCH  15  16
ATOM     16  C   UNL     1      31.573 -12.241 -20.390  0.00  0.00    +0.095 C 
BRANCH  16  17
ATOM     17  C   UNL     1      31.694 -10.819 -19.868  0.00  0.00    +0.213 C 
BRANCH  17  18
ATOM     18  O   UNL     1      31.950  -9.948 -20.961  0.00  0.00    -0.445 OA
BRANCH  18  20
ATOM     19  O   UNL     1      32.301  -8.192 -19.514  0.00  0.00    -0.245 OA
ATOM     20  C   UNL     1      32.224  -8.653 -20.643  0.00  0.00    +0.343 C 
BRANCH  20  22
ATOM     21  N   UNL     1      31.511  -6.317 -23.510  0.00  0.00    -0.242 NA
ATOM     22  C   UNL     1      32.424  -7.840 -21.869  0.00  0.00    +0.095 C 
ATOM     23  C   UNL     1      33.651  -7.822 -22.524  0.00  0.00    +0.010 C 
ATOM     24  C   UNL     1      31.395  -7.078 -22.397  0.00  0.00    +0.105 C 
ATOM     25  C   UNL     1      33.809  -7.051 -23.671  0.00  0.00    +0.021 C 
ATOM     26  C   UNL     1      32.718  -6.323 -24.119  0.00  0.00    +0.099 C 
ENDBRANCH  20  22
ENDBRANCH  18  20
ENDBRANCH  17  18
ENDBRANCH  16  17
ENDBRANCH  15  16
ENDBRANCH   1  15
TORSDOF 10
ENDMDL
MODEL 8
REMARK VINA RESULT:      -8.6      4.185      9.051
REMARK  Name = 68671
REMARK  10 active torsions:
REMARK  status: ('A' for Active; 'I' for Inactive)
REMARK    1  A    between atoms: O_1  and  C_3
REMARK    2  A    between atoms: O_1  and  C_15
REMARK    3  A    between atoms: C_3  and  C_4
REMARK    4  A    between atoms: C_4  and  O_7
REMARK    5  A    between atoms: O_7  and  C_9
REMARK    6  A    between atoms: C_15  and  C_16
REMARK    7  A    between atoms: C_16  and  C_17
REMARK    8  A    between atoms: C_17  and  O_18
REMARK    9  A    between atoms: O_18  and  C_20
REMARK   10  A    between atoms: C_20  and  C_22
REMARK                            x       y       z     vdW  Elec       q    Type
REMARK                         _______ _______ _______ _____ _____    ______ ____
ROOT
ATOM      1  O   UNL     1      34.482 -15.798 -23.263  0.00  0.00    -0.446 OA
ENDROOT
BRANCH   1   3
ATOM      2  O   UNL     1      34.949 -16.910 -25.225  0.00  0.00    -0.246 OA
ATOM      3  C   UNL     1      34.859 -16.882 -24.003  0.00  0.00    +0.353 C 
BRANCH   3   4
ATOM      4  C   UNL     1      35.116 -18.086 -23.101  0.00  0.00    +0.221 C 
ATOM      5  C   UNL     1      34.714 -19.356 -23.845  0.00  0.00    +0.055 C 
ATOM      6  C   UNL     1      36.584 -18.142 -22.680  0.00  0.00    +0.055 C 
BRANCH   4   7
ATOM      7  O   UNL     1      34.320 -17.992 -21.928  0.00  0.00    -0.472 OA
BRANCH   7   9
ATOM      8 CL   UNL     1      33.851 -22.848 -18.643  0.00  0.00    -0.082 Cl
ATOM      9  C   UNL     1      34.211 -19.125 -21.164  0.00  0.00    +0.139 C 
ATOM     10  C   UNL     1      35.359 -19.773 -20.708  0.00  0.00    +0.038 C 
ATOM     11  C   UNL     1      32.950 -19.627 -20.838  0.00  0.00    +0.038 C 
ATOM     12  C   UNL     1      35.247 -20.924 -19.929  0.00  0.00    +0.015 C 
ATOM     13  C   UNL     1      32.839 -20.778 -20.058  0.00  0.00    +0.015 C 
ATOM     14  C   UNL     1      33.988 -21.427 -19.603  0.00  0.00    +0.058 C 
ENDBRANCH   7   9
ENDBRANCH   4   7
ENDBRANCH   3   4
ENDBRANCH   1   3
BRANCH   1  15
ATOM     15  C   UNL     1      33.462 -14.978 -23.841  0.00  0.00    +0.212 C 
BRANCH  15  16
ATOM     16  C   UNL     1      33.640 -13.538 -23.389  0.00  0.00    +0.095 C 
BRANCH  16  17
ATOM     17  C   UNL     1      32.373 -12.977 -22.764  0.00  0.00    +0.213 C 
BRANCH  17  18
ATOM     18  O   UNL     1      32.542 -11.582 -22.554  0.00  0.00    -0.445 OA
BRANCH  18  20
ATOM     19  O   UNL     1      30.564 -11.489 -21.379  0.00  0.00    -0.245 OA
ATOM     20  C   UNL     1      31.538 -10.951 -21.884  0.00  0.00    +0.343 C 
BRANCH  20  22
ATOM     21  N   UNL     1      31.713  -7.349 -22.969  0.00  0.00    -0.242 NA
ATOM     22  C   UNL     1      31.774  -9.486 -21.840  0.00  0.00    +0.095 C 
ATOM     23  C   UNL     1      32.257  -8.872 -20.689  0.00  0.00    +0.010 C 
ATOM     24  C   UNL     1      31.520  -8.688 -22.944  0.00  0.00    +0.105 C 
ATOM     25  C   UNL     1      32.467  -7.498 -20.678  0.00  0.00    +0.021 C 
ATOM     26  C   UNL     1      32.182  -6.788 -21.833  0.00  0.00    +0.099 C 
ENDBRANCH  20  22
ENDBRANCH  18  20
ENDBRANCH  17  18
ENDBRANCH  16  17
ENDBRANCH  15  16
ENDBRANCH   1  15
TORSDOF 10
ENDMDL
MODEL 9
REMARK VINA RESULT:      -8.6      4.062      8.322
REMARK  Name = 68671
REMARK  10 active torsions:
REMARK  status: ('A' for Active; 'I' for Inactive)
REMARK    1  A    between atoms: O_1  and  C_3
REMARK    2  A    between atoms: O_1  and  C_15
REMARK    3  A    between atoms: C_3  and  C_4
REMARK    4  A    between atoms: C_4  and  O_7
REMARK    5  A    between atoms: O_7  and  C_9
REMARK    6  A    between atoms: C_15  and  C_16
REMARK    7  A    between atoms: C_16  and  C_17
REMARK    8  A    between atoms: C_17  and  O_18
REMARK    9  A    between atoms: O_18  and  C_20
REMARK   10  A    between atoms: C_20  and  C_22
REMARK                            x       y       z     vdW  Elec       q    Type
REMARK                         _______ _______ _______ _____ _____    ______ ____
ROOT
ATOM      1  O   UNL     1      33.927 -11.536 -23.952  0.00  0.00    -0.446 OA
ENDROOT
BRANCH   1   3
ATOM      2  O   UNL     1      33.740 -12.413 -26.073  0.00  0.00    -0.246 OA
ATOM      3  C   UNL     1      33.755 -12.545 -24.855  0.00  0.00    +0.353 C 
BRANCH   3   4
ATOM      4  C   UNL     1      33.538 -13.876 -24.139  0.00  0.00    +0.221 C 
ATOM      5  C   UNL     1      32.457 -13.697 -23.078  0.00  0.00    +0.055 C 
ATOM      6  C   UNL     1      33.151 -14.968 -25.134  0.00  0.00    +0.055 C 
BRANCH   4   7
ATOM      7  O   UNL     1      34.735 -14.275 -23.484  0.00  0.00    -0.472 OA
BRANCH   7   9
ATOM      8 CL   UNL     1      34.723 -19.590 -20.967  0.00  0.00    -0.082 Cl
ATOM      9  C   UNL     1      34.734 -15.514 -22.897  0.00  0.00    +0.139 C 
ATOM     10  C   UNL     1      34.404 -15.646 -21.549  0.00  0.00    +0.038 C 
ATOM     11  C   UNL     1      35.059 -16.643 -23.651  0.00  0.00    +0.038 C 
ATOM     12  C   UNL     1      34.400 -16.907 -20.952  0.00  0.00    +0.015 C 
ATOM     13  C   UNL     1      35.055 -17.903 -23.054  0.00  0.00    +0.015 C 
ATOM     14  C   UNL     1      34.725 -18.035 -21.704  0.00  0.00    +0.058 C 
ENDBRANCH   7   9
ENDBRANCH   4   7
ENDBRANCH   3   4
ENDBRANCH   1   3
BRANCH   1  15
ATOM     15  C   UNL     1      33.501 -10.239 -24.384  0.00  0.00    +0.212 C 
BRANCH  15  16
ATOM     16  C   UNL     1      34.529  -9.196 -23.978  0.00  0.00    +0.095 C 
BRANCH  16  17
ATOM     17  C   UNL     1      33.886  -7.859 -23.652  0.00  0.00    +0.213 C 
BRANCH  17  18
ATOM     18  O   UNL     1      33.653  -7.788 -22.252  0.00  0.00    -0.445 OA
BRANCH  18  20
ATOM     19  O   UNL     1      31.525  -6.918 -22.146  0.00  0.00    -0.245 OA
ATOM     20  C   UNL     1      32.349  -7.773 -21.862  0.00  0.00    +0.343 C 
BRANCH  20  22
ATOM     21  N   UNL     1      32.023  -9.992 -18.836  0.00  0.00    -0.242 NA
ATOM     22  C   UNL     1      32.038  -8.957 -21.020  0.00  0.00    +0.095 C 
ATOM     23  C   UNL     1      31.491 -10.108 -21.578  0.00  0.00    +0.010 C 
ATOM     24  C   UNL     1      32.283  -8.949 -19.657  0.00  0.00    +0.105 C 
ATOM     25  C   UNL     1      31.210 -11.200 -20.766  0.00  0.00    +0.021 C 
ATOM     26  C   UNL     1      31.492 -11.093 -19.413  0.00  0.00    +0.099 C 
ENDBRANCH  20  22
ENDBRANCH  18  20
ENDBRANCH  17  18
ENDBRANCH  16  17
ENDBRANCH  15  16
ENDBRANCH   1  15
TORSDOF 10
ENDMDL
