MODEL 1
REMARK VINA RESULT:     -10.7      0.000      0.000
REMARK  Name = 6420118
REMARK  2 active torsions:
REMARK  status: ('A' for Active; 'I' for Inactive)
REMARK    1  A    between atoms: S_1  and  C_7
REMARK    2  A    between atoms: S_1  and  C_18
REMARK                            x       y       z     vdW  Elec       q    Type
REMARK                         _______ _______ _______ _____ _____    ______ ____
ROOT
ATOM      1  S   UNL     1      35.386 -18.734 -22.435  0.00  0.00    +0.077 S 
ATOM      2  O   UNL     1      36.732 -18.506 -21.958  0.00  0.00    -0.160 OA
ATOM      3  O   UNL     1      35.077 -19.281 -23.739  0.00  0.00    -0.160 OA
ENDROOT
BRANCH   1   7
ATOM      4 CL   UNL     1      31.682 -11.658 -22.455  0.00  0.00    -0.082 Cl
ATOM      5  O   UNL     1      34.090 -16.775 -21.081  0.00  0.00    -0.437 OA
ATOM      6  C   UNL     1      34.245 -16.243 -23.262  0.00  0.00    +0.034 A 
ATOM      7  C   UNL     1      34.543 -17.177 -22.297  0.00  0.00    +0.253 A 
ATOM      8  C   UNL     1      33.561 -15.189 -22.601  0.00  0.00    +0.036 A 
ATOM      9  C   UNL     1      33.491 -15.564 -21.264  0.00  0.00    +0.147 A 
ATOM     10  C   UNL     1      34.571 -16.323 -24.699  0.00  0.00    +0.036 C 
ATOM     11  C   UNL     1      32.994 -13.962 -22.986  0.00  0.00    +0.014 C 
ATOM     12  C   UNL     1      32.892 -14.796 -20.267  0.00  0.00    +0.038 C 
ATOM     13  C   UNL     1      32.383 -13.167 -22.005  0.00  0.00    +0.058 C 
ATOM     14  C   UNL     1      32.335 -13.579 -20.671  0.00  0.00    +0.015 C 
ENDBRANCH   1   7
BRANCH   1  18
ATOM     15  O   UNL     1      32.803 -22.158 -18.709  0.00  0.00    -0.268 OA
ATOM     16  N   UNL     1      33.329 -19.795 -21.305  0.00  0.00    -0.160 NA
ATOM     17  N   UNL     1      32.724 -20.617 -20.412  0.00  0.00    -0.201 N 
ATOM     18  C   UNL     1      34.618 -19.792 -21.284  0.00  0.00    +0.211 C 
ATOM     19  C   UNL     1      35.482 -20.578 -20.399  0.00  0.00    +0.045 C 
ATOM     20  C   UNL     1      34.857 -21.374 -19.532  0.00  0.00    +0.062 C 
ATOM     21  C   UNL     1      33.378 -21.424 -19.508  0.00  0.00    +0.265 C 
ATOM     22  H   UNL     1      31.738 -20.637 -20.409  0.00  0.00    +0.178 HD
ENDBRANCH   1  18
TORSDOF 2
ENDMDL
MODEL 2
REMARK VINA RESULT:     -10.1      1.116      1.897
REMARK  Name = 6420118
REMARK  2 active torsions:
REMARK  status: ('A' for Active; 'I' for Inactive)
REMARK    1  A    between atoms: S_1  and  C_7
REMARK    2  A    between atoms: S_1  and  C_18
REMARK                            x       y       z     vdW  Elec       q    Type
REMARK                         _______ _______ _______ _____ _____    ______ ____
ROOT
ATOM      1  S   UNL     1      35.525 -18.667 -22.808  0.00  0.00    +0.077 S 
ATOM      2  O   UNL     1      36.849 -18.432 -22.276  0.00  0.00    -0.160 OA
ATOM      3  O   UNL     1      35.269 -19.339 -24.063  0.00  0.00    -0.160 OA
ENDROOT
BRANCH   1   7
ATOM      4 CL   UNL     1      32.054 -11.480 -22.503  0.00  0.00    -0.082 Cl
ATOM      5  O   UNL     1      34.314 -16.604 -24.085  0.00  0.00    -0.437 OA
ATOM      6  C   UNL     1      34.453 -16.181 -21.880  0.00  0.00    +0.034 A 
ATOM      7  C   UNL     1      34.735 -17.078 -22.884  0.00  0.00    +0.253 A 
ATOM      8  C   UNL     1      33.815 -15.075 -22.499  0.00  0.00    +0.036 A 
ATOM      9  C   UNL     1      33.753 -15.384 -23.854  0.00  0.00    +0.147 A 
ATOM     10  C   UNL     1      34.757 -16.337 -20.444  0.00  0.00    +0.036 C 
ATOM     11  C   UNL     1      33.283 -13.848 -22.065  0.00  0.00    +0.014 C 
ATOM     12  C   UNL     1      33.192 -14.551 -24.821  0.00  0.00    +0.038 C 
ATOM     13  C   UNL     1      32.712 -12.989 -23.015  0.00  0.00    +0.058 C 
ATOM     14  C   UNL     1      32.669 -13.337 -24.367  0.00  0.00    +0.015 C 
ENDBRANCH   1   7
BRANCH   1  18
ATOM     15  O   UNL     1      32.607 -21.585 -18.902  0.00  0.00    -0.268 OA
ATOM     16  N   UNL     1      33.369 -19.471 -21.650  0.00  0.00    -0.160 NA
ATOM     17  N   UNL     1      32.683 -20.173 -20.713  0.00  0.00    -0.201 N 
ATOM     18  C   UNL     1      34.653 -19.571 -21.601  0.00  0.00    +0.211 C 
ATOM     19  C   UNL     1      35.435 -20.357 -20.641  0.00  0.00    +0.045 C 
ATOM     20  C   UNL     1      34.733 -21.033 -19.734  0.00  0.00    +0.062 C 
ATOM     21  C   UNL     1      33.254 -20.961 -19.739  0.00  0.00    +0.265 C 
ATOM     22  H   UNL     1      31.700 -20.113 -20.731  0.00  0.00    +0.178 HD
ENDBRANCH   1  18
TORSDOF 2
ENDMDL
MODEL 3
REMARK VINA RESULT:     -10.0      5.489      9.178
REMARK  Name = 6420118
REMARK  2 active torsions:
REMARK  status: ('A' for Active; 'I' for Inactive)
REMARK    1  A    between atoms: S_1  and  C_7
REMARK    2  A    between atoms: S_1  and  C_18
REMARK                            x       y       z     vdW  Elec       q    Type
REMARK                         _______ _______ _______ _____ _____    ______ ____
ROOT
ATOM      1  S   UNL     1      33.601 -22.776 -18.651  0.00  0.00    +0.077 S 
ATOM      2  O   UNL     1      32.284 -22.236 -18.391  0.00  0.00    -0.160 OA
ATOM      3  O   UNL     1      33.840 -23.976 -19.423  0.00  0.00    -0.160 OA
ENDROOT
BRANCH   1   7
ATOM      4 CL   UNL     1      36.428 -23.897 -11.266  0.00  0.00    -0.082 Cl
ATOM      5  O   UNL     1      35.713 -22.904 -16.955  0.00  0.00    -0.437 OA
ATOM      6  C   UNL     1      33.795 -23.281 -15.840  0.00  0.00    +0.034 A 
ATOM      7  C   UNL     1      34.363 -23.004 -17.062  0.00  0.00    +0.253 A 
ATOM      8  C   UNL     1      34.865 -23.359 -14.911  0.00  0.00    +0.036 A 
ATOM      9  C   UNL     1      36.022 -23.121 -15.645  0.00  0.00    +0.147 A 
ATOM     10  C   UNL     1      32.359 -23.462 -15.554  0.00  0.00    +0.036 C 
ATOM     11  C   UNL     1      34.984 -23.605 -13.532  0.00  0.00    +0.014 C 
ATOM     12  C   UNL     1      37.305 -23.107 -15.100  0.00  0.00    +0.038 C 
ATOM     13  C   UNL     1      36.262 -23.598 -12.955  0.00  0.00    +0.058 C 
ATOM     14  C   UNL     1      37.400 -23.354 -13.728  0.00  0.00    +0.015 C 
ENDBRANCH   1   7
BRANCH   1  18
ATOM     15  O   UNL     1      36.649 -18.702 -21.179  0.00  0.00    -0.268 OA
ATOM     16  N   UNL     1      35.785 -21.541 -19.231  0.00  0.00    -0.160 NA
ATOM     17  N   UNL     1      36.503 -20.564 -19.840  0.00  0.00    -0.201 N 
ATOM     18  C   UNL     1      34.513 -21.518 -19.437  0.00  0.00    +0.211 C 
ATOM     19  C   UNL     1      33.775 -20.549 -20.253  0.00  0.00    +0.045 C 
ATOM     20  C   UNL     1      34.507 -19.602 -20.836  0.00  0.00    +0.062 C 
ATOM     21  C   UNL     1      35.974 -19.576 -20.640  0.00  0.00    +0.265 C 
ATOM     22  H   UNL     1      37.478 -20.562 -19.698  0.00  0.00    +0.178 HD
ENDBRANCH   1  18
TORSDOF 2
ENDMDL
MODEL 4
REMARK VINA RESULT:     -10.0     10.081     11.319
REMARK  Name = 6420118
REMARK  2 active torsions:
REMARK  status: ('A' for Active; 'I' for Inactive)
REMARK    1  A    between atoms: S_1  and  C_7
REMARK    2  A    between atoms: S_1  and  C_18
REMARK                            x       y       z     vdW  Elec       q    Type
REMARK                         _______ _______ _______ _____ _____    ______ ____
ROOT
ATOM      1  S   UNL     1      36.345 -24.355 -11.972  0.00  0.00    +0.077 S 
ATOM      2  O   UNL     1      36.041 -25.417 -11.039  0.00  0.00    -0.160 OA
ATOM      3  O   UNL     1      36.784 -23.035 -11.574  0.00  0.00    -0.160 OA
ENDROOT
BRANCH   1   7
ATOM      4 CL   UNL     1      30.192 -23.090 -16.904  0.00  0.00    -0.082 Cl
ATOM      5  O   UNL     1      33.729 -24.724 -12.582  0.00  0.00    -0.437 OA
ATOM      6  C   UNL     1      34.729 -23.476 -14.164  0.00  0.00    +0.034 A 
ATOM      7  C   UNL     1      34.895 -24.152 -12.978  0.00  0.00    +0.253 A 
ATOM      8  C   UNL     1      33.367 -23.639 -14.530  0.00  0.00    +0.036 A 
ATOM      9  C   UNL     1      32.796 -24.413 -13.525  0.00  0.00    +0.147 A 
ATOM     10  C   UNL     1      35.762 -22.730 -14.909  0.00  0.00    +0.036 C 
ATOM     11  C   UNL     1      32.554 -23.219 -15.598  0.00  0.00    +0.014 C 
ATOM     12  C   UNL     1      31.458 -24.804 -13.504  0.00  0.00    +0.038 C 
ATOM     13  C   UNL     1      31.204 -23.596 -15.604  0.00  0.00    +0.058 C 
ATOM     14  C   UNL     1      30.668 -24.374 -14.576  0.00  0.00    +0.015 C 
ENDBRANCH   1   7
BRANCH   1  18
ATOM     15  O   UNL     1      40.429 -26.281 -15.420  0.00  0.00    -0.268 OA
ATOM     16  N   UNL     1      38.739 -24.413 -12.919  0.00  0.00    -0.160 NA
ATOM     17  N   UNL     1      39.706 -24.881 -13.747  0.00  0.00    -0.201 N 
ATOM     18  C   UNL     1      37.580 -24.963 -13.039  0.00  0.00    +0.211 C 
ATOM     19  C   UNL     1      37.208 -26.030 -13.973  0.00  0.00    +0.045 C 
ATOM     20  C   UNL     1      38.180 -26.467 -14.773  0.00  0.00    +0.062 C 
ATOM     21  C   UNL     1      39.534 -25.877 -14.682  0.00  0.00    +0.265 C 
ATOM     22  H   UNL     1      40.602 -24.476 -13.673  0.00  0.00    +0.178 HD
ENDBRANCH   1  18
TORSDOF 2
ENDMDL
MODEL 5
REMARK VINA RESULT:      -9.8      3.589      6.619
REMARK  Name = 6420118
REMARK  2 active torsions:
REMARK  status: ('A' for Active; 'I' for Inactive)
REMARK    1  A    between atoms: S_1  and  C_7
REMARK    2  A    between atoms: S_1  and  C_18
REMARK                            x       y       z     vdW  Elec       q    Type
REMARK                         _______ _______ _______ _____ _____    ______ ____
ROOT
ATOM      1  S   UNL     1      35.594 -18.458 -22.552  0.00  0.00    +0.077 S 
ATOM      2  O   UNL     1      35.000 -18.966 -23.769  0.00  0.00    -0.160 OA
ATOM      3  O   UNL     1      37.005 -18.172 -22.404  0.00  0.00    -0.160 OA
ENDROOT
BRANCH   1   7
ATOM      4 CL   UNL     1      32.957 -23.510 -16.956  0.00  0.00    -0.082 Cl
ATOM      5  O   UNL     1      36.124 -20.168 -20.515  0.00  0.00    -0.437 OA
ATOM      6  C   UNL     1      33.906 -20.050 -20.876  0.00  0.00    +0.034 A 
ATOM      7  C   UNL     1      35.146 -19.603 -21.269  0.00  0.00    +0.253 A 
ATOM      8  C   UNL     1      34.129 -20.954 -19.804  0.00  0.00    +0.036 A 
ATOM      9  C   UNL     1      35.507 -20.992 -19.621  0.00  0.00    +0.147 A 
ATOM     10  C   UNL     1      32.604 -19.666 -21.454  0.00  0.00    +0.036 C 
ATOM     11  C   UNL     1      33.318 -21.744 -18.970  0.00  0.00    +0.014 C 
ATOM     12  C   UNL     1      36.146 -21.767 -18.655  0.00  0.00    +0.038 C 
ATOM     13  C   UNL     1      33.933 -22.535 -17.988  0.00  0.00    +0.058 C 
ATOM     14  C   UNL     1      35.322 -22.544 -17.837  0.00  0.00    +0.015 C 
ENDBRANCH   1   7
BRANCH   1  18
ATOM     15  O   UNL     1      32.872 -13.608 -21.393  0.00  0.00    -0.268 OA
ATOM     16  N   UNL     1      34.166 -16.403 -23.158  0.00  0.00    -0.160 NA
ATOM     17  N   UNL     1      33.519 -15.246 -22.870  0.00  0.00    -0.201 N 
ATOM     18  C   UNL     1      34.767 -16.974 -22.171  0.00  0.00    +0.211 C 
ATOM     19  C   UNL     1      34.820 -16.500 -20.785  0.00  0.00    +0.045 C 
ATOM     20  C   UNL     1      34.176 -15.361 -20.534  0.00  0.00    +0.062 C 
ATOM     21  C   UNL     1      33.465 -14.658 -21.626  0.00  0.00    +0.265 C 
ATOM     22  H   UNL     1      33.052 -14.791 -23.608  0.00  0.00    +0.178 HD
ENDBRANCH   1  18
TORSDOF 2
ENDMDL
MODEL 6
REMARK VINA RESULT:      -9.6      6.804      9.175
REMARK  Name = 6420118
REMARK  2 active torsions:
REMARK  status: ('A' for Active; 'I' for Inactive)
REMARK    1  A    between atoms: S_1  and  C_7
REMARK    2  A    between atoms: S_1  and  C_18
REMARK                            x       y       z     vdW  Elec       q    Type
REMARK                         _______ _______ _______ _____ _____    ______ ____
ROOT
ATOM      1  S   UNL     1      35.632 -24.157 -14.374  0.00  0.00    +0.077 S 
ATOM      2  O   UNL     1      34.678 -25.243 -14.408  0.00  0.00    -0.160 OA
ATOM      3  O   UNL     1      35.682 -23.161 -13.325  0.00  0.00    -0.160 OA
ENDROOT
BRANCH   1   7
ATOM      4 CL   UNL     1      35.444 -20.070 -21.233  0.00  0.00    -0.082 Cl
ATOM      5  O   UNL     1      34.281 -23.385 -16.595  0.00  0.00    -0.437 OA
ATOM      6  C   UNL     1      36.350 -22.501 -16.596  0.00  0.00    +0.034 A 
ATOM      7  C   UNL     1      35.454 -23.295 -15.917  0.00  0.00    +0.253 A 
ATOM      8  C   UNL     1      35.687 -22.068 -17.774  0.00  0.00    +0.036 A 
ATOM      9  C   UNL     1      34.419 -22.638 -17.726  0.00  0.00    +0.147 A 
ATOM     10  C   UNL     1      37.726 -22.167 -16.181  0.00  0.00    +0.036 C 
ATOM     11  C   UNL     1      36.018 -21.259 -18.875  0.00  0.00    +0.014 C 
ATOM     12  C   UNL     1      33.444 -22.458 -18.705  0.00  0.00    +0.038 C 
ATOM     13  C   UNL     1      35.057 -21.059 -19.876  0.00  0.00    +0.058 C 
ATOM     14  C   UNL     1      33.794 -21.650 -19.791  0.00  0.00    +0.015 C 
ENDBRANCH   1   7
BRANCH   1  18
ATOM     15  O   UNL     1      40.777 -26.560 -14.581  0.00  0.00    -0.268 OA
ATOM     16  N   UNL     1      37.430 -25.696 -15.390  0.00  0.00    -0.160 NA
ATOM     17  N   UNL     1      38.661 -26.263 -15.430  0.00  0.00    -0.201 N 
ATOM     18  C   UNL     1      37.216 -24.879 -14.416  0.00  0.00    +0.211 C 
ATOM     19  C   UNL     1      38.162 -24.510 -13.358  0.00  0.00    +0.045 C 
ATOM     20  C   UNL     1      39.362 -25.085 -13.425  0.00  0.00    +0.062 C 
ATOM     21  C   UNL     1      39.669 -26.030 -14.521  0.00  0.00    +0.265 C 
ATOM     22  H   UNL     1      38.849 -26.890 -16.166  0.00  0.00    +0.178 HD
ENDBRANCH   1  18
TORSDOF 2
ENDMDL
MODEL 7
REMARK VINA RESULT:      -9.5      4.337      6.281
REMARK  Name = 6420118
REMARK  2 active torsions:
REMARK  status: ('A' for Active; 'I' for Inactive)
REMARK    1  A    between atoms: S_1  and  C_7
REMARK    2  A    between atoms: S_1  and  C_18
REMARK                            x       y       z     vdW  Elec       q    Type
REMARK                         _______ _______ _______ _____ _____    ______ ____
ROOT
ATOM      1  S   UNL     1      33.844 -23.497 -17.558  0.00  0.00    +0.077 S 
ATOM      2  O   UNL     1      34.907 -23.415 -16.581  0.00  0.00    -0.160 OA
ATOM      3  O   UNL     1      33.559 -24.682 -18.340  0.00  0.00    -0.160 OA
ENDROOT
BRANCH   1   7
ATOM      4 CL   UNL     1      35.704 -17.534 -22.535  0.00  0.00    -0.082 Cl
ATOM      5  O   UNL     1      33.055 -21.618 -19.347  0.00  0.00    -0.437 OA
ATOM      6  C   UNL     1      35.285 -21.535 -19.063  0.00  0.00    +0.034 A 
ATOM      7  C   UNL     1      34.116 -22.161 -18.697  0.00  0.00    +0.253 A 
ATOM      8  C   UNL     1      34.925 -20.536 -20.005  0.00  0.00    +0.036 A 
ATOM      9  C   UNL     1      33.544 -20.628 -20.145  0.00  0.00    +0.147 A 
ATOM     10  C   UNL     1      36.643 -21.843 -18.574  0.00  0.00    +0.036 C 
ATOM     11  C   UNL     1      35.613 -19.565 -20.754  0.00  0.00    +0.014 C 
ATOM     12  C   UNL     1      32.788 -19.813 -20.985  0.00  0.00    +0.038 C 
ATOM     13  C   UNL     1      34.879 -18.730 -21.608  0.00  0.00    +0.058 C 
ATOM     14  C   UNL     1      33.492 -18.854 -21.720  0.00  0.00    +0.015 C 
ENDBRANCH   1   7
BRANCH   1  18
ATOM     15  O   UNL     1      28.977 -22.234 -14.913  0.00  0.00    -0.268 OA
ATOM     16  N   UNL     1      31.353 -22.851 -17.478  0.00  0.00    -0.160 NA
ATOM     17  N   UNL     1      30.196 -22.551 -16.835  0.00  0.00    -0.201 N 
ATOM     18  C   UNL     1      32.364 -23.114 -16.724  0.00  0.00    +0.211 C 
ATOM     19  C   UNL     1      32.387 -23.119 -15.258  0.00  0.00    +0.045 C 
ATOM     20  C   UNL     1      31.237 -22.819 -14.657  0.00  0.00    +0.062 C 
ATOM     21  C   UNL     1      30.038 -22.509 -15.468  0.00  0.00    +0.265 C 
ATOM     22  H   UNL     1      29.408 -22.346 -17.390  0.00  0.00    +0.178 HD
ENDBRANCH   1  18
TORSDOF 2
ENDMDL
MODEL 8
REMARK VINA RESULT:      -9.5      8.313      9.894
REMARK  Name = 6420118
REMARK  2 active torsions:
REMARK  status: ('A' for Active; 'I' for Inactive)
REMARK    1  A    between atoms: S_1  and  C_7
REMARK    2  A    between atoms: S_1  and  C_18
REMARK                            x       y       z     vdW  Elec       q    Type
REMARK                         _______ _______ _______ _____ _____    ______ ____
ROOT
ATOM      1  S   UNL     1      35.597 -23.979 -15.371  0.00  0.00    +0.077 S 
ATOM      2  O   UNL     1      36.304 -22.833 -15.901  0.00  0.00    -0.160 OA
ATOM      3  O   UNL     1      35.826 -25.339 -15.810  0.00  0.00    -0.160 OA
ENDROOT
BRANCH   1   7
ATOM      4 CL   UNL     1      27.948 -22.330 -16.972  0.00  0.00    -0.082 Cl
ATOM      5  O   UNL     1      33.041 -23.696 -14.511  0.00  0.00    -0.437 OA
ATOM      6  C   UNL     1      33.168 -23.294 -16.721  0.00  0.00    +0.034 A 
ATOM      7  C   UNL     1      33.868 -23.634 -15.587  0.00  0.00    +0.253 A 
ATOM      8  C   UNL     1      31.815 -23.133 -16.323  0.00  0.00    +0.036 A 
ATOM      9  C   UNL     1      31.790 -23.391 -14.956  0.00  0.00    +0.147 A 
ATOM     10  C   UNL     1      33.715 -23.130 -18.081  0.00  0.00    +0.036 C 
ATOM     11  C   UNL     1      30.610 -22.799 -16.966  0.00  0.00    +0.014 C 
ATOM     12  C   UNL     1      30.639 -23.338 -14.172  0.00  0.00    +0.038 C 
ATOM     13  C   UNL     1      29.435 -22.738 -16.202  0.00  0.00    +0.058 C 
ATOM     14  C   UNL     1      29.452 -23.004 -14.831  0.00  0.00    +0.015 C 
ENDBRANCH   1   7
BRANCH   1  18
ATOM     15  O   UNL     1      36.421 -24.059  -9.750  0.00  0.00    -0.268 OA
ATOM     16  N   UNL     1      35.180 -24.845 -12.982  0.00  0.00    -0.160 NA
ATOM     17  N   UNL     1      35.385 -24.856 -11.642  0.00  0.00    -0.201 N 
ATOM     18  C   UNL     1      35.867 -23.984 -13.651  0.00  0.00    +0.211 C 
ATOM     19  C   UNL     1      36.836 -23.025 -13.111  0.00  0.00    +0.045 C 
ATOM     20  C   UNL     1      37.014 -23.059 -11.791  0.00  0.00    +0.062 C 
ATOM     21  C   UNL     1      36.255 -24.028 -10.968  0.00  0.00    +0.265 C 
ATOM     22  H   UNL     1      34.872 -25.506 -11.109  0.00  0.00    +0.178 HD
ENDBRANCH   1  18
TORSDOF 2
ENDMDL
MODEL 9
REMARK VINA RESULT:      -9.5      6.383      8.674
REMARK  Name = 6420118
REMARK  2 active torsions:
REMARK  status: ('A' for Active; 'I' for Inactive)
REMARK    1  A    between atoms: S_1  and  C_7
REMARK    2  A    between atoms: S_1  and  C_18
REMARK                            x       y       z     vdW  Elec       q    Type
REMARK                         _______ _______ _______ _____ _____    ______ ____
ROOT
ATOM      1  S   UNL     1      34.704 -24.132 -14.955  0.00  0.00    +0.077 S 
ATOM      2  O   UNL     1      33.746 -25.193 -15.172  0.00  0.00    -0.160 OA
ATOM      3  O   UNL     1      34.634 -23.197 -13.852  0.00  0.00    -0.160 OA
ENDROOT
BRANCH   1   7
ATOM      4 CL   UNL     1      34.206 -19.930 -21.728  0.00  0.00    -0.082 Cl
ATOM      5  O   UNL     1      35.929 -22.734 -16.930  0.00  0.00    -0.437 OA
ATOM      6  C   UNL     1      33.707 -22.793 -17.279  0.00  0.00    +0.034 A 
ATOM      7  C   UNL     1      34.738 -23.183 -16.456  0.00  0.00    +0.253 A 
ATOM      8  C   UNL     1      34.299 -22.053 -18.337  0.00  0.00    +0.036 A 
ATOM      9  C   UNL     1      35.665 -22.046 -18.076  0.00  0.00    +0.147 A 
ATOM     10  C   UNL     1      32.272 -23.086 -17.098  0.00  0.00    +0.036 C 
ATOM     11  C   UNL     1      33.831 -21.389 -19.484  0.00  0.00    +0.014 C 
ATOM     12  C   UNL     1      36.612 -21.420 -18.884  0.00  0.00    +0.038 C 
ATOM     13  C   UNL     1      34.760 -20.749 -20.317  0.00  0.00    +0.058 C 
ATOM     14  C   UNL     1      36.125 -20.766 -20.020  0.00  0.00    +0.015 C 
ENDBRANCH   1   7
BRANCH   1  18
ATOM     15  O   UNL     1      39.784 -26.656 -14.620  0.00  0.00    -0.268 OA
ATOM     16  N   UNL     1      36.406 -25.990 -15.487  0.00  0.00    -0.160 NA
ATOM     17  N   UNL     1      37.623 -26.583 -15.400  0.00  0.00    -0.201 N 
ATOM     18  C   UNL     1      36.270 -24.885 -14.837  0.00  0.00    +0.211 C 
ATOM     19  C   UNL     1      37.289 -24.217 -14.021  0.00  0.00    +0.045 C 
ATOM     20  C   UNL     1      38.472 -24.825 -13.955  0.00  0.00    +0.062 C 
ATOM     21  C   UNL     1      38.691 -26.096 -14.681  0.00  0.00    +0.265 C 
ATOM     22  H   UNL     1      37.751 -27.429 -15.889  0.00  0.00    +0.178 HD
ENDBRANCH   1  18
TORSDOF 2
ENDMDL
