MODEL 1
REMARK VINA RESULT:     -11.0      0.000      0.000
REMARK  Name = 23629654
REMARK  7 active torsions:
REMARK  status: ('A' for Active; 'I' for Inactive)
REMARK    1  A    between atoms: N_2  and  C_21
REMARK    2  A    between atoms: C_3  and  C_7
REMARK    3  A    between atoms: C_11  and  C_12
REMARK    4  A    between atoms: C_12  and  N_13
REMARK    5  A    between atoms: N_13  and  C_16
REMARK    6  A    between atoms: C_21  and  C_22
REMARK    7  A    between atoms: C_27  and  C_30
REMARK                            x       y       z     vdW  Elec       q    Type
REMARK                         _______ _______ _______ _____ _____    ______ ____
ROOT
ATOM      1  O   UNL     1      32.317 -25.060 -13.251  0.00  0.00    -0.273 OA
ATOM      2  N   UNL     1      34.207 -23.709 -13.105  0.00  0.00    -0.299 N 
ATOM      3  C   UNL     1      32.927 -24.029 -13.523  0.00  0.00    +0.241 C 
ATOM      4  H   UNL     1      34.592 -22.848 -13.389  0.00  0.00    +0.150 HD
ENDROOT
BRANCH   3   7
ATOM      5  O   UNL     1      34.690 -22.880 -15.967  0.00  0.00    -0.277 OA
ATOM      6  N   UNL     1      32.435 -23.351 -15.749  0.00  0.00    -0.275 N 
ATOM      7  C   UNL     1      32.314 -22.943 -14.355  0.00  0.00    +0.152 C 
ATOM      8  C   UNL     1      30.813 -22.826 -14.115  0.00  0.00    +0.031 C 
ATOM      9  C   UNL     1      31.139 -23.745 -16.297  0.00  0.00    +0.094 C 
ATOM     10  C   UNL     1      30.217 -23.837 -15.090  0.00  0.00    +0.024 C 
ATOM     11  C   UNL     1      33.614 -23.215 -16.465  0.00  0.00    +0.204 C 
BRANCH  11  12
ATOM     12  C   UNL     1      33.518 -23.518 -17.939  0.00  0.00    +0.006 C 
BRANCH  12  13
ATOM     13  N   UNL     1      32.913 -22.357 -18.553  0.00  0.00    +0.391 N 
ATOM     14  H   UNL     1      31.997 -22.614 -18.920  0.00  0.00    -0.084 HD
ATOM     15  H   UNL     1      32.827 -21.627 -17.845  0.00  0.00    -0.084 HD
BRANCH  13  16
ATOM     16  C   UNL     1      33.732 -21.848 -19.639  0.00  0.00    -0.061 C 
ATOM     17  C   UNL     1      35.159 -21.539 -19.207  0.00  0.00    -0.021 C 
ATOM     18  C   UNL     1      33.249 -20.499 -20.159  0.00  0.00    -0.021 C 
ATOM     19  C   UNL     1      35.683 -20.629 -20.315  0.00  0.00    -0.002 C 
ATOM     20  C   UNL     1      34.451 -19.959 -20.929  0.00  0.00    -0.002 C 
ENDBRANCH  13  16
ENDBRANCH  12  13
ENDBRANCH  11  12
ENDBRANCH   3   7
BRANCH   2  21
ATOM     21  C   UNL     1      35.007 -24.578 -12.272  0.00  0.00    +0.116 C 
BRANCH  21  22
ATOM     22  C   UNL     1      36.309 -24.944 -12.931  0.00  0.00    -0.003 C 
ATOM     23  C   UNL     1      37.498 -24.788 -12.232  0.00  0.00    -0.003 C 
ATOM     24  C   UNL     1      36.303 -25.433 -14.231  0.00  0.00    -0.003 C 
ATOM     25  C   UNL     1      38.705 -25.127 -12.845  0.00  0.00    +0.002 C 
ATOM     26  C   UNL     1      37.509 -25.772 -14.844  0.00  0.00    +0.002 C 
ATOM     27  C   UNL     1      38.710 -25.618 -14.152  0.00  0.00    +0.031 C 
BRANCH  27  30
ATOM     28  N   UNL     1      40.930 -26.730 -14.126  0.00  0.00    -0.343 N 
ATOM     29  N   UNL     1      40.214 -25.571 -16.025  0.00  0.00    -0.285 NA
ATOM     30  C   UNL     1      39.967 -25.973 -14.791  0.00  0.00    +0.117 C 
ATOM     31  H   UNL     1      41.775 -26.959 -14.577  0.00  0.00    +0.144 HD
ATOM     32  H   UNL     1      40.765 -27.037 -13.204  0.00  0.00    +0.144 HD
ATOM     33  H   UNL     1      41.065 -25.811 -16.459  0.00  0.00    +0.188 HD
ENDBRANCH  27  30
ENDBRANCH  21  22
ENDBRANCH   2  21
TORSDOF 7
ENDMDL
MODEL 2
REMARK VINA RESULT:     -10.5      8.454     13.788
REMARK  Name = 23629654
REMARK  7 active torsions:
REMARK  status: ('A' for Active; 'I' for Inactive)
REMARK    1  A    between atoms: N_2  and  C_21
REMARK    2  A    between atoms: C_3  and  C_7
REMARK    3  A    between atoms: C_11  and  C_12
REMARK    4  A    between atoms: C_12  and  N_13
REMARK    5  A    between atoms: N_13  and  C_16
REMARK    6  A    between atoms: C_21  and  C_22
REMARK    7  A    between atoms: C_27  and  C_30
REMARK                            x       y       z     vdW  Elec       q    Type
REMARK                         _______ _______ _______ _____ _____    ______ ____
ROOT
ATOM      1  O   UNL     1      32.275 -15.319 -21.725  0.00  0.00    -0.273 OA
ATOM      2  N   UNL     1      32.780 -13.128 -22.329  0.00  0.00    -0.299 N 
ATOM      3  C   UNL     1      33.039 -14.482 -22.199  0.00  0.00    +0.241 C 
ATOM      4  H   UNL     1      33.475 -12.554 -22.726  0.00  0.00    +0.150 HD
ENDROOT
BRANCH   3   7
ATOM      5  O   UNL     1      34.992 -16.135 -20.234  0.00  0.00    -0.277 OA
ATOM      6  N   UNL     1      34.561 -16.284 -22.503  0.00  0.00    -0.275 N 
ATOM      7  C   UNL     1      34.389 -14.856 -22.734  0.00  0.00    +0.152 C 
ATOM      8  C   UNL     1      34.460 -14.696 -24.248  0.00  0.00    +0.031 C 
ATOM      9  C   UNL     1      34.468 -17.034 -23.753  0.00  0.00    +0.094 C 
ATOM     10  C   UNL     1      33.943 -16.033 -24.771  0.00  0.00    +0.024 C 
ATOM     11  C   UNL     1      34.923 -16.800 -21.269  0.00  0.00    +0.204 C 
BRANCH  11  12
ATOM     12  C   UNL     1      35.233 -18.276 -21.248  0.00  0.00    +0.006 C 
BRANCH  12  13
ATOM     13  N   UNL     1      33.984 -18.948 -20.964  0.00  0.00    +0.391 N 
ATOM     14  H   UNL     1      33.551 -18.512 -20.150  0.00  0.00    -0.084 HD
ATOM     15  H   UNL     1      33.381 -18.865 -21.782  0.00  0.00    -0.084 HD
BRANCH  13  16
ATOM     16  C   UNL     1      34.194 -20.358 -20.689  0.00  0.00    -0.061 C 
ATOM     17  C   UNL     1      33.180 -20.924 -19.704  0.00  0.00    -0.021 C 
ATOM     18  C   UNL     1      35.518 -20.631 -19.987  0.00  0.00    -0.021 C 
ATOM     19  C   UNL     1      33.828 -22.220 -19.223  0.00  0.00    -0.002 C 
ATOM     20  C   UNL     1      35.336 -22.031 -19.406  0.00  0.00    -0.002 C 
ENDBRANCH  13  16
ENDBRANCH  12  13
ENDBRANCH  11  12
ENDBRANCH   3   7
BRANCH   2  21
ATOM     21  C   UNL     1      31.539 -12.517 -21.910  0.00  0.00    +0.116 C 
BRANCH  21  22
ATOM     22  C   UNL     1      31.730 -11.079 -21.509  0.00  0.00    -0.003 C 
ATOM     23  C   UNL     1      31.674 -10.729 -20.167  0.00  0.00    -0.003 C 
ATOM     24  C   UNL     1      31.958 -10.121 -22.489  0.00  0.00    -0.003 C 
ATOM     25  C   UNL     1      31.849  -9.395 -19.797  0.00  0.00    +0.002 C 
ATOM     26  C   UNL     1      32.132  -8.788 -22.119  0.00  0.00    +0.002 C 
ATOM     27  C   UNL     1      32.078  -8.425 -20.774  0.00  0.00    +0.031 C 
BRANCH  27  30
ATOM     28  N   UNL     1      31.621  -6.002 -21.072  0.00  0.00    -0.343 N 
ATOM     29  N   UNL     1      33.052  -6.732 -19.375  0.00  0.00    -0.285 NA
ATOM     30  C   UNL     1      32.262  -7.035 -20.389  0.00  0.00    +0.117 C 
ATOM     31  H   UNL     1      31.759  -5.067 -20.794  0.00  0.00    +0.144 HD
ATOM     32  H   UNL     1      31.030  -6.207 -21.832  0.00  0.00    +0.144 HD
ATOM     33  H   UNL     1      33.178  -5.792 -19.112  0.00  0.00    +0.188 HD
ENDBRANCH  27  30
ENDBRANCH  21  22
ENDBRANCH   2  21
TORSDOF 7
ENDMDL
MODEL 3
REMARK VINA RESULT:     -10.5      7.117     11.367
REMARK  Name = 23629654
REMARK  7 active torsions:
REMARK  status: ('A' for Active; 'I' for Inactive)
REMARK    1  A    between atoms: N_2  and  C_21
REMARK    2  A    between atoms: C_3  and  C_7
REMARK    3  A    between atoms: C_11  and  C_12
REMARK    4  A    between atoms: C_12  and  N_13
REMARK    5  A    between atoms: N_13  and  C_16
REMARK    6  A    between atoms: C_21  and  C_22
REMARK    7  A    between atoms: C_27  and  C_30
REMARK                            x       y       z     vdW  Elec       q    Type
REMARK                         _______ _______ _______ _____ _____    ______ ____
ROOT
ATOM      1  O   UNL     1      35.290 -15.056 -22.914  0.00  0.00    -0.273 OA
ATOM      2  N   UNL     1      34.597 -17.262 -23.188  0.00  0.00    -0.299 N 
ATOM      3  C   UNL     1      34.483 -15.888 -23.320  0.00  0.00    +0.241 C 
ATOM      4  H   UNL     1      33.882 -17.829 -23.558  0.00  0.00    +0.150 HD
ENDROOT
BRANCH   3   7
ATOM      5  O   UNL     1      32.251 -14.252 -21.663  0.00  0.00    -0.277 OA
ATOM      6  N   UNL     1      33.044 -14.065 -23.829  0.00  0.00    -0.275 N 
ATOM      7  C   UNL     1      33.240 -15.490 -24.058  0.00  0.00    +0.152 C 
ATOM      8  C   UNL     1      33.413 -15.620 -25.567  0.00  0.00    +0.031 C 
ATOM      9  C   UNL     1      33.342 -13.292 -25.032  0.00  0.00    +0.094 C 
ATOM     10  C   UNL     1      34.018 -14.279 -25.972  0.00  0.00    +0.024 C 
ATOM     11  C   UNL     1      32.491 -13.568 -22.659  0.00  0.00    +0.204 C 
BRANCH  11  12
ATOM     12  C   UNL     1      32.193 -12.090 -22.658  0.00  0.00    +0.006 C 
BRANCH  12  13
ATOM     13  N   UNL     1      30.901 -11.937 -22.026  0.00  0.00    +0.391 N 
ATOM     14  H   UNL     1      30.216 -11.672 -22.733  0.00  0.00    -0.084 HD
ATOM     15  H   UNL     1      30.648 -12.826 -21.593  0.00  0.00    -0.084 HD
BRANCH  13  16
ATOM     16  C   UNL     1      30.936 -10.917 -20.994  0.00  0.00    -0.061 C 
ATOM     17  C   UNL     1      31.841  -9.746 -21.352  0.00  0.00    -0.021 C 
ATOM     18  C   UNL     1      31.549 -11.417 -19.691  0.00  0.00    -0.021 C 
ATOM     19  C   UNL     1      32.087  -9.057 -20.013  0.00  0.00    -0.002 C 
ATOM     20  C   UNL     1      31.898 -10.134 -18.942  0.00  0.00    -0.002 C 
ENDBRANCH  13  16
ENDBRANCH  12  13
ENDBRANCH  11  12
ENDBRANCH   3   7
BRANCH   2  21
ATOM     21  C   UNL     1      35.717 -17.903 -22.536  0.00  0.00    +0.116 C 
BRANCH  21  22
ATOM     22  C   UNL     1      35.269 -18.982 -21.587  0.00  0.00    -0.003 C 
ATOM     23  C   UNL     1      33.914 -19.230 -21.422  0.00  0.00    -0.003 C 
ATOM     24  C   UNL     1      36.220 -19.714 -20.888  0.00  0.00    -0.003 C 
ATOM     25  C   UNL     1      33.500 -20.228 -20.541  0.00  0.00    +0.002 C 
ATOM     26  C   UNL     1      35.807 -20.712 -20.007  0.00  0.00    +0.002 C 
ATOM     27  C   UNL     1      34.447 -20.970 -19.833  0.00  0.00    +0.031 C 
BRANCH  27  30
ATOM     28  N   UNL     1      32.664 -22.275 -18.699  0.00  0.00    -0.343 N 
ATOM     29  N   UNL     1      34.916 -22.729 -18.264  0.00  0.00    -0.285 NA
ATOM     30  C   UNL     1      34.016 -22.012 -18.915  0.00  0.00    +0.117 C 
ATOM     31  H   UNL     1      32.395 -22.986 -18.073  0.00  0.00    +0.144 HD
ATOM     32  H   UNL     1      31.979 -21.750 -19.172  0.00  0.00    +0.144 HD
ATOM     33  H   UNL     1      34.626 -23.435 -17.643  0.00  0.00    +0.188 HD
ENDBRANCH  27  30
ENDBRANCH  21  22
ENDBRANCH   2  21
TORSDOF 7
ENDMDL
MODEL 4
REMARK VINA RESULT:     -10.4      7.571     11.284
REMARK  Name = 23629654
REMARK  7 active torsions:
REMARK  status: ('A' for Active; 'I' for Inactive)
REMARK    1  A    between atoms: N_2  and  C_21
REMARK    2  A    between atoms: C_3  and  C_7
REMARK    3  A    between atoms: C_11  and  C_12
REMARK    4  A    between atoms: C_12  and  N_13
REMARK    5  A    between atoms: N_13  and  C_16
REMARK    6  A    between atoms: C_21  and  C_22
REMARK    7  A    between atoms: C_27  and  C_30
REMARK                            x       y       z     vdW  Elec       q    Type
REMARK                         _______ _______ _______ _____ _____    ______ ____
ROOT
ATOM      1  O   UNL     1      33.759 -15.997 -23.777  0.00  0.00    -0.273 OA
ATOM      2  N   UNL     1      34.792 -17.139 -22.031  0.00  0.00    -0.299 N 
ATOM      3  C   UNL     1      34.326 -16.013 -22.688  0.00  0.00    +0.241 C 
ATOM      4  H   UNL     1      35.232 -17.024 -21.158  0.00  0.00    +0.150 HD
ENDROOT
BRANCH   3   7
ATOM      5  O   UNL     1      34.436 -13.245 -24.341  0.00  0.00    -0.277 OA
ATOM      6  N   UNL     1      33.531 -13.808 -22.286  0.00  0.00    -0.275 N 
ATOM      7  C   UNL     1      34.566 -14.758 -21.903  0.00  0.00    +0.152 C 
ATOM      8  C   UNL     1      34.358 -14.978 -20.410  0.00  0.00    +0.031 C 
ATOM      9  C   UNL     1      32.553 -13.634 -21.215  0.00  0.00    +0.094 C 
ATOM     10  C   UNL     1      32.861 -14.744 -20.222  0.00  0.00    +0.024 C 
ATOM     11  C   UNL     1      33.594 -13.070 -23.458  0.00  0.00    +0.204 C 
BRANCH  11  12
ATOM     12  C   UNL     1      32.536 -12.006 -23.614  0.00  0.00    +0.006 C 
BRANCH  12  13
ATOM     13  N   UNL     1      33.124 -10.967 -24.430  0.00  0.00    +0.391 N 
ATOM     14  H   UNL     1      33.932 -11.349 -24.922  0.00  0.00    -0.084 HD
ATOM     15  H   UNL     1      32.420 -10.640 -25.091  0.00  0.00    -0.084 HD
BRANCH  13  16
ATOM     16  C   UNL     1      33.552  -9.840 -23.621  0.00  0.00    -0.061 C 
ATOM     17  C   UNL     1      32.527  -8.713 -23.591  0.00  0.00    -0.021 C 
ATOM     18  C   UNL     1      34.785  -9.144 -24.184  0.00  0.00    -0.021 C 
ATOM     19  C   UNL     1      33.328  -7.510 -23.103  0.00  0.00    -0.002 C 
ATOM     20  C   UNL     1      34.784  -7.787 -23.485  0.00  0.00    -0.002 C 
ENDBRANCH  13  16
ENDBRANCH  12  13
ENDBRANCH  11  12
ENDBRANCH   3   7
BRANCH   2  21
ATOM     21  C   UNL     1      34.662 -18.476 -22.565  0.00  0.00    +0.116 C 
BRANCH  21  22
ATOM     22  C   UNL     1      34.443 -19.495 -21.479  0.00  0.00    -0.003 C 
ATOM     23  C   UNL     1      35.527 -20.193 -20.967  0.00  0.00    -0.003 C 
ATOM     24  C   UNL     1      33.157 -19.722 -21.005  0.00  0.00    -0.003 C 
ATOM     25  C   UNL     1      35.323 -21.139 -19.962  0.00  0.00    +0.002 C 
ATOM     26  C   UNL     1      32.953 -20.667 -20.000  0.00  0.00    +0.002 C 
ATOM     27  C   UNL     1      34.035 -21.375 -19.479  0.00  0.00    +0.031 C 
BRANCH  27  30
ATOM     28  N   UNL     1      32.540 -22.787 -18.086  0.00  0.00    -0.343 N 
ATOM     29  N   UNL     1      34.856 -22.863 -17.779  0.00  0.00    -0.285 NA
ATOM     30  C   UNL     1      33.822 -22.360 -18.430  0.00  0.00    +0.117 C 
ATOM     31  H   UNL     1      32.418 -23.455 -17.373  0.00  0.00    +0.144 HD
ATOM     32  H   UNL     1      31.757 -22.422 -18.558  0.00  0.00    +0.144 HD
ATOM     33  H   UNL     1      34.713 -23.530 -17.069  0.00  0.00    +0.188 HD
ENDBRANCH  27  30
ENDBRANCH  21  22
ENDBRANCH   2  21
TORSDOF 7
ENDMDL
MODEL 5
REMARK VINA RESULT:     -10.3      9.848     15.333
REMARK  Name = 23629654
REMARK  7 active torsions:
REMARK  status: ('A' for Active; 'I' for Inactive)
REMARK    1  A    between atoms: N_2  and  C_21
REMARK    2  A    between atoms: C_3  and  C_7
REMARK    3  A    between atoms: C_11  and  C_12
REMARK    4  A    between atoms: C_12  and  N_13
REMARK    5  A    between atoms: N_13  and  C_16
REMARK    6  A    between atoms: C_21  and  C_22
REMARK    7  A    between atoms: C_27  and  C_30
REMARK                            x       y       z     vdW  Elec       q    Type
REMARK                         _______ _______ _______ _____ _____    ______ ____
ROOT
ATOM      1  O   UNL     1      33.422 -13.068 -26.008  0.00  0.00    -0.273 OA
ATOM      2  N   UNL     1      33.926 -12.105 -23.949  0.00  0.00    -0.299 N 
ATOM      3  C   UNL     1      33.410 -13.085 -24.780  0.00  0.00    +0.241 C 
ATOM      4  H   UNL     1      33.857 -12.232 -22.975  0.00  0.00    +0.150 HD
ENDROOT
BRANCH   3   7
ATOM      5  O   UNL     1      33.728 -16.027 -26.065  0.00  0.00    -0.277 OA
ATOM      6  N   UNL     1      33.872 -15.243 -23.892  0.00  0.00    -0.275 N 
ATOM      7  C   UNL     1      32.828 -14.233 -24.011  0.00  0.00    +0.152 C 
ATOM      8  C   UNL     1      32.503 -13.842 -22.574  0.00  0.00    +0.031 C 
ATOM      9  C   UNL     1      34.390 -15.308 -22.528  0.00  0.00    +0.094 C 
ATOM     10  C   UNL     1      33.816 -14.082 -21.834  0.00  0.00    +0.024 C 
ATOM     11  C   UNL     1      34.186 -16.113 -24.925  0.00  0.00    +0.204 C 
BRANCH  11  12
ATOM     12  C   UNL     1      35.163 -17.208 -24.577  0.00  0.00    +0.006 C 
BRANCH  12  13
ATOM     13  N   UNL     1      34.367 -18.356 -24.203  0.00  0.00    +0.391 N 
ATOM     14  H   UNL     1      33.444 -18.038 -23.907  0.00  0.00    -0.084 HD
ATOM     15  H   UNL     1      34.294 -18.975 -25.011  0.00  0.00    -0.084 HD
BRANCH  13  16
ATOM     16  C   UNL     1      34.984 -19.094 -23.116  0.00  0.00    -0.061 C 
ATOM     17  C   UNL     1      34.033 -19.332 -21.950  0.00  0.00    -0.021 C 
ATOM     18  C   UNL     1      36.124 -18.329 -22.456  0.00  0.00    -0.021 C 
ATOM     19  C   UNL     1      34.962 -19.688 -20.793  0.00  0.00    -0.002 C 
ATOM     20  C   UNL     1      36.311 -19.042 -21.119  0.00  0.00    -0.002 C 
ENDBRANCH  13  16
ENDBRANCH  12  13
ENDBRANCH  11  12
ENDBRANCH   3   7
BRANCH   2  21
ATOM     21  C   UNL     1      34.563 -10.905 -24.443  0.00  0.00    +0.116 C 
BRANCH  21  22
ATOM     22  C   UNL     1      33.932  -9.662 -23.876  0.00  0.00    -0.003 C 
ATOM     23  C   UNL     1      32.650  -9.725 -23.348  0.00  0.00    -0.003 C 
ATOM     24  C   UNL     1      34.642  -8.469 -23.890  0.00  0.00    -0.003 C 
ATOM     25  C   UNL     1      32.066  -8.571 -22.824  0.00  0.00    +0.002 C 
ATOM     26  C   UNL     1      34.058  -7.315 -23.367  0.00  0.00    +0.002 C 
ATOM     27  C   UNL     1      32.770  -7.366 -22.834  0.00  0.00    +0.031 C 
BRANCH  27  30
ATOM     28  N   UNL     1      32.023  -5.983 -20.912  0.00  0.00    -0.343 N 
ATOM     29  N   UNL     1      31.726  -5.218 -23.100  0.00  0.00    -0.285 NA
ATOM     30  C   UNL     1      32.162  -6.164 -22.287  0.00  0.00    +0.117 C 
ATOM     31  H   UNL     1      31.608  -5.161 -20.563  0.00  0.00    +0.144 HD
ATOM     32  H   UNL     1      32.339  -6.677 -20.290  0.00  0.00    +0.144 HD
ATOM     33  H   UNL     1      31.314  -4.404 -22.732  0.00  0.00    +0.188 HD
ENDBRANCH  27  30
ENDBRANCH  21  22
ENDBRANCH   2  21
TORSDOF 7
ENDMDL
MODEL 6
REMARK VINA RESULT:     -10.0      8.830     14.172
REMARK  Name = 23629654
REMARK  7 active torsions:
REMARK  status: ('A' for Active; 'I' for Inactive)
REMARK    1  A    between atoms: N_2  and  C_21
REMARK    2  A    between atoms: C_3  and  C_7
REMARK    3  A    between atoms: C_11  and  C_12
REMARK    4  A    between atoms: C_12  and  N_13
REMARK    5  A    between atoms: N_13  and  C_16
REMARK    6  A    between atoms: C_21  and  C_22
REMARK    7  A    between atoms: C_27  and  C_30
REMARK                            x       y       z     vdW  Elec       q    Type
REMARK                         _______ _______ _______ _____ _____    ______ ____
ROOT
ATOM      1  O   UNL     1      34.886 -13.919 -23.628  0.00  0.00    -0.273 OA
ATOM      2  N   UNL     1      32.831 -12.831 -23.508  0.00  0.00    -0.299 N 
ATOM      3  C   UNL     1      33.702 -13.888 -23.304  0.00  0.00    +0.241 C 
ATOM      4  H   UNL     1      31.900 -12.925 -23.202  0.00  0.00    +0.150 HD
ENDROOT
BRANCH   3   7
ATOM      5  O   UNL     1      34.597 -16.860 -24.184  0.00  0.00    -0.277 OA
ATOM      6  N   UNL     1      34.107 -15.916 -22.129  0.00  0.00    -0.275 N 
ATOM      7  C   UNL     1      33.044 -15.036 -22.599  0.00  0.00    +0.152 C 
ATOM      8  C   UNL     1      32.327 -14.585 -21.332  0.00  0.00    +0.031 C 
ATOM      9  C   UNL     1      34.260 -15.829 -20.679  0.00  0.00    +0.094 C 
ATOM     10  C   UNL     1      33.421 -14.628 -20.269  0.00  0.00    +0.024 C 
ATOM     11  C   UNL     1      34.751 -16.816 -22.963  0.00  0.00    +0.204 C 
BRANCH  11  12
ATOM     12  C   UNL     1      35.697 -17.772 -22.280  0.00  0.00    +0.006 C 
BRANCH  12  13
ATOM     13  N   UNL     1      35.076 -19.076 -22.350  0.00  0.00    +0.391 N 
ATOM     14  H   UNL     1      34.242 -19.015 -22.934  0.00  0.00    -0.084 HD
ATOM     15  H   UNL     1      35.749 -19.732 -22.747  0.00  0.00    -0.084 HD
BRANCH  13  16
ATOM     16  C   UNL     1      34.697 -19.551 -21.032  0.00  0.00    -0.061 C 
ATOM     17  C   UNL     1      35.449 -20.809 -20.619  0.00  0.00    -0.021 C 
ATOM     18  C   UNL     1      33.243 -20.003 -20.964  0.00  0.00    -0.021 C 
ATOM     19  C   UNL     1      34.611 -21.372 -19.474  0.00  0.00    -0.002 C 
ATOM     20  C   UNL     1      33.189 -20.852 -19.696  0.00  0.00    -0.002 C 
ENDBRANCH  13  16
ENDBRANCH  12  13
ENDBRANCH  11  12
ENDBRANCH   3   7
BRANCH   2  21
ATOM     21  C   UNL     1      33.224 -11.596 -24.147  0.00  0.00    +0.116 C 
BRANCH  21  22
ATOM     22  C   UNL     1      33.019 -10.408 -23.246  0.00  0.00    -0.003 C 
ATOM     23  C   UNL     1      32.134 -10.502 -22.180  0.00  0.00    -0.003 C 
ATOM     24  C   UNL     1      33.717  -9.234 -23.493  0.00  0.00    -0.003 C 
ATOM     25  C   UNL     1      31.943  -9.401 -21.346  0.00  0.00    +0.002 C 
ATOM     26  C   UNL     1      33.526  -8.132 -22.660  0.00  0.00    +0.002 C 
ATOM     27  C   UNL     1      32.640  -8.215 -21.587  0.00  0.00    +0.031 C 
BRANCH  27  30
ATOM     28  N   UNL     1      31.704  -5.959 -21.134  0.00  0.00    -0.343 N 
ATOM     29  N   UNL     1      32.971  -7.059 -19.506  0.00  0.00    -0.285 NA
ATOM     30  C   UNL     1      32.442  -7.067 -20.717  0.00  0.00    +0.117 C 
ATOM     31  H   UNL     1      31.583  -5.192 -20.528  0.00  0.00    +0.144 HD
ATOM     32  H   UNL     1      31.304  -5.945 -22.033  0.00  0.00    +0.144 HD
ATOM     33  H   UNL     1      32.838  -6.283 -18.916  0.00  0.00    +0.188 HD
ENDBRANCH  27  30
ENDBRANCH  21  22
ENDBRANCH   2  21
TORSDOF 7
ENDMDL
MODEL 7
REMARK VINA RESULT:     -10.0     10.277     15.768
REMARK  Name = 23629654
REMARK  7 active torsions:
REMARK  status: ('A' for Active; 'I' for Inactive)
REMARK    1  A    between atoms: N_2  and  C_21
REMARK    2  A    between atoms: C_3  and  C_7
REMARK    3  A    between atoms: C_11  and  C_12
REMARK    4  A    between atoms: C_12  and  N_13
REMARK    5  A    between atoms: N_13  and  C_16
REMARK    6  A    between atoms: C_21  and  C_22
REMARK    7  A    between atoms: C_27  and  C_30
REMARK                            x       y       z     vdW  Elec       q    Type
REMARK                         _______ _______ _______ _____ _____    ______ ____
ROOT
ATOM      1  O   UNL     1      32.033 -13.574 -22.720  0.00  0.00    -0.273 OA
ATOM      2  N   UNL     1      32.771 -11.374 -22.906  0.00  0.00    -0.299 N 
ATOM      3  C   UNL     1      32.802 -12.731 -23.175  0.00  0.00    +0.241 C 
ATOM      4  H   UNL     1      33.443 -10.795 -23.334  0.00  0.00    +0.150 HD
ENDROOT
BRANCH   3   7
ATOM      5  O   UNL     1      35.000 -14.865 -22.164  0.00  0.00    -0.277 OA
ATOM      6  N   UNL     1      33.945 -14.549 -24.199  0.00  0.00    -0.275 N 
ATOM      7  C   UNL     1      33.895 -13.094 -24.136  0.00  0.00    +0.152 C 
ATOM      8  C   UNL     1      33.565 -12.656 -25.558  0.00  0.00    +0.031 C 
ATOM      9  C   UNL     1      33.418 -15.040 -25.470  0.00  0.00    +0.094 C 
ATOM     10  C   UNL     1      32.761 -13.828 -26.114  0.00  0.00    +0.024 C 
ATOM     11  C   UNL     1      34.566 -15.315 -23.225  0.00  0.00    +0.204 C 
BRANCH  11  12
ATOM     12  C   UNL     1      34.684 -16.787 -23.533  0.00  0.00    +0.006 C 
BRANCH  12  13
ATOM     13  N   UNL     1      35.775 -17.284 -22.725  0.00  0.00    +0.391 N 
ATOM     14  H   UNL     1      36.622 -17.313 -23.293  0.00  0.00    -0.084 HD
ATOM     15  H   UNL     1      35.896 -16.658 -21.928  0.00  0.00    -0.084 HD
BRANCH  13  16
ATOM     16  C   UNL     1      35.496 -18.617 -22.223  0.00  0.00    -0.061 C 
ATOM     17  C   UNL     1      34.146 -18.713 -21.524  0.00  0.00    -0.021 C 
ATOM     18  C   UNL     1      36.462 -19.048 -21.127  0.00  0.00    -0.021 C 
ATOM     19  C   UNL     1      34.251 -19.999 -20.710  0.00  0.00    -0.002 C 
ATOM     20  C   UNL     1      35.745 -20.216 -20.454  0.00  0.00    -0.002 C 
ENDBRANCH  13  16
ENDBRANCH  12  13
ENDBRANCH  11  12
ENDBRANCH   3   7
BRANCH   2  21
ATOM     21  C   UNL     1      31.798 -10.764 -22.028  0.00  0.00    +0.116 C 
BRANCH  21  22
ATOM     22  C   UNL     1      31.661  -9.287 -22.282  0.00  0.00    -0.003 C 
ATOM     23  C   UNL     1      32.143  -8.384 -21.345  0.00  0.00    -0.003 C 
ATOM     24  C   UNL     1      31.052  -8.849 -23.451  0.00  0.00    -0.003 C 
ATOM     25  C   UNL     1      32.014  -7.015 -21.580  0.00  0.00    +0.002 C 
ATOM     26  C   UNL     1      30.923  -7.480 -23.686  0.00  0.00    +0.002 C 
ATOM     27  C   UNL     1      31.404  -6.564 -22.751  0.00  0.00    +0.031 C 
BRANCH  27  30
ATOM     28  N   UNL     1      31.947  -4.515 -24.046  0.00  0.00    -0.343 N 
ATOM     29  N   UNL     1      30.497  -4.403 -22.217  0.00  0.00    -0.285 NA
ATOM     30  C   UNL     1      31.270  -5.137 -22.998  0.00  0.00    +0.117 C 
ATOM     31  H   UNL     1      31.842  -3.547 -24.196  0.00  0.00    +0.144 HD
ATOM     32  H   UNL     1      32.530  -5.045 -24.638  0.00  0.00    +0.144 HD
ATOM     33  H   UNL     1      30.406  -3.437 -22.382  0.00  0.00    +0.188 HD
ENDBRANCH  27  30
ENDBRANCH  21  22
ENDBRANCH   2  21
TORSDOF 7
ENDMDL
MODEL 8
REMARK VINA RESULT:      -9.9      5.215      8.705
REMARK  Name = 23629654
REMARK  7 active torsions:
REMARK  status: ('A' for Active; 'I' for Inactive)
REMARK    1  A    between atoms: N_2  and  C_21
REMARK    2  A    between atoms: C_3  and  C_7
REMARK    3  A    between atoms: C_11  and  C_12
REMARK    4  A    between atoms: C_12  and  N_13
REMARK    5  A    between atoms: N_13  and  C_16
REMARK    6  A    between atoms: C_21  and  C_22
REMARK    7  A    between atoms: C_27  and  C_30
REMARK                            x       y       z     vdW  Elec       q    Type
REMARK                         _______ _______ _______ _____ _____    ______ ____
ROOT
ATOM      1  O   UNL     1      36.772 -18.353 -21.771  0.00  0.00    -0.273 OA
ATOM      2  N   UNL     1      35.570 -20.085 -20.784  0.00  0.00    -0.299 N 
ATOM      3  C   UNL     1      35.730 -18.982 -21.604  0.00  0.00    +0.241 C 
ATOM      4  H   UNL     1      34.681 -20.507 -20.733  0.00  0.00    +0.150 HD
ENDROOT
BRANCH   3   7
ATOM      5  O   UNL     1      34.342 -16.180 -20.810  0.00  0.00    -0.277 OA
ATOM      6  N   UNL     1      34.634 -17.265 -22.833  0.00  0.00    -0.275 N 
ATOM      7  C   UNL     1      34.464 -18.619 -22.322  0.00  0.00    +0.152 C 
ATOM      8  C   UNL     1      34.252 -19.479 -23.562  0.00  0.00    +0.031 C 
ATOM      9  C   UNL     1      34.804 -17.268 -24.284  0.00  0.00    +0.094 C 
ATOM     10  C   UNL     1      35.019 -18.730 -24.649  0.00  0.00    +0.024 C 
ATOM     11  C   UNL     1      34.485 -16.144 -22.034  0.00  0.00    +0.204 C 
BRANCH  11  12
ATOM     12  C   UNL     1      34.517 -14.821 -22.757  0.00  0.00    +0.006 C 
BRANCH  12  13
ATOM     13  N   UNL     1      33.152 -14.346 -22.796  0.00  0.00    +0.391 N 
ATOM     14  H   UNL     1      32.521 -15.148 -22.786  0.00  0.00    -0.084 HD
ATOM     15  H   UNL     1      32.994 -13.753 -21.981  0.00  0.00    -0.084 HD
BRANCH  13  16
ATOM     16  C   UNL     1      32.899 -13.561 -23.990  0.00  0.00    -0.061 C 
ATOM     17  C   UNL     1      33.127 -14.350 -25.273  0.00  0.00    -0.021 C 
ATOM     18  C   UNL     1      33.870 -12.397 -24.147  0.00  0.00    -0.021 C 
ATOM     19  C   UNL     1      33.255 -13.270 -26.344  0.00  0.00    -0.002 C 
ATOM     20  C   UNL     1      33.734 -12.010 -25.617  0.00  0.00    -0.002 C 
ENDBRANCH  13  16
ENDBRANCH  12  13
ENDBRANCH  11  12
ENDBRANCH   3   7
BRANCH   2  21
ATOM     21  C   UNL     1      36.645 -20.651 -20.000  0.00  0.00    +0.116 C 
BRANCH  21  22
ATOM     22  C   UNL     1      36.128 -21.439 -18.827  0.00  0.00    -0.003 C 
ATOM     23  C   UNL     1      36.922 -21.585 -17.698  0.00  0.00    -0.003 C 
ATOM     24  C   UNL     1      34.865 -22.012 -18.892  0.00  0.00    -0.003 C 
ATOM     25  C   UNL     1      36.444 -22.317 -16.612  0.00  0.00    +0.002 C 
ATOM     26  C   UNL     1      34.386 -22.744 -17.806  0.00  0.00    +0.002 C 
ATOM     27  C   UNL     1      35.175 -22.897 -16.666  0.00  0.00    +0.031 C 
BRANCH  27  30
ATOM     28  N   UNL     1      33.763 -23.110 -14.634  0.00  0.00    -0.343 N 
ATOM     29  N   UNL     1      35.089 -24.900 -15.340  0.00  0.00    -0.285 NA
ATOM     30  C   UNL     1      34.675 -23.660 -15.533  0.00  0.00    +0.117 C 
ATOM     31  H   UNL     1      33.437 -23.644 -13.874  0.00  0.00    +0.144 HD
ATOM     32  H   UNL     1      33.444 -22.187 -14.760  0.00  0.00    +0.144 HD
ATOM     33  H   UNL     1      34.752 -25.418 -14.574  0.00  0.00    +0.188 HD
ENDBRANCH  27  30
ENDBRANCH  21  22
ENDBRANCH   2  21
TORSDOF 7
ENDMDL
MODEL 9
REMARK VINA RESULT:      -9.7      5.099      8.543
REMARK  Name = 23629654
REMARK  7 active torsions:
REMARK  status: ('A' for Active; 'I' for Inactive)
REMARK    1  A    between atoms: N_2  and  C_21
REMARK    2  A    between atoms: C_3  and  C_7
REMARK    3  A    between atoms: C_11  and  C_12
REMARK    4  A    between atoms: C_12  and  N_13
REMARK    5  A    between atoms: N_13  and  C_16
REMARK    6  A    between atoms: C_21  and  C_22
REMARK    7  A    between atoms: C_27  and  C_30
REMARK                            x       y       z     vdW  Elec       q    Type
REMARK                         _______ _______ _______ _____ _____    ______ ____
ROOT
ATOM      1  O   UNL     1      36.796 -18.486 -21.712  0.00  0.00    -0.273 OA
ATOM      2  N   UNL     1      35.538 -20.164 -20.700  0.00  0.00    -0.299 N 
ATOM      3  C   UNL     1      35.732 -19.072 -21.529  0.00  0.00    +0.241 C 
ATOM      4  H   UNL     1      34.634 -20.550 -20.635  0.00  0.00    +0.150 HD
ENDROOT
BRANCH   3   7
ATOM      5  O   UNL     1      34.347 -16.315 -20.588  0.00  0.00    -0.277 OA
ATOM      6  N   UNL     1      34.651 -17.285 -22.667  0.00  0.00    -0.275 N 
ATOM      7  C   UNL     1      34.473 -18.665 -22.234  0.00  0.00    +0.152 C 
ATOM      8  C   UNL     1      34.268 -19.452 -23.523  0.00  0.00    +0.031 C 
ATOM      9  C   UNL     1      34.833 -17.206 -24.114  0.00  0.00    +0.094 C 
ATOM     10  C   UNL     1      35.045 -18.646 -24.560  0.00  0.00    +0.024 C 
ATOM     11  C   UNL     1      34.500 -16.210 -21.806  0.00  0.00    +0.204 C 
BRANCH  11  12
ATOM     12  C   UNL     1      34.542 -14.848 -22.453  0.00  0.00    +0.006 C 
BRANCH  12  13
ATOM     13  N   UNL     1      33.167 -14.427 -22.603  0.00  0.00    +0.391 N 
ATOM     14  H   UNL     1      32.966 -14.294 -23.594  0.00  0.00    -0.084 HD
ATOM     15  H   UNL     1      32.565 -15.149 -22.206  0.00  0.00    -0.084 HD
BRANCH  13  16
ATOM     16  C   UNL     1      32.916 -13.183 -21.898  0.00  0.00    -0.061 C 
ATOM     17  C   UNL     1      32.311 -13.399 -20.517  0.00  0.00    -0.021 C 
ATOM     18  C   UNL     1      31.865 -12.319 -22.583  0.00  0.00    -0.021 C 
ATOM     19  C   UNL     1      31.727 -12.035 -20.161  0.00  0.00    -0.002 C 
ATOM     20  C   UNL     1      31.439 -11.338 -21.493  0.00  0.00    -0.002 C 
ENDBRANCH  13  16
ENDBRANCH  12  13
ENDBRANCH  11  12
ENDBRANCH   3   7
BRANCH   2  21
ATOM     21  C   UNL     1      36.599 -20.766 -19.924  0.00  0.00    +0.116 C 
BRANCH  21  22
ATOM     22  C   UNL     1      36.067 -21.520 -18.736  0.00  0.00    -0.003 C 
ATOM     23  C   UNL     1      36.853 -21.651 -17.600  0.00  0.00    -0.003 C 
ATOM     24  C   UNL     1      34.796 -22.077 -18.794  0.00  0.00    -0.003 C 
ATOM     25  C   UNL     1      36.360 -22.352 -16.500  0.00  0.00    +0.002 C 
ATOM     26  C   UNL     1      34.303 -22.778 -17.694  0.00  0.00    +0.002 C 
ATOM     27  C   UNL     1      35.084 -22.916 -16.547  0.00  0.00    +0.031 C 
BRANCH  27  30
ATOM     28  N   UNL     1      35.077 -24.895 -15.047  0.00  0.00    -0.343 N 
ATOM     29  N   UNL     1      33.596 -23.126 -14.672  0.00  0.00    -0.285 NA
ATOM     30  C   UNL     1      34.568 -23.646 -15.400  0.00  0.00    +0.117 C 
ATOM     31  H   UNL     1      34.713 -25.372 -14.266  0.00  0.00    +0.144 HD
ATOM     32  H   UNL     1      35.800 -25.300 -15.578  0.00  0.00    +0.144 HD
ATOM     33  H   UNL     1      33.246 -23.618 -13.895  0.00  0.00    +0.188 HD
ENDBRANCH  27  30
ENDBRANCH  21  22
ENDBRANCH   2  21
TORSDOF 7
ENDMDL
