MODEL 1
REMARK VINA RESULT:      -8.9      0.000      0.000
REMARK  Name = 25229546
REMARK  2 active torsions:
REMARK  status: ('A' for Active; 'I' for Inactive)
REMARK    1  A    between atoms: N_2  and  C_14
REMARK    2  A    between atoms: C_7  and  S_20
REMARK                            x       y       z     vdW  Elec       q    Type
REMARK                         _______ _______ _______ _____ _____    ______ ____
ROOT
ATOM      1  O   UNL     1      34.943 -16.429 -20.239  0.00  0.00    -0.273 OA
ATOM      2  N   UNL     1      34.890 -17.902 -22.073  0.00  0.00    -0.202 N 
ATOM      3  N   UNL     1      34.338 -17.037 -24.232  0.00  0.00    -0.384 NA
ATOM      4  C   UNL     1      34.407 -15.519 -22.316  0.00  0.00    +0.151 C 
ATOM      5  C   UNL     1      34.790 -16.647 -21.438  0.00  0.00    +0.246 C 
ATOM      6  C   UNL     1      34.174 -15.768 -23.668  0.00  0.00    +0.124 C 
ATOM      7  C   UNL     1      34.684 -18.019 -23.460  0.00  0.00    +0.220 C 
ATOM      8  C   UNL     1      34.258 -14.230 -21.790  0.00  0.00    -0.010 C 
ATOM      9  C   UNL     1      33.789 -14.706 -24.496  0.00  0.00    +0.028 C 
ATOM     10  C   UNL     1      33.875 -13.181 -22.625  0.00  0.00    -0.004 C 
ATOM     11  C   UNL     1      33.638 -13.420 -23.977  0.00  0.00    +0.002 C 
ENDROOT
BRANCH   2  14
ATOM     12  F   UNL     1      32.845 -19.449 -20.959  0.00  0.00    -0.203 F 
ATOM     13  F   UNL     1      37.506 -18.674 -21.457  0.00  0.00    -0.203 F 
ATOM     14  C   UNL     1      35.169 -19.032 -21.231  0.00  0.00    +0.116 C 
ATOM     15  C   UNL     1      34.118 -19.776 -20.695  0.00  0.00    +0.156 C 
ATOM     16  C   UNL     1      36.488 -19.383 -20.947  0.00  0.00    +0.156 C 
ATOM     17  C   UNL     1      34.388 -20.874 -19.876  0.00  0.00    +0.031 C 
ATOM     18  C   UNL     1      36.758 -20.480 -20.129  0.00  0.00    +0.031 C 
ATOM     19  C   UNL     1      35.707 -21.225 -19.593  0.00  0.00    +0.005 C 
ENDBRANCH   2  14
BRANCH   7  20
ATOM     20  S   UNL     1      35.000 -19.547 -24.276  0.00  0.00    -0.065 S 
ATOM     21  C   UNL     1      33.697 -19.466 -25.519  0.00  0.00    +0.078 C 
ENDBRANCH   7  20
TORSDOF 2
ENDMDL
MODEL 2
REMARK VINA RESULT:      -8.8      3.472      6.564
REMARK  Name = 25229546
REMARK  2 active torsions:
REMARK  status: ('A' for Active; 'I' for Inactive)
REMARK    1  A    between atoms: N_2  and  C_14
REMARK    2  A    between atoms: C_7  and  S_20
REMARK                            x       y       z     vdW  Elec       q    Type
REMARK                         _______ _______ _______ _____ _____    ______ ____
ROOT
ATOM      1  O   UNL     1      34.488 -14.251 -21.648  0.00  0.00    -0.273 OA
ATOM      2  N   UNL     1      33.555 -13.955 -23.788  0.00  0.00    -0.202 N 
ATOM      3  N   UNL     1      33.671 -15.756 -25.356  0.00  0.00    -0.384 NA
ATOM      4  C   UNL     1      34.626 -16.049 -23.123  0.00  0.00    +0.151 C 
ATOM      5  C   UNL     1      34.206 -14.676 -22.766  0.00  0.00    +0.246 C 
ATOM      6  C   UNL     1      34.362 -16.520 -24.410  0.00  0.00    +0.124 C 
ATOM      7  C   UNL     1      33.296 -14.558 -25.033  0.00  0.00    +0.220 C 
ATOM      8  C   UNL     1      35.298 -16.851 -22.193  0.00  0.00    -0.010 C 
ATOM      9  C   UNL     1      34.780 -17.810 -24.759  0.00  0.00    +0.028 C 
ATOM     10  C   UNL     1      35.708 -18.134 -22.553  0.00  0.00    -0.004 C 
ATOM     11  C   UNL     1      35.451 -18.613 -23.835  0.00  0.00    +0.002 C 
ENDROOT
BRANCH   2  14
ATOM     12  F   UNL     1      31.567 -13.283 -21.941  0.00  0.00    -0.203 F 
ATOM     13  F   UNL     1      34.852 -11.822 -25.047  0.00  0.00    -0.203 F 
ATOM     14  C   UNL     1      33.219 -12.589 -23.501  0.00  0.00    +0.116 C 
ATOM     15  C   UNL     1      32.220 -12.297 -22.572  0.00  0.00    +0.156 C 
ATOM     16  C   UNL     1      33.890 -11.554 -24.152  0.00  0.00    +0.156 C 
ATOM     17  C   UNL     1      31.893 -10.970 -22.293  0.00  0.00    +0.031 C 
ATOM     18  C   UNL     1      33.563 -10.226 -23.873  0.00  0.00    +0.031 C 
ATOM     19  C   UNL     1      32.564  -9.935 -22.944  0.00  0.00    +0.005 C 
ENDBRANCH   2  14
BRANCH   7  20
ATOM     20  S   UNL     1      32.315 -13.723 -26.234  0.00  0.00    -0.065 S 
ATOM     21  C   UNL     1      33.596 -13.411 -27.462  0.00  0.00    +0.078 C 
ENDBRANCH   7  20
TORSDOF 2
ENDMDL
MODEL 3
REMARK VINA RESULT:      -8.7      8.015     10.389
REMARK  Name = 25229546
REMARK  2 active torsions:
REMARK  status: ('A' for Active; 'I' for Inactive)
REMARK    1  A    between atoms: N_2  and  C_14
REMARK    2  A    between atoms: C_7  and  S_20
REMARK                            x       y       z     vdW  Elec       q    Type
REMARK                         _______ _______ _______ _____ _____    ______ ____
ROOT
ATOM      1  O   UNL     1      33.539 -24.906 -12.828  0.00  0.00    -0.273 OA
ATOM      2  N   UNL     1      35.011 -24.024 -14.438  0.00  0.00    -0.202 N 
ATOM      3  N   UNL     1      34.099 -22.931 -16.358  0.00  0.00    -0.384 NA
ATOM      4  C   UNL     1      32.584 -23.844 -14.669  0.00  0.00    +0.151 C 
ATOM      5  C   UNL     1      33.748 -24.297 -13.874  0.00  0.00    +0.246 C 
ATOM      6  C   UNL     1      32.810 -23.203 -15.887  0.00  0.00    +0.124 C 
ATOM      7  C   UNL     1      35.113 -23.320 -15.651  0.00  0.00    +0.220 C 
ATOM      8  C   UNL     1      31.281 -24.079 -14.215  0.00  0.00    -0.010 C 
ATOM      9  C   UNL     1      31.711 -22.795 -16.652  0.00  0.00    +0.028 C 
ATOM     10  C   UNL     1      30.195 -23.667 -14.987  0.00  0.00    -0.004 C 
ATOM     11  C   UNL     1      30.410 -23.027 -16.205  0.00  0.00    +0.002 C 
ENDROOT
BRANCH   2  14
ATOM     12  F   UNL     1      36.284 -26.389 -15.214  0.00  0.00    -0.203 F 
ATOM     13  F   UNL     1      36.088 -22.705 -12.220  0.00  0.00    -0.203 F 
ATOM     14  C   UNL     1      36.155 -24.533 -13.736  0.00  0.00    +0.116 C 
ATOM     15  C   UNL     1      36.760 -25.717 -14.156  0.00  0.00    +0.156 C 
ATOM     16  C   UNL     1      36.661 -23.845 -12.633  0.00  0.00    +0.156 C 
ATOM     17  C   UNL     1      37.872 -26.213 -13.474  0.00  0.00    +0.031 C 
ATOM     18  C   UNL     1      37.773 -24.341 -11.951  0.00  0.00    +0.031 C 
ATOM     19  C   UNL     1      38.378 -25.525 -12.371  0.00  0.00    +0.005 C 
ENDBRANCH   2  14
BRANCH   7  20
ATOM     20  S   UNL     1      36.690 -22.813 -16.251  0.00  0.00    -0.065 S 
ATOM     21  C   UNL     1      36.151 -21.946 -17.736  0.00  0.00    +0.078 C 
ENDBRANCH   7  20
TORSDOF 2
ENDMDL
MODEL 4
REMARK VINA RESULT:      -8.7      8.009     10.389
REMARK  Name = 25229546
REMARK  2 active torsions:
REMARK  status: ('A' for Active; 'I' for Inactive)
REMARK    1  A    between atoms: N_2  and  C_14
REMARK    2  A    between atoms: C_7  and  S_20
REMARK                            x       y       z     vdW  Elec       q    Type
REMARK                         _______ _______ _______ _____ _____    ______ ____
ROOT
ATOM      1  O   UNL     1      33.538 -24.903 -12.829  0.00  0.00    -0.273 OA
ATOM      2  N   UNL     1      35.004 -24.027 -14.447  0.00  0.00    -0.202 N 
ATOM      3  N   UNL     1      34.086 -22.936 -16.365  0.00  0.00    -0.384 NA
ATOM      4  C   UNL     1      32.577 -23.843 -14.667  0.00  0.00    +0.151 C 
ATOM      5  C   UNL     1      33.743 -24.297 -13.877  0.00  0.00    +0.246 C 
ATOM      6  C   UNL     1      32.799 -23.205 -15.888  0.00  0.00    +0.124 C 
ATOM      7  C   UNL     1      35.103 -23.326 -15.662  0.00  0.00    +0.220 C 
ATOM      8  C   UNL     1      31.275 -24.073 -14.208  0.00  0.00    -0.010 C 
ATOM      9  C   UNL     1      31.697 -22.796 -16.649  0.00  0.00    +0.028 C 
ATOM     10  C   UNL     1      30.186 -23.661 -14.975  0.00  0.00    -0.004 C 
ATOM     11  C   UNL     1      30.397 -23.024 -16.196  0.00  0.00    +0.002 C 
ENDROOT
BRANCH   2  14
ATOM     12  F   UNL     1      36.104 -22.696 -12.249  0.00  0.00    -0.203 F 
ATOM     13  F   UNL     1      36.258 -26.407 -15.211  0.00  0.00    -0.203 F 
ATOM     14  C   UNL     1      36.150 -24.538 -13.749  0.00  0.00    +0.116 C 
ATOM     15  C   UNL     1      36.668 -23.842 -12.657  0.00  0.00    +0.156 C 
ATOM     16  C   UNL     1      36.747 -25.729 -14.163  0.00  0.00    +0.156 C 
ATOM     17  C   UNL     1      37.782 -24.337 -11.978  0.00  0.00    +0.031 C 
ATOM     18  C   UNL     1      37.861 -26.224 -13.484  0.00  0.00    +0.031 C 
ATOM     19  C   UNL     1      38.378 -25.528 -12.392  0.00  0.00    +0.005 C 
ENDBRANCH   2  14
BRANCH   7  20
ATOM     20  S   UNL     1      36.678 -22.824 -16.270  0.00  0.00    -0.065 S 
ATOM     21  C   UNL     1      36.133 -21.950 -17.749  0.00  0.00    +0.078 C 
ENDBRANCH   7  20
TORSDOF 2
ENDMDL
MODEL 5
REMARK VINA RESULT:      -8.5      0.307      1.832
REMARK  Name = 25229546
REMARK  2 active torsions:
REMARK  status: ('A' for Active; 'I' for Inactive)
REMARK    1  A    between atoms: N_2  and  C_14
REMARK    2  A    between atoms: C_7  and  S_20
REMARK                            x       y       z     vdW  Elec       q    Type
REMARK                         _______ _______ _______ _____ _____    ______ ____
ROOT
ATOM      1  O   UNL     1      34.393 -16.542 -20.136  0.00  0.00    -0.273 OA
ATOM      2  N   UNL     1      34.691 -17.926 -22.015  0.00  0.00    -0.202 N 
ATOM      3  N   UNL     1      34.350 -17.003 -24.193  0.00  0.00    -0.384 NA
ATOM      4  C   UNL     1      34.055 -15.576 -22.229  0.00  0.00    +0.151 C 
ATOM      5  C   UNL     1      34.411 -16.713 -21.352  0.00  0.00    +0.246 C 
ATOM      6  C   UNL     1      34.015 -15.777 -23.608  0.00  0.00    +0.124 C 
ATOM      7  C   UNL     1      34.672 -17.992 -23.420  0.00  0.00    +0.220 C 
ATOM      8  C   UNL     1      33.738 -14.328 -21.679  0.00  0.00    -0.010 C 
ATOM      9  C   UNL     1      33.655 -14.709 -24.439  0.00  0.00    +0.028 C 
ATOM     10  C   UNL     1      33.382 -13.273 -22.518  0.00  0.00    -0.004 C 
ATOM     11  C   UNL     1      33.338 -13.463 -23.896  0.00  0.00    +0.002 C 
ENDROOT
BRANCH   2  14
ATOM     12  F   UNL     1      37.293 -18.752 -21.412  0.00  0.00    -0.203 F 
ATOM     13  F   UNL     1      32.620 -19.450 -20.917  0.00  0.00    -0.203 F 
ATOM     14  C   UNL     1      34.949 -19.070 -21.186  0.00  0.00    +0.116 C 
ATOM     15  C   UNL     1      36.263 -19.448 -20.910  0.00  0.00    +0.156 C 
ATOM     16  C   UNL     1      33.887 -19.804 -20.658  0.00  0.00    +0.156 C 
ATOM     17  C   UNL     1      36.515 -20.560 -20.105  0.00  0.00    +0.031 C 
ATOM     18  C   UNL     1      34.139 -20.915 -19.853  0.00  0.00    +0.031 C 
ATOM     19  C   UNL     1      35.453 -21.293 -19.577  0.00  0.00    +0.005 C 
ENDBRANCH   2  14
BRANCH   7  20
ATOM     20  S   UNL     1      35.210 -19.452 -24.245  0.00  0.00    -0.065 S 
ATOM     21  C   UNL     1      33.996 -19.474 -25.577  0.00  0.00    +0.078 C 
ENDBRANCH   7  20
TORSDOF 2
ENDMDL
MODEL 6
REMARK VINA RESULT:      -8.4      9.594     10.926
REMARK  Name = 25229546
REMARK  2 active torsions:
REMARK  status: ('A' for Active; 'I' for Inactive)
REMARK    1  A    between atoms: N_2  and  C_14
REMARK    2  A    between atoms: C_7  and  S_20
REMARK                            x       y       z     vdW  Elec       q    Type
REMARK                         _______ _______ _______ _____ _____    ______ ____
ROOT
ATOM      1  O   UNL     1      34.910 -24.192 -16.675  0.00  0.00    -0.273 OA
ATOM      2  N   UNL     1      35.364 -24.378 -14.374  0.00  0.00    -0.202 N 
ATOM      3  N   UNL     1      33.624 -23.884 -12.811  0.00  0.00    -0.384 NA
ATOM      4  C   UNL     1      33.167 -23.706 -15.207  0.00  0.00    +0.151 C 
ATOM      5  C   UNL     1      34.554 -24.131 -15.501  0.00  0.00    +0.246 C 
ATOM      6  C   UNL     1      32.770 -23.578 -13.876  0.00  0.00    +0.124 C 
ATOM      7  C   UNL     1      34.834 -24.266 -13.076  0.00  0.00    +0.220 C 
ATOM      8  C   UNL     1      32.278 -23.416 -16.249  0.00  0.00    -0.010 C 
ATOM      9  C   UNL     1      31.466 -23.153 -13.595  0.00  0.00    +0.028 C 
ATOM     10  C   UNL     1      30.981 -22.994 -15.956  0.00  0.00    -0.004 C 
ATOM     11  C   UNL     1      30.576 -22.861 -14.630  0.00  0.00    +0.002 C 
ENDROOT
BRANCH   2  14
ATOM     12  F   UNL     1      37.265 -22.402 -14.921  0.00  0.00    -0.203 F 
ATOM     13  F   UNL     1      36.290 -27.016 -14.346  0.00  0.00    -0.203 F 
ATOM     14  C   UNL     1      36.740 -24.701 -14.627  0.00  0.00    +0.116 C 
ATOM     15  C   UNL     1      37.656 -23.684 -14.896  0.00  0.00    +0.156 C 
ATOM     16  C   UNL     1      37.161 -26.030 -14.604  0.00  0.00    +0.156 C 
ATOM     17  C   UNL     1      38.994 -23.997 -15.142  0.00  0.00    +0.031 C 
ATOM     18  C   UNL     1      38.498 -26.343 -14.850  0.00  0.00    +0.031 C 
ATOM     19  C   UNL     1      39.414 -25.326 -15.119  0.00  0.00    +0.005 C 
ENDBRANCH   2  14
BRANCH   7  20
ATOM     20  S   UNL     1      35.791 -24.762 -11.683  0.00  0.00    -0.065 S 
ATOM     21  C   UNL     1      36.663 -23.212 -11.387  0.00  0.00    +0.078 C 
ENDBRANCH   7  20
TORSDOF 2
ENDMDL
MODEL 7
REMARK VINA RESULT:      -8.1      6.238      9.671
REMARK  Name = 25229546
REMARK  2 active torsions:
REMARK  status: ('A' for Active; 'I' for Inactive)
REMARK    1  A    between atoms: N_2  and  C_14
REMARK    2  A    between atoms: C_7  and  S_20
REMARK                            x       y       z     vdW  Elec       q    Type
REMARK                         _______ _______ _______ _____ _____    ______ ____
ROOT
ATOM      1  O   UNL     1      33.694 -10.856 -25.077  0.00  0.00    -0.273 OA
ATOM      2  N   UNL     1      32.795  -9.989 -23.083  0.00  0.00    -0.202 N 
ATOM      3  N   UNL     1      32.176 -11.504 -21.341  0.00  0.00    -0.384 NA
ATOM      4  C   UNL     1      33.123 -12.388 -23.417  0.00  0.00    +0.151 C 
ATOM      5  C   UNL     1      33.253 -11.010 -23.941  0.00  0.00    +0.246 C 
ATOM      6  C   UNL     1      32.568 -12.576 -22.151  0.00  0.00    +0.124 C 
ATOM      7  C   UNL     1      32.304 -10.300 -21.802  0.00  0.00    +0.220 C 
ATOM      8  C   UNL     1      33.527 -13.483 -24.189  0.00  0.00    -0.010 C 
ATOM      9  C   UNL     1      32.422 -13.880 -21.662  0.00  0.00    +0.028 C 
ATOM     10  C   UNL     1      33.377 -14.776 -23.691  0.00  0.00    -0.004 C 
ATOM     11  C   UNL     1      32.822 -14.975 -22.429  0.00  0.00    +0.002 C 
ENDROOT
BRANCH   2  14
ATOM     12  F   UNL     1      30.448  -8.594 -23.684  0.00  0.00    -0.203 F 
ATOM     13  F   UNL     1      35.197  -8.635 -23.547  0.00  0.00    -0.203 F 
ATOM     14  C   UNL     1      32.822  -8.650 -23.601  0.00  0.00    +0.116 C 
ATOM     15  C   UNL     1      31.627  -7.990 -23.888  0.00  0.00    +0.156 C 
ATOM     16  C   UNL     1      34.042  -8.010 -23.819  0.00  0.00    +0.156 C 
ATOM     17  C   UNL     1      31.653  -6.689 -24.392  0.00  0.00    +0.031 C 
ATOM     18  C   UNL     1      34.067  -6.709 -24.323  0.00  0.00    +0.031 C 
ATOM     19  C   UNL     1      32.873  -6.049 -24.610  0.00  0.00    +0.005 C 
ENDBRANCH   2  14
BRANCH   7  20
ATOM     20  S   UNL     1      31.916  -9.011 -20.666  0.00  0.00    -0.065 S 
ATOM     21  C   UNL     1      31.718 -10.011 -19.178  0.00  0.00    +0.078 C 
ENDBRANCH   7  20
TORSDOF 2
ENDMDL
MODEL 8
REMARK VINA RESULT:      -7.9      2.112      3.031
REMARK  Name = 25229546
REMARK  2 active torsions:
REMARK  status: ('A' for Active; 'I' for Inactive)
REMARK    1  A    between atoms: N_2  and  C_14
REMARK    2  A    between atoms: C_7  and  S_20
REMARK                            x       y       z     vdW  Elec       q    Type
REMARK                         _______ _______ _______ _____ _____    ______ ____
ROOT
ATOM      1  O   UNL     1      34.378 -18.315 -24.507  0.00  0.00    -0.273 OA
ATOM      2  N   UNL     1      34.435 -17.104 -22.491  0.00  0.00    -0.202 N 
ATOM      3  N   UNL     1      33.923 -14.770 -22.533  0.00  0.00    -0.384 NA
ATOM      4  C   UNL     1      33.858 -16.047 -24.618  0.00  0.00    +0.151 C 
ATOM      5  C   UNL     1      34.230 -17.272 -23.876  0.00  0.00    +0.246 C 
ATOM      6  C   UNL     1      33.745 -14.845 -23.918  0.00  0.00    +0.124 C 
ATOM      7  C   UNL     1      34.237 -15.849 -21.887  0.00  0.00    +0.220 C 
ATOM      8  C   UNL     1      33.648 -16.090 -26.001  0.00  0.00    -0.010 C 
ATOM      9  C   UNL     1      33.416 -13.680 -24.621  0.00  0.00    +0.028 C 
ATOM     10  C   UNL     1      33.321 -14.923 -26.689  0.00  0.00    -0.004 C 
ATOM     11  C   UNL     1      33.207 -13.718 -26.000  0.00  0.00    +0.002 C 
ENDROOT
BRANCH   2  14
ATOM     12  F   UNL     1      32.656 -18.783 -21.138  0.00  0.00    -0.203 F 
ATOM     13  F   UNL     1      37.142 -17.788 -22.344  0.00  0.00    -0.203 F 
ATOM     14  C   UNL     1      34.888 -18.255 -21.761  0.00  0.00    +0.116 C 
ATOM     15  C   UNL     1      33.966 -19.067 -21.099  0.00  0.00    +0.156 C 
ATOM     16  C   UNL     1      36.248 -18.560 -21.712  0.00  0.00    +0.156 C 
ATOM     17  C   UNL     1      34.405 -20.185 -20.390  0.00  0.00    +0.031 C 
ATOM     18  C   UNL     1      36.686 -19.679 -21.003  0.00  0.00    +0.031 C 
ATOM     19  C   UNL     1      35.765 -20.491 -20.341  0.00  0.00    +0.005 C 
ENDBRANCH   2  14
BRANCH   7  20
ATOM     20  S   UNL     1      34.305 -15.689 -20.135  0.00  0.00    -0.065 S 
ATOM     21  C   UNL     1      32.641 -15.056 -19.855  0.00  0.00    +0.078 C 
ENDBRANCH   7  20
TORSDOF 2
ENDMDL
MODEL 9
REMARK VINA RESULT:      -7.9      4.836      7.029
REMARK  Name = 25229546
REMARK  2 active torsions:
REMARK  status: ('A' for Active; 'I' for Inactive)
REMARK    1  A    between atoms: N_2  and  C_14
REMARK    2  A    between atoms: C_7  and  S_20
REMARK                            x       y       z     vdW  Elec       q    Type
REMARK                         _______ _______ _______ _____ _____    ______ ____
ROOT
ATOM      1  O   UNL     1      34.932 -11.272 -25.531  0.00  0.00    -0.273 OA
ATOM      2  N   UNL     1      33.453 -12.006 -23.854  0.00  0.00    -0.202 N 
ATOM      3  N   UNL     1      32.495 -10.392 -22.374  0.00  0.00    -0.384 NA
ATOM      4  C   UNL     1      34.026  -9.646 -24.129  0.00  0.00    +0.151 C 
ATOM      5  C   UNL     1      34.174 -11.044 -24.591  0.00  0.00    +0.246 C 
ATOM      6  C   UNL     1      33.213  -9.385 -23.026  0.00  0.00    +0.124 C 
ATOM      7  C   UNL     1      32.620 -11.613 -22.791  0.00  0.00    +0.220 C 
ATOM      8  C   UNL     1      34.711  -8.609 -24.774  0.00  0.00    -0.010 C 
ATOM      9  C   UNL     1      33.091  -8.066 -22.572  0.00  0.00    +0.028 C 
ATOM     10  C   UNL     1      34.580  -7.300 -24.312  0.00  0.00    -0.004 C 
ATOM     11  C   UNL     1      33.772  -7.029 -23.211  0.00  0.00    +0.002 C 
ENDROOT
BRANCH   2  14
ATOM     12  F   UNL     1      32.527 -13.030 -26.285  0.00  0.00    -0.203 F 
ATOM     13  F   UNL     1      34.783 -13.804 -22.176  0.00  0.00    -0.203 F 
ATOM     14  C   UNL     1      33.650 -13.380 -24.221  0.00  0.00    +0.116 C 
ATOM     15  C   UNL     1      33.171 -13.851 -25.443  0.00  0.00    +0.156 C 
ATOM     16  C   UNL     1      34.318 -14.245 -23.354  0.00  0.00    +0.156 C 
ATOM     17  C   UNL     1      33.362 -15.186 -25.800  0.00  0.00    +0.031 C 
ATOM     18  C   UNL     1      34.509 -15.581 -23.711  0.00  0.00    +0.031 C 
ATOM     19  C   UNL     1      34.030 -16.051 -24.934  0.00  0.00    +0.005 C 
ENDBRANCH   2  14
BRANCH   7  20
ATOM     20  S   UNL     1      31.576 -12.792 -22.002  0.00  0.00    -0.065 S 
ATOM     21  C   UNL     1      31.630 -12.125 -20.328  0.00  0.00    +0.078 C 
ENDBRANCH   7  20
TORSDOF 2
ENDMDL
