MODEL 1
REMARK VINA RESULT:     -11.3      0.000      0.000
REMARK  Name = 2118
REMARK  1 active torsions:
REMARK  status: ('A' for Active; 'I' for Inactive)
REMARK    1  A    between atoms: C_9  and  C_17
REMARK                            x       y       z     vdW  Elec       q    Type
REMARK                         _______ _______ _______ _____ _____    ______ ____
ROOT
ATOM      1 CL   UNL     1      31.566 -12.118 -19.879  0.00  0.00    -0.082 Cl
ATOM      2  N   UNL     1      33.964 -15.676 -23.975  0.00  0.00    -0.279 N 
ATOM      3  N   UNL     1      33.252 -13.357 -25.828  0.00  0.00    -0.262 NA
ATOM      4  N   UNL     1      34.324 -16.664 -25.911  0.00  0.00    -0.131 NA
ATOM      5  N   UNL     1      34.980 -17.377 -24.938  0.00  0.00    -0.133 NA
ATOM      6  C   UNL     1      33.467 -14.773 -23.009  0.00  0.00    +0.068 C 
ATOM      7  C   UNL     1      33.079 -13.462 -23.349  0.00  0.00    +0.034 C 
ATOM      8  C   UNL     1      33.696 -15.666 -25.326  0.00  0.00    +0.172 A 
ATOM      9  C   UNL     1      33.390 -12.813 -24.666  0.00  0.00    +0.078 C 
ATOM     10  C   UNL     1      32.751 -14.712 -25.945  0.00  0.00    +0.191 C 
ATOM     11  C   UNL     1      34.736 -16.793 -23.787  0.00  0.00    +0.147 A 
ATOM     12  C   UNL     1      33.324 -15.221 -21.687  0.00  0.00    +0.019 C 
ATOM     13  C   UNL     1      32.472 -12.656 -22.368  0.00  0.00    +0.014 C 
ATOM     14  C   UNL     1      32.744 -14.396 -20.721  0.00  0.00    +0.013 C 
ATOM     15  C   UNL     1      32.303 -13.124 -21.066  0.00  0.00    +0.058 C 
ATOM     16  C   UNL     1      35.376 -17.214 -22.524  0.00  0.00    +0.074 C 
ENDROOT
BRANCH   9  17
ATOM     17  C   UNL     1      33.938 -11.424 -24.655  0.00  0.00    +0.017 C 
ATOM     18  C   UNL     1      33.451 -10.505 -23.737  0.00  0.00    +0.001 C 
ATOM     19  C   UNL     1      34.927 -11.072 -25.563  0.00  0.00    +0.001 C 
ATOM     20  C   UNL     1      33.964  -9.208 -23.726  0.00  0.00    +0.000 C 
ATOM     21  C   UNL     1      35.439  -9.775 -25.552  0.00  0.00    +0.000 C 
ATOM     22  C   UNL     1      34.958  -8.842 -24.633  0.00  0.00    +0.000 C 
ENDBRANCH   9  17
TORSDOF 1
ENDMDL
MODEL 2
REMARK VINA RESULT:      -9.8     12.694     14.662
REMARK  Name = 2118
REMARK  1 active torsions:
REMARK  status: ('A' for Active; 'I' for Inactive)
REMARK    1  A    between atoms: C_9  and  C_17
REMARK                            x       y       z     vdW  Elec       q    Type
REMARK                         _______ _______ _______ _____ _____    ______ ____
ROOT
ATOM      1 CL   UNL     1      36.981 -20.796 -17.737  0.00  0.00    -0.082 Cl
ATOM      2  N   UNL     1      36.900 -24.917 -13.472  0.00  0.00    -0.279 N 
ATOM      3  N   UNL     1      34.251 -23.571 -12.775  0.00  0.00    -0.262 NA
ATOM      4  N   UNL     1      36.527 -25.885 -11.527  0.00  0.00    -0.131 NA
ATOM      5  N   UNL     1      37.440 -26.645 -12.216  0.00  0.00    -0.133 NA
ATOM      6  C   UNL     1      36.850 -23.981 -14.528  0.00  0.00    +0.068 C 
ATOM      7  C   UNL     1      35.734 -23.144 -14.726  0.00  0.00    +0.034 C 
ATOM      8  C   UNL     1      36.230 -24.841 -12.271  0.00  0.00    +0.172 A 
ATOM      9  C   UNL     1      34.416 -23.330 -14.032  0.00  0.00    +0.078 C 
ATOM     10  C   UNL     1      35.398 -23.677 -11.895  0.00  0.00    +0.191 C 
ATOM     11  C   UNL     1      37.674 -26.044 -13.360  0.00  0.00    +0.147 A 
ATOM     12  C   UNL     1      37.965 -23.867 -15.373  0.00  0.00    +0.019 C 
ATOM     13  C   UNL     1      35.799 -22.147 -15.715  0.00  0.00    +0.014 C 
ATOM     14  C   UNL     1      37.999 -22.887 -16.367  0.00  0.00    +0.013 C 
ATOM     15  C   UNL     1      36.926 -22.018 -16.526  0.00  0.00    +0.058 C 
ATOM     16  C   UNL     1      38.520 -26.636 -14.418  0.00  0.00    +0.074 C 
ENDROOT
BRANCH   9  17
ATOM     17  C   UNL     1      33.172 -23.266 -14.855  0.00  0.00    +0.017 C 
ATOM     18  C   UNL     1      33.260 -23.362 -16.236  0.00  0.00    +0.001 C 
ATOM     19  C   UNL     1      31.944 -23.112 -14.226  0.00  0.00    +0.001 C 
ATOM     20  C   UNL     1      32.098 -23.303 -17.005  0.00  0.00    +0.000 C 
ATOM     21  C   UNL     1      30.781 -23.052 -14.995  0.00  0.00    +0.000 C 
ATOM     22  C   UNL     1      30.858 -23.148 -16.384  0.00  0.00    +0.000 C 
ENDBRANCH   9  17
TORSDOF 1
ENDMDL
MODEL 3
REMARK VINA RESULT:      -9.8      3.265      6.414
REMARK  Name = 2118
REMARK  1 active torsions:
REMARK  status: ('A' for Active; 'I' for Inactive)
REMARK    1  A    between atoms: C_9  and  C_17
REMARK                            x       y       z     vdW  Elec       q    Type
REMARK                         _______ _______ _______ _____ _____    ______ ____
ROOT
ATOM      1 CL   UNL     1      33.674 -14.249 -27.141  0.00  0.00    -0.082 Cl
ATOM      2  N   UNL     1      32.996 -10.002 -23.055  0.00  0.00    -0.279 N 
ATOM      3  N   UNL     1      31.616 -12.253 -21.523  0.00  0.00    -0.262 NA
ATOM      4  N   UNL     1      32.110  -8.812 -21.426  0.00  0.00    -0.131 NA
ATOM      5  N   UNL     1      33.120  -8.075 -21.995  0.00  0.00    -0.133 NA
ATOM      6  C   UNL     1      33.219 -11.054 -23.971  0.00  0.00    +0.068 C 
ATOM      7  C   UNL     1      32.845 -12.382 -23.682  0.00  0.00    +0.034 C 
ATOM      8  C   UNL     1      32.023  -9.950 -22.082  0.00  0.00    +0.172 A 
ATOM      9  C   UNL     1      32.434 -12.855 -22.319  0.00  0.00    +0.078 C 
ATOM     10  C   UNL     1      30.998 -11.003 -21.922  0.00  0.00    +0.191 C 
ATOM     11  C   UNL     1      33.621  -8.784 -22.981  0.00  0.00    +0.147 A 
ATOM     12  C   UNL     1      33.793 -10.747 -25.215  0.00  0.00    +0.019 C 
ATOM     13  C   UNL     1      32.976 -13.359 -24.685  0.00  0.00    +0.014 C 
ATOM     14  C   UNL     1      33.939 -11.737 -26.189  0.00  0.00    +0.013 C 
ATOM     15  C   UNL     1      33.515 -13.036 -25.930  0.00  0.00    +0.058 C 
ATOM     16  C   UNL     1      34.810  -8.359 -23.749  0.00  0.00    +0.074 C 
ENDROOT
BRANCH   9  17
ATOM     17  C   UNL     1      33.035 -14.121 -21.803  0.00  0.00    +0.017 C 
ATOM     18  C   UNL     1      32.258 -14.990 -21.051  0.00  0.00    +0.001 C 
ATOM     19  C   UNL     1      34.364 -14.410 -22.083  0.00  0.00    +0.001 C 
ATOM     20  C   UNL     1      32.820 -16.173 -20.570  0.00  0.00    +0.000 C 
ATOM     21  C   UNL     1      34.926 -15.593 -21.601  0.00  0.00    +0.000 C 
ATOM     22  C   UNL     1      34.154 -16.475 -20.844  0.00  0.00    +0.000 C 
ENDBRANCH   9  17
TORSDOF 1
ENDMDL
MODEL 4
REMARK VINA RESULT:      -9.6      3.023      6.029
REMARK  Name = 2118
REMARK  1 active torsions:
REMARK  status: ('A' for Active; 'I' for Inactive)
REMARK    1  A    between atoms: C_9  and  C_17
REMARK                            x       y       z     vdW  Elec       q    Type
REMARK                         _______ _______ _______ _____ _____    ______ ____
ROOT
ATOM      1 CL   UNL     1      32.368 -15.921 -26.974  0.00  0.00    -0.082 Cl
ATOM      2  N   UNL     1      33.958 -10.737 -24.569  0.00  0.00    -0.279 N 
ATOM      3  N   UNL     1      32.480 -11.863 -22.147  0.00  0.00    -0.262 NA
ATOM      4  N   UNL     1      33.887  -8.913 -23.335  0.00  0.00    -0.131 NA
ATOM      5  N   UNL     1      34.870  -8.753 -24.280  0.00  0.00    -0.133 NA
ATOM      6  C   UNL     1      33.640 -12.013 -25.085  0.00  0.00    +0.068 C 
ATOM      7  C   UNL     1      33.014 -12.998 -24.295  0.00  0.00    +0.034 C 
ATOM      8  C   UNL     1      33.328 -10.088 -23.530  0.00  0.00    +0.172 A 
ATOM      9  C   UNL     1      32.865 -12.904 -22.805  0.00  0.00    +0.078 C 
ATOM     10  C   UNL     1      32.137 -10.641 -22.849  0.00  0.00    +0.191 C 
ATOM     11  C   UNL     1      34.884  -9.834 -25.025  0.00  0.00    +0.147 A 
ATOM     12  C   UNL     1      33.926 -12.279 -26.433  0.00  0.00    +0.019 C 
ATOM     13  C   UNL     1      32.608 -14.200 -24.903  0.00  0.00    +0.014 C 
ATOM     14  C   UNL     1      33.538 -13.489 -27.011  0.00  0.00    +0.013 C 
ATOM     15  C   UNL     1      32.865 -14.439 -26.252  0.00  0.00    +0.058 C 
ATOM     16  C   UNL     1      35.896 -10.071 -26.075  0.00  0.00    +0.074 C 
ENDROOT
BRANCH   9  17
ATOM     17  C   UNL     1      33.218 -14.101 -21.986  0.00  0.00    +0.017 C 
ATOM     18  C   UNL     1      32.339 -14.546 -21.009  0.00  0.00    +0.001 C 
ATOM     19  C   UNL     1      34.423 -14.753 -22.213  0.00  0.00    +0.001 C 
ATOM     20  C   UNL     1      32.669 -15.664 -20.245  0.00  0.00    +0.000 C 
ATOM     21  C   UNL     1      34.753 -15.872 -21.448  0.00  0.00    +0.000 C 
ATOM     22  C   UNL     1      33.876 -16.328 -20.464  0.00  0.00    +0.000 C 
ENDBRANCH   9  17
TORSDOF 1
ENDMDL
MODEL 5
REMARK VINA RESULT:      -9.3     10.591     13.635
REMARK  Name = 2118
REMARK  1 active torsions:
REMARK  status: ('A' for Active; 'I' for Inactive)
REMARK    1  A    between atoms: C_9  and  C_17
REMARK                            x       y       z     vdW  Elec       q    Type
REMARK                         _______ _______ _______ _____ _____    ______ ____
ROOT
ATOM      1 CL   UNL     1      31.540 -23.915 -13.559  0.00  0.00    -0.082 Cl
ATOM      2  N   UNL     1      35.169 -22.392 -17.997  0.00  0.00    -0.279 N 
ATOM      3  N   UNL     1      37.264 -22.472 -15.779  0.00  0.00    -0.262 NA
ATOM      4  N   UNL     1      36.846 -21.459 -19.080  0.00  0.00    -0.131 NA
ATOM      5  N   UNL     1      35.936 -21.908 -20.005  0.00  0.00    -0.133 NA
ATOM      6  C   UNL     1      34.346 -22.838 -16.940  0.00  0.00    +0.068 C 
ATOM      7  C   UNL     1      34.870 -23.139 -15.667  0.00  0.00    +0.034 C 
ATOM      8  C   UNL     1      36.369 -21.726 -17.882  0.00  0.00    +0.172 A 
ATOM      9  C   UNL     1      36.337 -23.275 -15.379  0.00  0.00    +0.078 C 
ATOM     10  C   UNL     1      36.928 -21.310 -16.578  0.00  0.00    +0.191 C 
ATOM     11  C   UNL     1      34.930 -22.437 -19.347  0.00  0.00    +0.147 A 
ATOM     12  C   UNL     1      32.964 -22.942 -17.166  0.00  0.00    +0.019 C 
ATOM     13  C   UNL     1      33.982 -23.454 -14.623  0.00  0.00    +0.014 C 
ATOM     14  C   UNL     1      32.101 -23.282 -16.122  0.00  0.00    +0.013 C 
ATOM     15  C   UNL     1      32.608 -23.520 -14.850  0.00  0.00    +0.058 C 
ATOM     16  C   UNL     1      33.812 -23.133 -20.018  0.00  0.00    +0.074 C 
ENDROOT
BRANCH   9  17
ATOM     17  C   UNL     1      36.791 -24.455 -14.585  0.00  0.00    +0.017 C 
ATOM     18  C   UNL     1      37.286 -24.267 -13.303  0.00  0.00    +0.001 C 
ATOM     19  C   UNL     1      36.712 -25.725 -15.141  0.00  0.00    +0.001 C 
ATOM     20  C   UNL     1      37.710 -25.369 -12.560  0.00  0.00    +0.000 C 
ATOM     21  C   UNL     1      37.136 -26.827 -14.398  0.00  0.00    +0.000 C 
ATOM     22  C   UNL     1      37.635 -26.650 -13.108  0.00  0.00    +0.000 C 
ENDBRANCH   9  17
TORSDOF 1
ENDMDL
MODEL 6
REMARK VINA RESULT:      -9.2      4.627      6.762
REMARK  Name = 2118
REMARK  1 active torsions:
REMARK  status: ('A' for Active; 'I' for Inactive)
REMARK    1  A    between atoms: C_9  and  C_17
REMARK                            x       y       z     vdW  Elec       q    Type
REMARK                         _______ _______ _______ _____ _____    ______ ____
ROOT
ATOM      1 CL   UNL     1      35.726 -10.081 -26.252  0.00  0.00    -0.082 Cl
ATOM      2  N   UNL     1      32.283  -9.693 -21.437  0.00  0.00    -0.279 N 
ATOM      3  N   UNL     1      32.966  -6.728 -21.678  0.00  0.00    -0.262 NA
ATOM      4  N   UNL     1      31.498  -9.004 -19.497  0.00  0.00    -0.131 NA
ATOM      5  N   UNL     1      30.924 -10.218 -19.785  0.00  0.00    -0.133 NA
ATOM      6  C   UNL     1      33.036  -9.742 -22.631  0.00  0.00    +0.068 C 
ATOM      7  C   UNL     1      33.522  -8.574 -23.251  0.00  0.00    +0.034 C 
ATOM      8  C   UNL     1      32.329  -8.710 -20.475  0.00  0.00    +0.172 A 
ATOM      9  C   UNL     1      33.085  -7.187 -22.878  0.00  0.00    +0.078 C 
ATOM     10  C   UNL     1      33.272  -7.573 -20.540  0.00  0.00    +0.191 C 
ATOM     11  C   UNL     1      31.420 -10.631 -20.929  0.00  0.00    +0.147 A 
ATOM     12  C   UNL     1      33.333 -10.998 -23.183  0.00  0.00    +0.019 C 
ATOM     13  C   UNL     1      34.372  -8.698 -24.364  0.00  0.00    +0.014 C 
ATOM     14  C   UNL     1      34.158 -11.099 -24.305  0.00  0.00    +0.013 C 
ATOM     15  C   UNL     1      34.690  -9.952 -24.883  0.00  0.00    +0.058 C 
ATOM     16  C   UNL     1      30.944 -11.849 -21.616  0.00  0.00    +0.074 C 
ENDROOT
BRANCH   9  17
ATOM     17  C   UNL     1      32.720  -6.245 -23.978  0.00  0.00    +0.017 C 
ATOM     18  C   UNL     1      33.596  -6.060 -25.038  0.00  0.00    +0.001 C 
ATOM     19  C   UNL     1      31.509  -5.568 -23.924  0.00  0.00    +0.001 C 
ATOM     20  C   UNL     1      33.255  -5.180 -26.065  0.00  0.00    +0.000 C 
ATOM     21  C   UNL     1      31.168  -4.688 -24.952  0.00  0.00    +0.000 C 
ATOM     22  C   UNL     1      32.041  -4.494 -26.023  0.00  0.00    +0.000 C 
ENDBRANCH   9  17
TORSDOF 1
ENDMDL
MODEL 7
REMARK VINA RESULT:      -8.5     10.305     12.718
REMARK  Name = 2118
REMARK  1 active torsions:
REMARK  status: ('A' for Active; 'I' for Inactive)
REMARK    1  A    between atoms: C_9  and  C_17
REMARK                            x       y       z     vdW  Elec       q    Type
REMARK                         _______ _______ _______ _____ _____    ______ ____
ROOT
ATOM      1 CL   UNL     1      36.351 -25.561 -13.291  0.00  0.00    -0.082 Cl
ATOM      2  N   UNL     1      35.993 -21.921 -17.961  0.00  0.00    -0.279 N 
ATOM      3  N   UNL     1      33.218 -23.167 -18.214  0.00  0.00    -0.262 NA
ATOM      4  N   UNL     1      35.451 -21.144 -19.951  0.00  0.00    -0.131 NA
ATOM      5  N   UNL     1      36.473 -20.374 -19.454  0.00  0.00    -0.133 NA
ATOM      6  C   UNL     1      36.016 -22.734 -16.806  0.00  0.00    +0.068 C 
ATOM      7  C   UNL     1      34.889 -23.474 -16.397  0.00  0.00    +0.034 C 
ATOM      8  C   UNL     1      35.188 -22.083 -19.066  0.00  0.00    +0.172 A 
ATOM      9  C   UNL     1      33.512 -23.282 -16.963  0.00  0.00    +0.078 C 
ATOM     10  C   UNL     1      34.262 -23.227 -19.218  0.00  0.00    +0.191 C 
ATOM     11  C   UNL     1      36.804 -20.863 -18.281  0.00  0.00    +0.147 A 
ATOM     12  C   UNL     1      37.212 -22.827 -16.078  0.00  0.00    +0.019 C 
ATOM     13  C   UNL     1      35.016 -24.363 -15.314  0.00  0.00    +0.014 C 
ATOM     14  C   UNL     1      37.310 -23.695 -14.989  0.00  0.00    +0.013 C 
ATOM     15  C   UNL     1      36.220 -24.474 -14.620  0.00  0.00    +0.058 C 
ATOM     16  C   UNL     1      37.792 -20.215 -17.394  0.00  0.00    +0.074 C 
ENDROOT
BRANCH   9  17
ATOM     17  C   UNL     1      32.368 -23.181 -16.010  0.00  0.00    +0.017 C 
ATOM     18  C   UNL     1      32.610 -23.210 -14.644  0.00  0.00    +0.001 C 
ATOM     19  C   UNL     1      31.075 -23.059 -16.504  0.00  0.00    +0.001 C 
ATOM     20  C   UNL     1      31.541 -23.115 -13.754  0.00  0.00    +0.000 C 
ATOM     21  C   UNL     1      30.006 -22.964 -15.613  0.00  0.00    +0.000 C 
ATOM     22  C   UNL     1      30.239 -22.992 -14.238  0.00  0.00    +0.000 C 
ENDBRANCH   9  17
TORSDOF 1
ENDMDL
