MODEL 1
REMARK VINA RESULT:      -6.0      0.000      0.000
REMARK  Name = 448879
REMARK  4 active torsions:
REMARK  status: ('A' for Active; 'I' for Inactive)
REMARK    1  A    between atoms: CA_1  and  N_3
REMARK    2  A    between atoms: CA_1  and  CB_9
REMARK    3  A    between atoms: CA_1  and  C_13
REMARK    4  A    between atoms: C_13  and  O_14
REMARK                            x       y       z     vdW  Elec       q    Type
REMARK                         _______ _______ _______ _____ _____    ______ ____
ROOT
ATOM      1  CA  UNL     1      38.633 -25.226 -14.447  0.00  0.00    +0.172 C 
ENDROOT
BRANCH   1   3
ATOM      2  O   UNL     1      36.001 -24.925 -15.625  0.00  0.00    -0.253 OA
ATOM      3  N   UNL     1      37.995 -23.999 -14.868  0.00  0.00    -0.281 N 
ATOM      4  N   UNL     1      36.348 -22.658 -15.742  0.00  0.00    -0.313 N 
ATOM      5  C   ACE A   0      36.725 -23.952 -15.426  0.00  0.00    +0.298 C 
ATOM      6  H   UNL     1      38.487 -23.154 -14.754  0.00  0.00    +0.151 HD
ATOM      7  H   UNL     1      35.466 -22.489 -16.145  0.00  0.00    +0.146 HD
ATOM      8  H   UNL     1      36.961 -21.910 -15.564  0.00  0.00    +0.146 HD
ENDBRANCH   1   3
BRANCH   1   9
ATOM      9  CB  UNL     1      38.437 -25.417 -12.927  0.00  0.00    +0.029 C 
ATOM     10  CG1 UNL     1      37.251 -26.330 -12.606  0.00  0.00    +0.002 C 
ATOM     11  CG2 UNL     1      38.309 -24.095 -12.163  0.00  0.00    +0.002 C 
ENDBRANCH   1   9
BRANCH   1  13
ATOM     12  OXT UNL     1      41.010 -24.753 -14.293  0.00  0.00    -0.248 OA
ATOM     13  C   UNL     1      40.086 -25.275 -14.908  0.00  0.00    +0.332 C 
BRANCH  13  14
ATOM     14  O   UNL     1      40.281 -25.903 -16.093  0.00  0.00    -0.479 OA
ATOM     15  H   UNL     1      39.698 -26.584 -16.363  0.00  0.00    +0.295 HD
ENDBRANCH  13  14
ENDBRANCH   1  13
TORSDOF 4
ENDMDL
MODEL 2
REMARK VINA RESULT:      -5.8      2.268      3.589
REMARK  Name = 448879
REMARK  4 active torsions:
REMARK  status: ('A' for Active; 'I' for Inactive)
REMARK    1  A    between atoms: CA_1  and  N_3
REMARK    2  A    between atoms: CA_1  and  CB_9
REMARK    3  A    between atoms: CA_1  and  C_13
REMARK    4  A    between atoms: C_13  and  O_14
REMARK                            x       y       z     vdW  Elec       q    Type
REMARK                         _______ _______ _______ _____ _____    ______ ____
ROOT
ATOM      1  CA  UNL     1      37.809 -24.233 -14.226  0.00  0.00    +0.172 C 
ENDROOT
BRANCH   1   3
ATOM      2  O   UNL     1      38.787 -23.124 -11.732  0.00  0.00    -0.253 OA
ATOM      3  N   UNL     1      37.092 -24.120 -12.975  0.00  0.00    -0.281 N 
ATOM      4  N   UNL     1      36.753 -23.582 -10.768  0.00  0.00    -0.313 N 
ATOM      5  C   ACE A   0      37.645 -23.572 -11.826  0.00  0.00    +0.298 C 
ATOM      6  H   UNL     1      36.165 -24.449 -12.937  0.00  0.00    +0.151 HD
ATOM      7  H   UNL     1      37.024 -23.219  -9.894  0.00  0.00    +0.146 HD
ATOM      8  H   UNL     1      35.849 -23.951 -10.891  0.00  0.00    +0.146 HD
ENDBRANCH   1   3
BRANCH   1   9
ATOM      9  CB  UNL     1      36.926 -23.707 -15.379  0.00  0.00    +0.029 C 
ATOM     10  CG1 UNL     1      37.583 -22.542 -16.126  0.00  0.00    +0.002 C 
ATOM     11  CG2 UNL     1      35.514 -23.319 -14.931  0.00  0.00    +0.002 C 
ENDBRANCH   1   9
BRANCH   1  13
ATOM     12  OXT UNL     1      39.145 -26.187 -13.680  0.00  0.00    -0.248 OA
ATOM     13  C   UNL     1      38.335 -25.650 -14.429  0.00  0.00    +0.332 C 
BRANCH  13  14
ATOM     14  O   UNL     1      37.877 -26.268 -15.545  0.00  0.00    -0.479 OA
ATOM     15  H   UNL     1      36.973 -26.201 -15.779  0.00  0.00    +0.295 HD
ENDBRANCH  13  14
ENDBRANCH   1  13
TORSDOF 4
ENDMDL
MODEL 3
REMARK VINA RESULT:      -5.8      2.778      4.161
REMARK  Name = 448879
REMARK  4 active torsions:
REMARK  status: ('A' for Active; 'I' for Inactive)
REMARK    1  A    between atoms: CA_1  and  N_3
REMARK    2  A    between atoms: CA_1  and  CB_9
REMARK    3  A    between atoms: CA_1  and  C_13
REMARK    4  A    between atoms: C_13  and  O_14
REMARK                            x       y       z     vdW  Elec       q    Type
REMARK                         _______ _______ _______ _____ _____    ______ ____
ROOT
ATOM      1  CA  UNL     1      36.441 -24.551 -12.831  0.00  0.00    +0.172 C 
ENDROOT
BRANCH   1   3
ATOM      2  O   UNL     1      35.943 -24.814 -15.675  0.00  0.00    -0.253 OA
ATOM      3  N   UNL     1      36.407 -25.771 -13.606  0.00  0.00    -0.281 N 
ATOM      4  N   UNL     1      36.180 -27.089 -15.473  0.00  0.00    -0.313 N 
ATOM      5  C   ACE A   0      36.159 -25.800 -14.972  0.00  0.00    +0.298 C 
ATOM      6  H   UNL     1      36.568 -26.624 -13.142  0.00  0.00    +0.151 HD
ATOM      7  H   UNL     1      36.019 -27.246 -16.431  0.00  0.00    +0.146 HD
ATOM      8  H   UNL     1      36.358 -27.848 -14.872  0.00  0.00    +0.146 HD
ENDBRANCH   1   3
BRANCH   1   9
ATOM      9  CB  UNL     1      37.836 -24.383 -12.189  0.00  0.00    +0.029 C 
ATOM     10  CG1 UNL     1      38.135 -22.926 -11.827  0.00  0.00    +0.002 C 
ATOM     11  CG2 UNL     1      38.968 -24.959 -13.044  0.00  0.00    +0.002 C 
ENDBRANCH   1   9
BRANCH   1  13
ATOM     12  OXT UNL     1      35.252 -25.134 -10.794  0.00  0.00    -0.248 OA
ATOM     13  C   UNL     1      35.280 -24.498 -11.843  0.00  0.00    +0.332 C 
BRANCH  13  14
ATOM     14  O   UNL     1      34.240 -23.723 -12.235  0.00  0.00    -0.479 OA
ATOM     15  H   UNL     1      33.361 -24.009 -12.084  0.00  0.00    +0.295 HD
ENDBRANCH  13  14
ENDBRANCH   1  13
TORSDOF 4
ENDMDL
MODEL 4
REMARK VINA RESULT:      -5.7      1.921      2.179
REMARK  Name = 448879
REMARK  4 active torsions:
REMARK  status: ('A' for Active; 'I' for Inactive)
REMARK    1  A    between atoms: CA_1  and  N_3
REMARK    2  A    between atoms: CA_1  and  CB_9
REMARK    3  A    between atoms: CA_1  and  C_13
REMARK    4  A    between atoms: C_13  and  O_14
REMARK                            x       y       z     vdW  Elec       q    Type
REMARK                         _______ _______ _______ _____ _____    ______ ____
ROOT
ATOM      1  CA  UNL     1      36.809 -25.338 -14.332  0.00  0.00    +0.172 C 
ENDROOT
BRANCH   1   3
ATOM      2  O   UNL     1      35.616 -23.476 -16.207  0.00  0.00    -0.253 OA
ATOM      3  N   UNL     1      37.410 -24.146 -14.886  0.00  0.00    -0.281 N 
ATOM      4  N   UNL     1      37.550 -22.241 -16.161  0.00  0.00    -0.313 N 
ATOM      5  C   ACE A   0      36.758 -23.310 -15.783  0.00  0.00    +0.298 C 
ATOM      6  H   UNL     1      38.327 -23.915 -14.613  0.00  0.00    +0.151 HD
ATOM      7  H   UNL     1      37.204 -21.572 -16.795  0.00  0.00    +0.146 HD
ATOM      8  H   UNL     1      38.459 -22.148 -15.795  0.00  0.00    +0.146 HD
ENDBRANCH   1   3
BRANCH   1   9
ATOM      9  CB  UNL     1      36.919 -25.307 -12.791  0.00  0.00    +0.029 C 
ATOM     10  CG1 UNL     1      35.664 -24.727 -12.133  0.00  0.00    +0.002 C 
ATOM     11  CG2 UNL     1      38.167 -24.574 -12.290  0.00  0.00    +0.002 C 
ENDBRANCH   1   9
BRANCH   1  13
ATOM     12  OXT UNL     1      38.388 -27.168 -14.572  0.00  0.00    -0.248 OA
ATOM     13  C   UNL     1      37.384 -26.593 -14.981  0.00  0.00    +0.332 C 
BRANCH  13  14
ATOM     14  O   UNL     1      36.727 -27.007 -16.091  0.00  0.00    -0.479 OA
ATOM     15  H   UNL     1      37.207 -27.233 -16.862  0.00  0.00    +0.295 HD
ENDBRANCH  13  14
ENDBRANCH   1  13
TORSDOF 4
ENDMDL
MODEL 5
REMARK VINA RESULT:      -5.6      6.947      9.413
REMARK  Name = 448879
REMARK  4 active torsions:
REMARK  status: ('A' for Active; 'I' for Inactive)
REMARK    1  A    between atoms: CA_1  and  N_3
REMARK    2  A    between atoms: CA_1  and  CB_9
REMARK    3  A    between atoms: CA_1  and  C_13
REMARK    4  A    between atoms: C_13  and  O_14
REMARK                            x       y       z     vdW  Elec       q    Type
REMARK                         _______ _______ _______ _____ _____    ______ ____
ROOT
ATOM      1  CA  UNL     1      34.426 -20.172 -21.099  0.00  0.00    +0.172 C 
ENDROOT
BRANCH   1   3
ATOM      2  O   UNL     1      35.354 -22.454 -19.570  0.00  0.00    -0.253 OA
ATOM      3  N   UNL     1      35.406 -20.175 -20.036  0.00  0.00    -0.281 N 
ATOM      4  N   UNL     1      36.739 -21.056 -18.386  0.00  0.00    -0.313 N 
ATOM      5  C   ACE A   0      35.789 -21.324 -19.356  0.00  0.00    +0.298 C 
ATOM      6  H   UNL     1      35.821 -19.320 -19.781  0.00  0.00    +0.151 HD
ATOM      7  H   UNL     1      37.095 -21.788 -17.832  0.00  0.00    +0.146 HD
ATOM      8  H   UNL     1      37.058 -20.135 -18.251  0.00  0.00    +0.146 HD
ENDBRANCH   1   3
BRANCH   1   9
ATOM      9  CB  UNL     1      34.633 -18.928 -21.992  0.00  0.00    +0.029 C 
ATOM     10  CG1 UNL     1      34.921 -19.303 -23.448  0.00  0.00    +0.002 C 
ATOM     11  CG2 UNL     1      35.716 -17.981 -21.465  0.00  0.00    +0.002 C 
ENDBRANCH   1   9
BRANCH   1  13
ATOM     12  OXT UNL     1      32.238 -19.382 -20.399  0.00  0.00    -0.248 OA
ATOM     13  C   UNL     1      33.013 -20.321 -20.543  0.00  0.00    +0.332 C 
BRANCH  13  14
ATOM     14  O   UNL     1      32.687 -21.581 -20.164  0.00  0.00    -0.479 OA
ATOM     15  H   UNL     1      33.360 -22.190 -19.935  0.00  0.00    +0.295 HD
ENDBRANCH  13  14
ENDBRANCH   1  13
TORSDOF 4
ENDMDL
MODEL 6
REMARK VINA RESULT:      -5.6      2.418      3.720
REMARK  Name = 448879
REMARK  4 active torsions:
REMARK  status: ('A' for Active; 'I' for Inactive)
REMARK    1  A    between atoms: CA_1  and  N_3
REMARK    2  A    between atoms: CA_1  and  CB_9
REMARK    3  A    between atoms: CA_1  and  C_13
REMARK    4  A    between atoms: C_13  and  O_14
REMARK                            x       y       z     vdW  Elec       q    Type
REMARK                         _______ _______ _______ _____ _____    ______ ____
ROOT
ATOM      1  CA  UNL     1      37.375 -24.509 -13.254  0.00  0.00    +0.172 C 
ENDROOT
BRANCH   1   3
ATOM      2  O   UNL     1      38.414 -26.867 -14.582  0.00  0.00    -0.253 OA
ATOM      3  N   UNL     1      38.558 -24.601 -14.079  0.00  0.00    -0.281 N 
ATOM      4  N   UNL     1      40.139 -25.600 -15.413  0.00  0.00    -0.313 N 
ATOM      5  C   ACE A   0      38.981 -25.780 -14.677  0.00  0.00    +0.298 C 
ATOM      6  H   UNL     1      39.091 -23.786 -14.224  0.00  0.00    +0.151 HD
ATOM      7  H   UNL     1      40.543 -26.361 -15.888  0.00  0.00    +0.146 HD
ATOM      8  H   UNL     1      40.557 -24.710 -15.461  0.00  0.00    +0.146 HD
ENDBRANCH   1   3
BRANCH   1   9
ATOM      9  CB  UNL     1      36.254 -23.786 -14.032  0.00  0.00    +0.029 C 
ATOM     10  CG1 UNL     1      35.237 -24.765 -14.625  0.00  0.00    +0.002 C 
ATOM     11  CG2 UNL     1      36.783 -22.848 -15.121  0.00  0.00    +0.002 C 
ENDBRANCH   1   9
BRANCH   1  13
ATOM     12  OXT UNL     1      38.620 -23.102 -11.714  0.00  0.00    -0.248 OA
ATOM     13  C   UNL     1      37.700 -23.893 -11.897  0.00  0.00    +0.332 C 
BRANCH  13  14
ATOM     14  O   UNL     1      36.920 -24.327 -10.878  0.00  0.00    -0.479 OA
ATOM     15  H   UNL     1      35.996 -24.421 -11.003  0.00  0.00    +0.295 HD
ENDBRANCH  13  14
ENDBRANCH   1  13
TORSDOF 4
ENDMDL
MODEL 7
REMARK VINA RESULT:      -5.6      3.329      4.076
REMARK  Name = 448879
REMARK  4 active torsions:
REMARK  status: ('A' for Active; 'I' for Inactive)
REMARK    1  A    between atoms: CA_1  and  N_3
REMARK    2  A    between atoms: CA_1  and  CB_9
REMARK    3  A    between atoms: CA_1  and  C_13
REMARK    4  A    between atoms: C_13  and  O_14
REMARK                            x       y       z     vdW  Elec       q    Type
REMARK                         _______ _______ _______ _____ _____    ______ ____
ROOT
ATOM      1  CA  UNL     1      36.628 -24.358 -12.517  0.00  0.00    +0.172 C 
ENDROOT
BRANCH   1   3
ATOM      2  O   UNL     1      34.643 -23.358 -14.378  0.00  0.00    -0.253 OA
ATOM      3  N   UNL     1      35.278 -24.841 -12.703  0.00  0.00    -0.281 N 
ATOM      4  N   UNL     1      33.167 -24.937 -13.603  0.00  0.00    -0.313 N 
ATOM      5  C   ACE A   0      34.393 -24.296 -13.624  0.00  0.00    +0.298 C 
ATOM      6  H   UNL     1      34.970 -25.594 -12.148  0.00  0.00    +0.151 HD
ATOM      7  H   UNL     1      32.450 -24.645 -14.211  0.00  0.00    +0.146 HD
ATOM      8  H   UNL     1      33.013 -25.684 -12.982  0.00  0.00    +0.146 HD
ENDBRANCH   1   3
BRANCH   1   9
ATOM      9  CB  UNL     1      37.623 -25.530 -12.667  0.00  0.00    +0.029 C 
ATOM     10  CG1 UNL     1      39.007 -25.059 -13.121  0.00  0.00    +0.002 C 
ATOM     11  CG2 UNL     1      37.113 -26.641 -13.589  0.00  0.00    +0.002 C 
ENDBRANCH   1   9
BRANCH   1  13
ATOM     12  OXT UNL     1      36.366 -24.008 -10.128  0.00  0.00    -0.248 OA
ATOM     13  C   UNL     1      36.757 -23.583 -11.209  0.00  0.00    +0.332 C 
BRANCH  13  14
ATOM     14  O   UNL     1      37.298 -22.347 -11.337  0.00  0.00    -0.479 OA
ATOM     15  H   UNL     1      37.943 -22.185 -11.997  0.00  0.00    +0.295 HD
ENDBRANCH  13  14
ENDBRANCH   1  13
TORSDOF 4
ENDMDL
MODEL 8
REMARK VINA RESULT:      -5.5      7.091      8.512
REMARK  Name = 448879
REMARK  4 active torsions:
REMARK  status: ('A' for Active; 'I' for Inactive)
REMARK    1  A    between atoms: CA_1  and  N_3
REMARK    2  A    between atoms: CA_1  and  CB_9
REMARK    3  A    between atoms: CA_1  and  C_13
REMARK    4  A    between atoms: C_13  and  O_14
REMARK                            x       y       z     vdW  Elec       q    Type
REMARK                         _______ _______ _______ _____ _____    ______ ____
ROOT
ATOM      1  CA  UNL     1      30.578 -23.476 -14.853  0.00  0.00    +0.172 C 
ENDROOT
BRANCH   1   3
ATOM      2  O   UNL     1      28.201 -21.906 -15.391  0.00  0.00    -0.253 OA
ATOM      3  N   UNL     1      29.775 -23.485 -16.055  0.00  0.00    -0.281 N 
ATOM      4  N   UNL     1      28.058 -22.890 -17.460  0.00  0.00    -0.313 N 
ATOM      5  C   ACE A   0      28.646 -22.694 -16.223  0.00  0.00    +0.298 C 
ATOM      6  H   UNL     1      30.041 -24.082 -16.791  0.00  0.00    +0.151 HD
ATOM      7  H   UNL     1      27.248 -22.387 -17.705  0.00  0.00    +0.146 HD
ATOM      8  H   UNL     1      28.450 -23.532 -18.095  0.00  0.00    +0.146 HD
ENDBRANCH   1   3
BRANCH   1   9
ATOM      9  CB  UNL     1      32.020 -23.041 -15.196  0.00  0.00    +0.029 C 
ATOM     10  CG1 UNL     1      32.362 -23.281 -16.669  0.00  0.00    +0.002 C 
ATOM     11  CG2 UNL     1      33.076 -23.687 -14.295  0.00  0.00    +0.002 C 
ENDBRANCH   1   9
BRANCH   1  13
ATOM     12  OXT UNL     1      30.397 -25.893 -14.689  0.00  0.00    -0.248 OA
ATOM     13  C   UNL     1      30.479 -24.810 -14.119  0.00  0.00    +0.332 C 
BRANCH  13  14
ATOM     14  O   UNL     1      30.436 -24.709 -12.769  0.00  0.00    -0.479 OA
ATOM     15  H   UNL     1      29.613 -24.601 -12.334  0.00  0.00    +0.295 HD
ENDBRANCH  13  14
ENDBRANCH   1  13
TORSDOF 4
ENDMDL
MODEL 9
REMARK VINA RESULT:      -5.4      9.521     11.645
REMARK  Name = 448879
REMARK  4 active torsions:
REMARK  status: ('A' for Active; 'I' for Inactive)
REMARK    1  A    between atoms: CA_1  and  N_3
REMARK    2  A    between atoms: CA_1  and  CB_9
REMARK    3  A    between atoms: CA_1  and  C_13
REMARK    4  A    between atoms: C_13  and  O_14
REMARK                            x       y       z     vdW  Elec       q    Type
REMARK                         _______ _______ _______ _____ _____    ______ ____
ROOT
ATOM      1  CA  UNL     1      34.562 -17.045 -21.669  0.00  0.00    +0.172 C 
ENDROOT
BRANCH   1   3
ATOM      2  O   UNL     1      34.343 -19.915 -21.325  0.00  0.00    -0.253 OA
ATOM      3  N   UNL     1      35.477 -17.916 -20.967  0.00  0.00    -0.281 N 
ATOM      4  N   UNL     1      36.305 -19.890 -20.133  0.00  0.00    -0.313 N 
ATOM      5  C   ACE A   0      35.289 -19.287 -20.853  0.00  0.00    +0.298 C 
ATOM      6  H   UNL     1      36.274 -17.518 -20.548  0.00  0.00    +0.151 HD
ATOM      7  H   UNL     1      36.290 -20.862 -19.981  0.00  0.00    +0.146 HD
ATOM      8  H   UNL     1      37.043 -19.346 -19.774  0.00  0.00    +0.146 HD
ENDBRANCH   1   3
BRANCH   1   9
ATOM      9  CB  UNL     1      35.169 -16.646 -23.033  0.00  0.00    +0.029 C 
ATOM     10  CG1 UNL     1      34.600 -15.323 -23.554  0.00  0.00    +0.002 C 
ATOM     11  CG2 UNL     1      35.030 -17.738 -24.098  0.00  0.00    +0.002 C 
ENDBRANCH   1   9
BRANCH   1  13
ATOM     12  OXT UNL     1      34.945 -15.156 -20.191  0.00  0.00    -0.248 OA
ATOM     13  C   UNL     1      34.147 -15.867 -20.794  0.00  0.00    +0.332 C 
BRANCH  13  14
ATOM     14  O   UNL     1      32.809 -15.688 -20.686  0.00  0.00    -0.479 OA
ATOM     15  H   UNL     1      32.445 -15.341 -19.895  0.00  0.00    +0.295 HD
ENDBRANCH  13  14
ENDBRANCH   1  13
TORSDOF 4
ENDMDL
