MODEL 1
REMARK VINA RESULT:      -5.8      0.000      0.000
REMARK  Name = 439750
REMARK  6 active torsions:
REMARK  status: ('A' for Active; 'I' for Inactive)
REMARK    1  A    between atoms: CA_1  and  N_3
REMARK    2  A    between atoms: CA_1  and  C_7
REMARK    3  A    between atoms: CA_1  and  CB_10
REMARK    4  A    between atoms: C_7  and  O_8
REMARK    5  A    between atoms: CB_10  and  CG_11
REMARK    6  A    between atoms: CG_11  and  SD_12
REMARK                            x       y       z     vdW  Elec       q    Type
REMARK                         _______ _______ _______ _____ _____    ______ ____
ROOT
ATOM      1  CA  UNL     1      37.987 -26.297 -14.306  0.00  0.00    +0.172 C 
ENDROOT
BRANCH   1   3
ATOM      2  O   UNL     1      40.880 -26.563 -14.716  0.00  0.00    -0.265 OA
ATOM      3  N   UNL     1      38.887 -25.356 -14.921  0.00  0.00    -0.289 N 
ATOM      4  C   ACE A   0      40.240 -25.579 -15.066  0.00  0.00    +0.300 C 
ATOM      5  H   UNL     1      38.516 -24.508 -15.256  0.00  0.00    +0.150 HD
ENDBRANCH   1   3
BRANCH   1   7
ATOM      6  OXT UNL     1      36.773 -27.292 -16.150  0.00  0.00    -0.248 OA
ATOM      7  C   UNL     1      36.758 -26.567 -15.161  0.00  0.00    +0.332 C 
BRANCH   7   8
ATOM      8  O   UNL     1      35.647 -25.895 -14.773  0.00  0.00    -0.479 OA
ATOM      9  H   UNL     1      35.644 -24.959 -14.766  0.00  0.00    +0.295 HD
ENDBRANCH   7   8
ENDBRANCH   1   7
BRANCH   1  10
ATOM     10  CB  UNL     1      37.617 -25.875 -12.877  0.00  0.00    +0.043 C 
BRANCH  10  11
ATOM     11  CG  UNL     1      38.215 -24.529 -12.462  0.00  0.00    +0.060 C 
BRANCH  11  12
ATOM     12  SD  UNL     1      36.894 -23.354 -12.041  0.00  0.00    -0.139 S 
ATOM     13  CE  UNL     1      35.658 -24.545 -11.472  0.00  0.00    +0.069 C 
ENDBRANCH  11  12
ENDBRANCH  10  11
ENDBRANCH   1  10
TORSDOF 6
ENDMDL
MODEL 2
REMARK VINA RESULT:      -5.7      1.205      3.189
REMARK  Name = 439750
REMARK  6 active torsions:
REMARK  status: ('A' for Active; 'I' for Inactive)
REMARK    1  A    between atoms: CA_1  and  N_3
REMARK    2  A    between atoms: CA_1  and  C_7
REMARK    3  A    between atoms: CA_1  and  CB_10
REMARK    4  A    between atoms: C_7  and  O_8
REMARK    5  A    between atoms: CB_10  and  CG_11
REMARK    6  A    between atoms: CG_11  and  SD_12
REMARK                            x       y       z     vdW  Elec       q    Type
REMARK                         _______ _______ _______ _____ _____    ______ ____
ROOT
ATOM      1  CA  UNL     1      38.685 -25.360 -14.358  0.00  0.00    +0.172 C 
ENDROOT
BRANCH   1   3
ATOM      2  O   UNL     1      36.119 -25.999 -15.628  0.00  0.00    -0.265 OA
ATOM      3  N   UNL     1      38.087 -26.657 -14.549  0.00  0.00    -0.289 N 
ATOM      4  C   ACE A   0      36.867 -26.849 -15.163  0.00  0.00    +0.300 C 
ATOM      5  H   UNL     1      38.576 -27.447 -14.224  0.00  0.00    +0.150 HD
ENDBRANCH   1   3
BRANCH   1   7
ATOM      6  OXT UNL     1      41.011 -24.696 -14.261  0.00  0.00    -0.248 OA
ATOM      7  C   UNL     1      40.125 -25.308 -14.846  0.00  0.00    +0.332 C 
BRANCH   7   8
ATOM      8  O   UNL     1      40.343 -25.951 -16.019  0.00  0.00    -0.479 OA
ATOM      9  H   UNL     1      40.676 -26.826 -16.018  0.00  0.00    +0.295 HD
ENDBRANCH   7   8
ENDBRANCH   1   7
BRANCH   1  10
ATOM     10  CB  UNL     1      38.550 -24.883 -12.905  0.00  0.00    +0.043 C 
BRANCH  10  11
ATOM     11  CG  UNL     1      37.607 -23.689 -12.738  0.00  0.00    +0.060 C 
BRANCH  11  12
ATOM     12  SD  UNL     1      36.291 -24.084 -11.550  0.00  0.00    -0.139 S 
ATOM     13  CE  UNL     1      34.937 -24.313 -12.726  0.00  0.00    +0.069 C 
ENDBRANCH  11  12
ENDBRANCH  10  11
ENDBRANCH   1  10
TORSDOF 6
ENDMDL
MODEL 3
REMARK VINA RESULT:      -5.4      2.500      2.985
REMARK  Name = 439750
REMARK  6 active torsions:
REMARK  status: ('A' for Active; 'I' for Inactive)
REMARK    1  A    between atoms: CA_1  and  N_3
REMARK    2  A    between atoms: CA_1  and  C_7
REMARK    3  A    between atoms: CA_1  and  CB_10
REMARK    4  A    between atoms: C_7  and  O_8
REMARK    5  A    between atoms: CB_10  and  CG_11
REMARK    6  A    between atoms: CG_11  and  SD_12
REMARK                            x       y       z     vdW  Elec       q    Type
REMARK                         _______ _______ _______ _____ _____    ______ ____
ROOT
ATOM      1  CA  UNL     1      38.317 -25.133 -13.557  0.00  0.00    +0.172 C 
ENDROOT
BRANCH   1   3
ATOM      2  O   UNL     1      41.025 -24.869 -14.655  0.00  0.00    -0.265 OA
ATOM      3  N   UNL     1      39.270 -26.178 -13.829  0.00  0.00    -0.289 N 
ATOM      4  C   ACE A   0      40.526 -25.945 -14.349  0.00  0.00    +0.300 C 
ATOM      5  H   UNL     1      39.011 -27.107 -13.633  0.00  0.00    +0.150 HD
ENDBRANCH   1   3
BRANCH   1   7
ATOM      6  OXT UNL     1      37.780 -24.567 -11.265  0.00  0.00    -0.248 OA
ATOM      7  C   UNL     1      37.618 -25.320 -12.219  0.00  0.00    +0.332 C 
BRANCH   7   8
ATOM      8  O   UNL     1      36.837 -26.425 -12.144  0.00  0.00    -0.479 OA
ATOM      9  H   UNL     1      36.444 -26.666 -11.329  0.00  0.00    +0.295 HD
ENDBRANCH   7   8
ENDBRANCH   1   7
BRANCH   1  10
ATOM     10  CB  UNL     1      37.319 -24.962 -14.712  0.00  0.00    +0.043 C 
BRANCH  10  11
ATOM     11  CG  UNL     1      37.250 -23.533 -15.255  0.00  0.00    +0.060 C 
BRANCH  11  12
ATOM     12  SD  UNL     1      35.520 -22.998 -15.406  0.00  0.00    -0.139 S 
ATOM     13  CE  UNL     1      34.733 -24.453 -14.677  0.00  0.00    +0.069 C 
ENDBRANCH  11  12
ENDBRANCH  10  11
ENDBRANCH   1  10
TORSDOF 6
ENDMDL
MODEL 4
REMARK VINA RESULT:      -5.4      2.930      3.662
REMARK  Name = 439750
REMARK  6 active torsions:
REMARK  status: ('A' for Active; 'I' for Inactive)
REMARK    1  A    between atoms: CA_1  and  N_3
REMARK    2  A    between atoms: CA_1  and  C_7
REMARK    3  A    between atoms: CA_1  and  CB_10
REMARK    4  A    between atoms: C_7  and  O_8
REMARK    5  A    between atoms: CB_10  and  CG_11
REMARK    6  A    between atoms: CG_11  and  SD_12
REMARK                            x       y       z     vdW  Elec       q    Type
REMARK                         _______ _______ _______ _____ _____    ______ ____
ROOT
ATOM      1  CA  UNL     1      38.240 -24.778 -13.413  0.00  0.00    +0.172 C 
ENDROOT
BRANCH   1   3
ATOM      2  O   UNL     1      40.886 -24.838 -14.681  0.00  0.00    -0.265 OA
ATOM      3  N   UNL     1      39.151 -25.889 -13.515  0.00  0.00    -0.289 N 
ATOM      4  C   ACE A   0      40.381 -25.812 -14.136  0.00  0.00    +0.300 C 
ATOM      5  H   UNL     1      38.882 -26.750 -13.120  0.00  0.00    +0.150 HD
ENDBRANCH   1   3
BRANCH   1   7
ATOM      6  OXT UNL     1      37.376 -24.695 -11.153  0.00  0.00    -0.248 OA
ATOM      7  C   UNL     1      38.142 -24.238 -11.995  0.00  0.00    +0.332 C 
BRANCH   7   8
ATOM      8  O   UNL     1      38.934 -23.166 -11.747  0.00  0.00    -0.479 OA
ATOM      9  H   UNL     1      39.258 -22.649 -12.457  0.00  0.00    +0.295 HD
ENDBRANCH   7   8
ENDBRANCH   1   7
BRANCH   1  10
ATOM     10  CB  UNL     1      36.863 -25.120 -13.999  0.00  0.00    +0.043 C 
BRANCH  10  11
ATOM     11  CG  UNL     1      36.258 -23.992 -14.839  0.00  0.00    +0.060 C 
BRANCH  11  12
ATOM     12  SD  UNL     1      37.573 -23.032 -15.646  0.00  0.00    -0.139 S 
ATOM     13  CE  UNL     1      36.554 -22.170 -16.866  0.00  0.00    +0.069 C 
ENDBRANCH  11  12
ENDBRANCH  10  11
ENDBRANCH   1  10
TORSDOF 6
ENDMDL
MODEL 5
REMARK VINA RESULT:      -5.2      2.185      3.697
REMARK  Name = 439750
REMARK  6 active torsions:
REMARK  status: ('A' for Active; 'I' for Inactive)
REMARK    1  A    between atoms: CA_1  and  N_3
REMARK    2  A    between atoms: CA_1  and  C_7
REMARK    3  A    between atoms: CA_1  and  CB_10
REMARK    4  A    between atoms: C_7  and  O_8
REMARK    5  A    between atoms: CB_10  and  CG_11
REMARK    6  A    between atoms: CG_11  and  SD_12
REMARK                            x       y       z     vdW  Elec       q    Type
REMARK                         _______ _______ _______ _____ _____    ______ ____
ROOT
ATOM      1  CA  UNL     1      38.755 -25.807 -14.110  0.00  0.00    +0.172 C 
ENDROOT
BRANCH   1   3
ATOM      2  O   UNL     1      36.968 -25.829 -11.783  0.00  0.00    -0.265 OA
ATOM      3  N   UNL     1      38.760 -24.916 -12.978  0.00  0.00    -0.289 N 
ATOM      4  C   ACE A   0      37.870 -25.014 -11.929  0.00  0.00    +0.300 C 
ATOM      5  H   UNL     1      39.435 -24.201 -12.952  0.00  0.00    +0.150 HD
ENDBRANCH   1   3
BRANCH   1   7
ATOM      6  OXT UNL     1      41.076 -26.471 -13.935  0.00  0.00    -0.248 OA
ATOM      7  C   UNL     1      40.154 -26.077 -14.641  0.00  0.00    +0.332 C 
BRANCH   7   8
ATOM      8  O   UNL     1      40.319 -25.795 -15.956  0.00  0.00    -0.479 OA
ATOM      9  H   UNL     1      40.364 -24.904 -16.242  0.00  0.00    +0.295 HD
ENDBRANCH   7   8
ENDBRANCH   1   7
BRANCH   1  10
ATOM     10  CB  UNL     1      37.803 -25.316 -15.211  0.00  0.00    +0.043 C 
BRANCH  10  11
ATOM     11  CG  UNL     1      36.418 -25.966 -15.156  0.00  0.00    +0.060 C 
BRANCH  11  12
ATOM     12  SD  UNL     1      35.141 -24.707 -14.864  0.00  0.00    -0.139 S 
ATOM     13  CE  UNL     1      36.181 -23.238 -15.029  0.00  0.00    +0.069 C 
ENDBRANCH  11  12
ENDBRANCH  10  11
ENDBRANCH   1  10
TORSDOF 6
ENDMDL
MODEL 6
REMARK VINA RESULT:      -5.2      2.124      3.143
REMARK  Name = 439750
REMARK  6 active torsions:
REMARK  status: ('A' for Active; 'I' for Inactive)
REMARK    1  A    between atoms: CA_1  and  N_3
REMARK    2  A    between atoms: CA_1  and  C_7
REMARK    3  A    between atoms: CA_1  and  CB_10
REMARK    4  A    between atoms: C_7  and  O_8
REMARK    5  A    between atoms: CB_10  and  CG_11
REMARK    6  A    between atoms: CG_11  and  SD_12
REMARK                            x       y       z     vdW  Elec       q    Type
REMARK                         _______ _______ _______ _____ _____    ______ ____
ROOT
ATOM      1  CA  UNL     1      38.693 -24.775 -14.147  0.00  0.00    +0.172 C 
ENDROOT
BRANCH   1   3
ATOM      2  O   UNL     1      37.532 -22.293 -15.194  0.00  0.00    -0.265 OA
ATOM      3  N   UNL     1      37.803 -24.615 -15.268  0.00  0.00    -0.289 N 
ATOM      4  C   ACE A   0      37.311 -23.395 -15.681  0.00  0.00    +0.300 C 
ATOM      5  H   UNL     1      37.532 -25.420 -15.765  0.00  0.00    +0.150 HD
ENDBRANCH   1   3
BRANCH   1   7
ATOM      6  OXT UNL     1      39.882 -26.824 -14.652  0.00  0.00    -0.248 OA
ATOM      7  C   UNL     1      39.918 -25.608 -14.494  0.00  0.00    +0.332 C 
BRANCH   7   8
ATOM      8  O   UNL     1      41.074 -24.904 -14.562  0.00  0.00    -0.479 OA
ATOM      9  H   UNL     1      41.721 -25.127 -15.201  0.00  0.00    +0.295 HD
ENDBRANCH   7   8
ENDBRANCH   1   7
BRANCH   1  10
ATOM     10  CB  UNL     1      37.958 -25.315 -12.912  0.00  0.00    +0.043 C 
BRANCH  10  11
ATOM     11  CG  UNL     1      37.578 -24.229 -11.903  0.00  0.00    +0.060 C 
BRANCH  11  12
ATOM     12  SD  UNL     1      35.869 -24.467 -11.333  0.00  0.00    -0.139 S 
ATOM     13  CE  UNL     1      35.031 -24.236 -12.917  0.00  0.00    +0.069 C 
ENDBRANCH  11  12
ENDBRANCH  10  11
ENDBRANCH   1  10
TORSDOF 6
ENDMDL
MODEL 7
REMARK VINA RESULT:      -5.2     11.903     12.577
REMARK  Name = 439750
REMARK  6 active torsions:
REMARK  status: ('A' for Active; 'I' for Inactive)
REMARK    1  A    between atoms: CA_1  and  N_3
REMARK    2  A    between atoms: CA_1  and  C_7
REMARK    3  A    between atoms: CA_1  and  CB_10
REMARK    4  A    between atoms: C_7  and  O_8
REMARK    5  A    between atoms: CB_10  and  CG_11
REMARK    6  A    between atoms: CG_11  and  SD_12
REMARK                            x       y       z     vdW  Elec       q    Type
REMARK                         _______ _______ _______ _____ _____    ______ ____
ROOT
ATOM      1  CA  UNL     1      34.818 -17.000 -22.727  0.00  0.00    +0.172 C 
ENDROOT
BRANCH   1   3
ATOM      2  O   UNL     1      34.001 -17.591 -25.482  0.00  0.00    -0.265 OA
ATOM      3  N   UNL     1      35.268 -16.370 -23.941  0.00  0.00    -0.289 N 
ATOM      4  C   ACE A   0      34.817 -16.725 -25.196  0.00  0.00    +0.300 C 
ATOM      5  H   UNL     1      35.932 -15.647 -23.872  0.00  0.00    +0.150 HD
ENDBRANCH   1   3
BRANCH   1   7
ATOM      6  OXT UNL     1      35.091 -16.409 -20.395  0.00  0.00    -0.248 OA
ATOM      7  C   UNL     1      34.836 -16.050 -21.540  0.00  0.00    +0.332 C 
BRANCH   7   8
ATOM      8  O   UNL     1      34.490 -14.774 -21.837  0.00  0.00    -0.479 OA
ATOM      9  H   UNL     1      34.390 -14.512 -22.731  0.00  0.00    +0.295 HD
ENDBRANCH   7   8
ENDBRANCH   1   7
BRANCH   1  10
ATOM     10  CB  UNL     1      35.591 -18.296 -22.442  0.00  0.00    +0.043 C 
BRANCH  10  11
ATOM     11  CG  UNL     1      34.690 -19.522 -22.274  0.00  0.00    +0.060 C 
BRANCH  11  12
ATOM     12  SD  UNL     1      34.866 -20.209 -20.601  0.00  0.00    -0.139 S 
ATOM     13  CE  UNL     1      33.112 -20.424 -20.221  0.00  0.00    +0.069 C 
ENDBRANCH  11  12
ENDBRANCH  10  11
ENDBRANCH   1  10
TORSDOF 6
ENDMDL
MODEL 8
REMARK VINA RESULT:      -5.1     12.669     13.095
REMARK  Name = 439750
REMARK  6 active torsions:
REMARK  status: ('A' for Active; 'I' for Inactive)
REMARK    1  A    between atoms: CA_1  and  N_3
REMARK    2  A    between atoms: CA_1  and  C_7
REMARK    3  A    between atoms: CA_1  and  CB_10
REMARK    4  A    between atoms: C_7  and  O_8
REMARK    5  A    between atoms: CB_10  and  CG_11
REMARK    6  A    between atoms: CG_11  and  SD_12
REMARK                            x       y       z     vdW  Elec       q    Type
REMARK                         _______ _______ _______ _____ _____    ______ ____
ROOT
ATOM      1  CA  UNL     1      34.816 -17.221 -23.446  0.00  0.00    +0.172 C 
ENDROOT
BRANCH   1   3
ATOM      2  O   UNL     1      35.185 -18.412 -20.790  0.00  0.00    -0.265 OA
ATOM      3  N   UNL     1      36.009 -17.813 -22.896  0.00  0.00    -0.289 N 
ATOM      4  C   ACE A   0      36.077 -18.349 -21.626  0.00  0.00    +0.300 C 
ATOM      5  H   UNL     1      36.818 -17.836 -23.456  0.00  0.00    +0.150 HD
ENDBRANCH   1   3
BRANCH   1   7
ATOM      6  OXT UNL     1      34.087 -18.831 -25.100  0.00  0.00    -0.248 OA
ATOM      7  C   UNL     1      34.523 -17.711 -24.855  0.00  0.00    +0.332 C 
BRANCH   7   8
ATOM      8  O   UNL     1      34.836 -16.827 -25.833  0.00  0.00    -0.479 OA
ATOM      9  H   UNL     1      34.862 -15.910 -25.645  0.00  0.00    +0.295 HD
ENDBRANCH   7   8
ENDBRANCH   1   7
BRANCH   1  10
ATOM     10  CB  UNL     1      34.855 -15.688 -23.363  0.00  0.00    +0.043 C 
BRANCH  10  11
ATOM     11  CG  UNL     1      33.482 -15.053 -23.128  0.00  0.00    +0.060 C 
BRANCH  11  12
ATOM     12  SD  UNL     1      32.936 -15.344 -21.420  0.00  0.00    -0.139 S 
ATOM     13  CE  UNL     1      34.486 -14.947 -20.579  0.00  0.00    +0.069 C 
ENDBRANCH  11  12
ENDBRANCH  10  11
ENDBRANCH   1  10
TORSDOF 6
ENDMDL
MODEL 9
REMARK VINA RESULT:      -5.1     13.016     13.467
REMARK  Name = 439750
REMARK  6 active torsions:
REMARK  status: ('A' for Active; 'I' for Inactive)
REMARK    1  A    between atoms: CA_1  and  N_3
REMARK    2  A    between atoms: CA_1  and  C_7
REMARK    3  A    between atoms: CA_1  and  CB_10
REMARK    4  A    between atoms: C_7  and  O_8
REMARK    5  A    between atoms: CB_10  and  CG_11
REMARK    6  A    between atoms: CG_11  and  SD_12
REMARK                            x       y       z     vdW  Elec       q    Type
REMARK                         _______ _______ _______ _____ _____    ______ ____
ROOT
ATOM      1  CA  UNL     1      34.904 -17.223 -23.427  0.00  0.00    +0.172 C 
ENDROOT
BRANCH   1   3
ATOM      2  O   UNL     1      35.307 -18.412 -20.775  0.00  0.00    -0.265 OA
ATOM      3  N   UNL     1      36.078 -17.886 -22.920  0.00  0.00    -0.289 N 
ATOM      4  C   ACE A   0      36.165 -18.414 -21.648  0.00  0.00    +0.300 C 
ATOM      5  H   UNL     1      36.859 -17.967 -23.513  0.00  0.00    +0.150 HD
ENDBRANCH   1   3
BRANCH   1   7
ATOM      6  OXT UNL     1      34.751 -16.837 -25.812  0.00  0.00    -0.248 OA
ATOM      7  C   UNL     1      34.600 -17.604 -24.867  0.00  0.00    +0.332 C 
BRANCH   7   8
ATOM      8  O   UNL     1      34.092 -18.851 -25.022  0.00  0.00    -0.479 OA
ATOM      9  H   UNL     1      34.649 -19.554 -25.288  0.00  0.00    +0.295 HD
ENDBRANCH   7   8
ENDBRANCH   1   7
BRANCH   1  10
ATOM     10  CB  UNL     1      34.987 -15.701 -23.236  0.00  0.00    +0.043 C 
BRANCH  10  11
ATOM     11  CG  UNL     1      34.243 -15.199 -21.996  0.00  0.00    +0.060 C 
BRANCH  11  12
ATOM     12  SD  UNL     1      32.819 -14.181 -22.484  0.00  0.00    -0.139 S 
ATOM     13  CE  UNL     1      33.355 -13.768 -24.160  0.00  0.00    +0.069 C 
ENDBRANCH  11  12
ENDBRANCH  10  11
ENDBRANCH   1  10
TORSDOF 6
ENDMDL
