MODEL 1
REMARK VINA RESULT:     -10.0      0.000      0.000
REMARK  Name = 611002
REMARK  3 active torsions:
REMARK  status: ('A' for Active; 'I' for Inactive)
REMARK    1  A    between atoms: N_1  and  C_6
REMARK    2  A    between atoms: N_1  and  C_13
REMARK    3  A    between atoms: C_18  and  O_19
REMARK                            x       y       z     vdW  Elec       q    Type
REMARK                         _______ _______ _______ _____ _____    ______ ____
ROOT
ATOM      1  N   UNL     1      35.656 -18.403 -21.441  0.00  0.00    -0.303 N 
ATOM      2  H   UNL     1      36.638 -18.462 -21.478  0.00  0.00    +0.153 HD
ENDROOT
BRANCH   1   6
ATOM      3  O   UNL     1      35.028 -16.010 -19.978  0.00  0.00    -0.208 OA
ATOM      4  N   UNL     1      34.244 -15.133 -21.991  0.00  0.00    -0.332 NA
ATOM      5  C   UNL     1      34.721 -17.023 -23.245  0.00  0.00    +0.056 C 
ATOM      6  C   UNL     1      35.101 -17.305 -22.000  0.00  0.00    +0.147 C 
ATOM      7  C   UNL     1      34.196 -15.656 -23.171  0.00  0.00    +0.146 C 
ATOM      8  C   UNL     1      34.802 -16.098 -21.176  0.00  0.00    +0.219 C 
ATOM      9  C   UNL     1      34.740 -17.746 -24.479  0.00  0.00    +0.005 C 
ATOM     10  C   UNL     1      33.688 -15.056 -24.423  0.00  0.00    +0.033 C 
ATOM     11  C   UNL     1      34.264 -17.147 -25.583  0.00  0.00    +0.000 C 
ATOM     12  C   UNL     1      33.737 -15.793 -25.545  0.00  0.00    +0.003 C 
ENDBRANCH   1   6
BRANCH   1  13
ATOM     13  C   UNL     1      34.992 -19.472 -20.813  0.00  0.00    +0.049 C 
ATOM     14  C   UNL     1      33.596 -19.504 -20.774  0.00  0.00    +0.018 C 
ATOM     15  C   UNL     1      35.726 -20.504 -20.223  0.00  0.00    +0.018 C 
ATOM     16  C   UNL     1      32.937 -20.564 -20.150  0.00  0.00    +0.038 C 
ATOM     17  C   UNL     1      35.066 -21.564 -19.599  0.00  0.00    +0.038 C 
ATOM     18  C   UNL     1      33.673 -21.593 -19.562  0.00  0.00    +0.134 C 
BRANCH  18  19
ATOM     19  O   UNL     1      33.030 -22.628 -18.954  0.00  0.00    -0.506 OA
ATOM     20  H   UNL     1      32.574 -22.487 -18.147  0.00  0.00    +0.292 HD
ENDBRANCH  18  19
ENDBRANCH   1  13
TORSDOF 3
ENDMDL
MODEL 2
REMARK VINA RESULT:      -9.9      1.857      2.434
REMARK  Name = 611002
REMARK  3 active torsions:
REMARK  status: ('A' for Active; 'I' for Inactive)
REMARK    1  A    between atoms: N_1  and  C_6
REMARK    2  A    between atoms: N_1  and  C_13
REMARK    3  A    between atoms: C_18  and  O_19
REMARK                            x       y       z     vdW  Elec       q    Type
REMARK                         _______ _______ _______ _____ _____    ______ ____
ROOT
ATOM      1  N   UNL     1      35.552 -18.693 -22.112  0.00  0.00    -0.303 N 
ATOM      2  H   UNL     1      36.522 -18.603 -21.965  0.00  0.00    +0.153 HD
ENDROOT
BRANCH   1   6
ATOM      3  O   UNL     1      34.958 -19.740 -24.721  0.00  0.00    -0.208 OA
ATOM      4  N   UNL     1      34.220 -17.600 -25.276  0.00  0.00    -0.332 NA
ATOM      5  C   UNL     1      34.668 -16.676 -23.198  0.00  0.00    +0.056 C 
ATOM      6  C   UNL     1      35.028 -17.956 -23.114  0.00  0.00    +0.147 C 
ATOM      7  C   UNL     1      34.173 -16.520 -24.569  0.00  0.00    +0.146 C 
ATOM      8  C   UNL     1      34.746 -18.569 -24.445  0.00  0.00    +0.219 C 
ATOM      9  C   UNL     1      34.685 -15.577 -22.284  0.00  0.00    +0.005 C 
ATOM     10  C   UNL     1      33.693 -15.180 -24.968  0.00  0.00    +0.033 C 
ATOM     11  C   UNL     1      34.235 -14.383 -22.705  0.00  0.00    +0.000 C 
ATOM     12  C   UNL     1      33.738 -14.193 -24.058  0.00  0.00    +0.003 C 
ENDBRANCH   1   6
BRANCH   1  13
ATOM     13  C   UNL     1      34.873 -19.576 -21.253  0.00  0.00    +0.049 C 
ATOM     14  C   UNL     1      33.483 -19.509 -21.136  0.00  0.00    +0.018 C 
ATOM     15  C   UNL     1      35.586 -20.522 -20.512  0.00  0.00    +0.018 C 
ATOM     16  C   UNL     1      32.809 -20.385 -20.283  0.00  0.00    +0.038 C 
ATOM     17  C   UNL     1      34.911 -21.397 -19.659  0.00  0.00    +0.038 C 
ATOM     18  C   UNL     1      33.524 -21.328 -19.545  0.00  0.00    +0.134 C 
BRANCH  18  19
ATOM     19  O   UNL     1      32.865 -22.182 -18.714  0.00  0.00    -0.506 OA
ATOM     20  H   UNL     1      32.232 -22.778 -19.062  0.00  0.00    +0.292 HD
ENDBRANCH  18  19
ENDBRANCH   1  13
TORSDOF 3
ENDMDL
MODEL 3
REMARK VINA RESULT:      -9.9      1.846      2.673
REMARK  Name = 611002
REMARK  3 active torsions:
REMARK  status: ('A' for Active; 'I' for Inactive)
REMARK    1  A    between atoms: N_1  and  C_6
REMARK    2  A    between atoms: N_1  and  C_13
REMARK    3  A    between atoms: C_18  and  O_19
REMARK                            x       y       z     vdW  Elec       q    Type
REMARK                         _______ _______ _______ _____ _____    ______ ____
ROOT
ATOM      1  N   UNL     1      35.517 -18.564 -22.078  0.00  0.00    -0.303 N 
ATOM      2  H   UNL     1      36.467 -18.397 -21.878  0.00  0.00    +0.153 HD
ENDROOT
BRANCH   1   6
ATOM      3  O   UNL     1      34.983 -19.747 -24.641  0.00  0.00    -0.208 OA
ATOM      4  N   UNL     1      34.221 -17.650 -25.313  0.00  0.00    -0.332 NA
ATOM      5  C   UNL     1      34.619 -16.617 -23.277  0.00  0.00    +0.056 C 
ATOM      6  C   UNL     1      34.998 -17.885 -23.124  0.00  0.00    +0.147 C 
ATOM      7  C   UNL     1      34.145 -16.537 -24.661  0.00  0.00    +0.146 C 
ATOM      8  C   UNL     1      34.749 -18.568 -24.427  0.00  0.00    +0.219 C 
ATOM      9  C   UNL     1      34.604 -15.474 -22.418  0.00  0.00    +0.005 C 
ATOM     10  C   UNL     1      33.651 -15.226 -25.134  0.00  0.00    +0.033 C 
ATOM     11  C   UNL     1      34.143 -14.310 -22.905  0.00  0.00    +0.000 C 
ATOM     12  C   UNL     1      33.666 -14.195 -24.273  0.00  0.00    +0.003 C 
ENDBRANCH   1   6
BRANCH   1  13
ATOM     13  C   UNL     1      34.857 -19.481 -21.241  0.00  0.00    +0.049 C 
ATOM     14  C   UNL     1      35.588 -20.451 -20.549  0.00  0.00    +0.018 C 
ATOM     15  C   UNL     1      33.468 -19.429 -21.099  0.00  0.00    +0.018 C 
ATOM     16  C   UNL     1      34.933 -21.361 -19.719  0.00  0.00    +0.038 C 
ATOM     17  C   UNL     1      32.814 -20.341 -20.270  0.00  0.00    +0.038 C 
ATOM     18  C   UNL     1      33.546 -21.306 -19.581  0.00  0.00    +0.134 C 
BRANCH  18  19
ATOM     19  O   UNL     1      32.908 -22.195 -18.770  0.00  0.00    -0.506 OA
ATOM     20  H   UNL     1      32.768 -23.075 -19.059  0.00  0.00    +0.292 HD
ENDBRANCH  18  19
ENDBRANCH   1  13
TORSDOF 3
ENDMDL
MODEL 4
REMARK VINA RESULT:      -9.6      2.139      3.216
REMARK  Name = 611002
REMARK  3 active torsions:
REMARK  status: ('A' for Active; 'I' for Inactive)
REMARK    1  A    between atoms: N_1  and  C_6
REMARK    2  A    between atoms: N_1  and  C_13
REMARK    3  A    between atoms: C_18  and  O_19
REMARK                            x       y       z     vdW  Elec       q    Type
REMARK                         _______ _______ _______ _____ _____    ______ ____
ROOT
ATOM      1  N   UNL     1      35.770 -17.517 -22.987  0.00  0.00    -0.303 N 
ATOM      2  H   UNL     1      36.612 -17.513 -23.498  0.00  0.00    +0.153 HD
ENDROOT
BRANCH   1   6
ATOM      3  O   UNL     1      34.942 -16.874 -25.663  0.00  0.00    -0.208 OA
ATOM      4  N   UNL     1      33.594 -15.224 -24.717  0.00  0.00    -0.332 NA
ATOM      5  C   UNL     1      34.207 -15.679 -22.529  0.00  0.00    +0.056 C 
ATOM      6  C   UNL     1      34.886 -16.540 -23.285  0.00  0.00    +0.147 C 
ATOM      7  C   UNL     1      33.422 -14.889 -23.482  0.00  0.00    +0.146 C 
ATOM      8  C   UNL     1      34.504 -16.262 -24.700  0.00  0.00    +0.219 C 
ATOM      9  C   UNL     1      34.132 -15.436 -21.121  0.00  0.00    +0.005 C 
ATOM     10  C   UNL     1      32.550 -13.830 -22.929  0.00  0.00    +0.033 C 
ATOM     11  C   UNL     1      33.321 -14.459 -20.680  0.00  0.00    +0.000 C 
ATOM     12  C   UNL     1      32.530 -13.657 -21.597  0.00  0.00    +0.003 C 
ENDBRANCH   1   6
BRANCH   1  13
ATOM     13  C   UNL     1      35.626 -18.540 -22.032  0.00  0.00    +0.049 C 
ATOM     14  C   UNL     1      36.734 -18.980 -21.305  0.00  0.00    +0.018 C 
ATOM     15  C   UNL     1      34.376 -19.121 -21.809  0.00  0.00    +0.018 C 
ATOM     16  C   UNL     1      36.592 -19.995 -20.358  0.00  0.00    +0.038 C 
ATOM     17  C   UNL     1      34.234 -20.136 -20.863  0.00  0.00    +0.038 C 
ATOM     18  C   UNL     1      35.342 -20.573 -20.138  0.00  0.00    +0.134 C 
BRANCH  18  19
ATOM     19  O   UNL     1      35.204 -21.562 -19.213  0.00  0.00    -0.506 OA
ATOM     20  H   UNL     1      34.824 -22.383 -19.459  0.00  0.00    +0.292 HD
ENDBRANCH  18  19
ENDBRANCH   1  13
TORSDOF 3
ENDMDL
MODEL 5
REMARK VINA RESULT:      -9.4      4.259      8.358
REMARK  Name = 611002
REMARK  3 active torsions:
REMARK  status: ('A' for Active; 'I' for Inactive)
REMARK    1  A    between atoms: N_1  and  C_6
REMARK    2  A    between atoms: N_1  and  C_13
REMARK    3  A    between atoms: C_18  and  O_19
REMARK                            x       y       z     vdW  Elec       q    Type
REMARK                         _______ _______ _______ _____ _____    ______ ____
ROOT
ATOM      1  N   UNL     1      33.590 -23.177 -18.440  0.00  0.00    -0.303 N 
ATOM      2  H   UNL     1      33.475 -24.024 -18.928  0.00  0.00    +0.153 HD
ENDROOT
BRANCH   1   6
ATOM      3  O   UNL     1      35.688 -23.461 -16.497  0.00  0.00    -0.208 OA
ATOM      4  N   UNL     1      34.022 -23.388 -14.869  0.00  0.00    -0.332 NA
ATOM      5  C   UNL     1      32.271 -23.154 -16.368  0.00  0.00    +0.056 C 
ATOM      6  C   UNL     1      33.377 -23.221 -17.106  0.00  0.00    +0.147 C 
ATOM      7  C   UNL     1      32.742 -23.264 -14.985  0.00  0.00    +0.146 C 
ATOM      8  C   UNL     1      34.518 -23.371 -16.157  0.00  0.00    +0.219 C 
ATOM      9  C   UNL     1      30.880 -23.011 -16.671  0.00  0.00    +0.005 C 
ATOM     10  C   UNL     1      31.721 -23.221 -13.916  0.00  0.00    +0.033 C 
ATOM     11  C   UNL     1      30.001 -22.979 -15.656  0.00  0.00    +0.000 C 
ATOM     12  C   UNL     1      30.434 -23.086 -14.273  0.00  0.00    +0.003 C 
ENDBRANCH   1   6
BRANCH   1  13
ATOM     13  C   UNL     1      33.957 -22.059 -19.211  0.00  0.00    +0.049 C 
ATOM     14  C   UNL     1      32.979 -21.184 -19.688  0.00  0.00    +0.018 C 
ATOM     15  C   UNL     1      35.302 -21.822 -19.506  0.00  0.00    +0.018 C 
ATOM     16  C   UNL     1      33.343 -20.076 -20.453  0.00  0.00    +0.038 C 
ATOM     17  C   UNL     1      35.666 -20.714 -20.273  0.00  0.00    +0.038 C 
ATOM     18  C   UNL     1      34.687 -19.842 -20.746  0.00  0.00    +0.134 C 
BRANCH  18  19
ATOM     19  O   UNL     1      35.042 -18.761 -21.493  0.00  0.00    -0.506 OA
ATOM     20  H   UNL     1      35.913 -18.690 -21.830  0.00  0.00    +0.292 HD
ENDBRANCH  18  19
ENDBRANCH   1  13
TORSDOF 3
ENDMDL
MODEL 6
REMARK VINA RESULT:      -9.2      2.121      5.929
REMARK  Name = 611002
REMARK  3 active torsions:
REMARK  status: ('A' for Active; 'I' for Inactive)
REMARK    1  A    between atoms: N_1  and  C_6
REMARK    2  A    between atoms: N_1  and  C_13
REMARK    3  A    between atoms: C_18  and  O_19
REMARK                            x       y       z     vdW  Elec       q    Type
REMARK                         _______ _______ _______ _____ _____    ______ ____
ROOT
ATOM      1  N   UNL     1      35.720 -17.460 -21.729  0.00  0.00    -0.303 N 
ATOM      2  H   UNL     1      36.193 -16.752 -21.234  0.00  0.00    +0.153 HD
ENDROOT
BRANCH   1   6
ATOM      3  O   UNL     1      38.109 -18.977 -21.230  0.00  0.00    -0.208 OA
ATOM      4  N   UNL     1      36.725 -20.637 -20.358  0.00  0.00    -0.332 NA
ATOM      5  C   UNL     1      34.751 -19.480 -20.724  0.00  0.00    +0.056 C 
ATOM      6  C   UNL     1      35.726 -18.688 -21.167  0.00  0.00    +0.147 C 
ATOM      7  C   UNL     1      35.440 -20.677 -20.233  0.00  0.00    +0.146 C 
ATOM      8  C   UNL     1      37.007 -19.417 -20.939  0.00  0.00    +0.219 C 
ATOM      9  C   UNL     1      33.327 -19.364 -20.659  0.00  0.00    +0.005 C 
ATOM     10  C   UNL     1      34.604 -21.758 -19.669  0.00  0.00    +0.033 C 
ATOM     11  C   UNL     1      32.621 -20.380 -20.136  0.00  0.00    +0.000 C 
ATOM     12  C   UNL     1      33.273 -21.581 -19.641  0.00  0.00    +0.003 C 
ENDBRANCH   1   6
BRANCH   1  13
ATOM     13  C   UNL     1      35.117 -17.075 -22.940  0.00  0.00    +0.049 C 
ATOM     14  C   UNL     1      34.563 -15.800 -23.073  0.00  0.00    +0.018 C 
ATOM     15  C   UNL     1      35.068 -17.968 -24.014  0.00  0.00    +0.018 C 
ATOM     16  C   UNL     1      33.964 -15.418 -24.274  0.00  0.00    +0.038 C 
ATOM     17  C   UNL     1      34.469 -17.586 -25.214  0.00  0.00    +0.038 C 
ATOM     18  C   UNL     1      33.917 -16.312 -25.344  0.00  0.00    +0.134 C 
BRANCH  18  19
ATOM     19  O   UNL     1      33.333 -15.939 -26.516  0.00  0.00    -0.506 OA
ATOM     20  H   UNL     1      33.388 -15.049 -26.804  0.00  0.00    +0.292 HD
ENDBRANCH  18  19
ENDBRANCH   1  13
TORSDOF 3
ENDMDL
MODEL 7
REMARK VINA RESULT:      -9.2      2.291      5.855
REMARK  Name = 611002
REMARK  3 active torsions:
REMARK  status: ('A' for Active; 'I' for Inactive)
REMARK    1  A    between atoms: N_1  and  C_6
REMARK    2  A    between atoms: N_1  and  C_13
REMARK    3  A    between atoms: C_18  and  O_19
REMARK                            x       y       z     vdW  Elec       q    Type
REMARK                         _______ _______ _______ _____ _____    ______ ____
ROOT
ATOM      1  N   UNL     1      35.636 -17.750 -22.289  0.00  0.00    -0.303 N 
ATOM      2  H   UNL     1      36.208 -17.768 -23.090  0.00  0.00    +0.153 HD
ENDROOT
BRANCH   1   6
ATOM      3  O   UNL     1      38.111 -18.907 -21.399  0.00  0.00    -0.208 OA
ATOM      4  N   UNL     1      36.823 -20.460 -20.232  0.00  0.00    -0.332 NA
ATOM      5  C   UNL     1      34.783 -19.588 -20.901  0.00  0.00    +0.056 C 
ATOM      6  C   UNL     1      35.712 -18.825 -21.475  0.00  0.00    +0.147 C 
ATOM      7  C   UNL     1      35.541 -20.587 -20.142  0.00  0.00    +0.146 C 
ATOM      8  C   UNL     1      37.035 -19.371 -21.055  0.00  0.00    +0.219 C 
ATOM      9  C   UNL     1      33.353 -19.588 -20.908  0.00  0.00    +0.005 C 
ATOM     10  C   UNL     1      34.768 -21.593 -19.384  0.00  0.00    +0.033 C 
ATOM     11  C   UNL     1      32.706 -20.529 -20.200  0.00  0.00    +0.000 C 
ATOM     12  C   UNL     1      33.427 -21.534 -19.436  0.00  0.00    +0.003 C 
ENDBRANCH   1   6
BRANCH   1  13
ATOM     13  C   UNL     1      34.832 -16.607 -22.125  0.00  0.00    +0.049 C 
ATOM     14  C   UNL     1      34.198 -16.031 -23.228  0.00  0.00    +0.018 C 
ATOM     15  C   UNL     1      34.668 -16.041 -20.858  0.00  0.00    +0.018 C 
ATOM     16  C   UNL     1      33.402 -14.897 -23.066  0.00  0.00    +0.038 C 
ATOM     17  C   UNL     1      33.872 -14.907 -20.696  0.00  0.00    +0.038 C 
ATOM     18  C   UNL     1      33.240 -14.335 -21.799  0.00  0.00    +0.134 C 
BRANCH  18  19
ATOM     19  O   UNL     1      32.462 -13.229 -21.641  0.00  0.00    -0.506 OA
ATOM     20  H   UNL     1      31.605 -13.308 -21.271  0.00  0.00    +0.292 HD
ENDBRANCH  18  19
ENDBRANCH   1  13
TORSDOF 3
ENDMDL
MODEL 8
REMARK VINA RESULT:      -8.9      4.483      6.535
REMARK  Name = 611002
REMARK  3 active torsions:
REMARK  status: ('A' for Active; 'I' for Inactive)
REMARK    1  A    between atoms: N_1  and  C_6
REMARK    2  A    between atoms: N_1  and  C_13
REMARK    3  A    between atoms: C_18  and  O_19
REMARK                            x       y       z     vdW  Elec       q    Type
REMARK                         _______ _______ _______ _____ _____    ______ ____
ROOT
ATOM      1  N   UNL     1      32.063 -12.885 -22.859  0.00  0.00    -0.303 N 
ATOM      2  H   UNL     1      31.306 -13.169 -23.421  0.00  0.00    +0.153 HD
ENDROOT
BRANCH   1   6
ATOM      3  O   UNL     1      30.441 -11.264 -21.128  0.00  0.00    -0.208 OA
ATOM      4  N   UNL     1      31.730  -9.450 -21.824  0.00  0.00    -0.332 NA
ATOM      5  C   UNL     1      33.085 -10.685 -23.242  0.00  0.00    +0.056 C 
ATOM      6  C   UNL     1      32.228 -11.553 -22.707  0.00  0.00    +0.147 C 
ATOM      7  C   UNL     1      32.721  -9.394 -22.650  0.00  0.00    +0.146 C 
ATOM      8  C   UNL     1      31.346 -10.776 -21.789  0.00  0.00    +0.219 C 
ATOM      9  C   UNL     1      34.161 -10.797 -24.177  0.00  0.00    +0.005 C 
ATOM     10  C   UNL     1      33.510  -8.213 -23.060  0.00  0.00    +0.033 C 
ATOM     11  C   UNL     1      34.841  -9.688 -24.510  0.00  0.00    +0.000 C 
ATOM     12  C   UNL     1      34.506  -8.392 -23.943  0.00  0.00    +0.003 C 
ENDBRANCH   1   6
BRANCH   1  13
ATOM     13  C   UNL     1      32.849 -13.914 -22.308  0.00  0.00    +0.049 C 
ATOM     14  C   UNL     1      32.663 -14.301 -20.978  0.00  0.00    +0.018 C 
ATOM     15  C   UNL     1      33.819 -14.550 -23.086  0.00  0.00    +0.018 C 
ATOM     16  C   UNL     1      33.442 -15.321 -20.431  0.00  0.00    +0.038 C 
ATOM     17  C   UNL     1      34.598 -15.570 -22.538  0.00  0.00    +0.038 C 
ATOM     18  C   UNL     1      34.410 -15.954 -21.211  0.00  0.00    +0.134 C 
BRANCH  18  19
ATOM     19  O   UNL     1      35.169 -16.950 -20.677  0.00  0.00    -0.506 OA
ATOM     20  H   UNL     1      34.908 -17.360 -19.876  0.00  0.00    +0.292 HD
ENDBRANCH  18  19
ENDBRANCH   1  13
TORSDOF 3
ENDMDL
MODEL 9
REMARK VINA RESULT:      -8.9      4.422      8.575
REMARK  Name = 611002
REMARK  3 active torsions:
REMARK  status: ('A' for Active; 'I' for Inactive)
REMARK    1  A    between atoms: N_1  and  C_6
REMARK    2  A    between atoms: N_1  and  C_13
REMARK    3  A    between atoms: C_18  and  O_19
REMARK                            x       y       z     vdW  Elec       q    Type
REMARK                         _______ _______ _______ _____ _____    ______ ____
ROOT
ATOM      1  N   UNL     1      32.875 -23.009 -18.427  0.00  0.00    -0.303 N 
ATOM      2  H   UNL     1      32.454 -23.701 -18.986  0.00  0.00    +0.153 HD
ENDROOT
BRANCH   1   6
ATOM      3  O   UNL     1      30.361 -22.401 -17.175  0.00  0.00    -0.208 OA
ATOM      4  N   UNL     1      31.379 -22.943 -15.150  0.00  0.00    -0.332 NA
ATOM      5  C   UNL     1      33.440 -23.455 -16.079  0.00  0.00    +0.056 C 
ATOM      6  C   UNL     1      32.658 -23.100 -17.097  0.00  0.00    +0.147 C 
ATOM      7  C   UNL     1      32.583 -23.336 -14.896  0.00  0.00    +0.146 C 
ATOM      8  C   UNL     1      31.324 -22.766 -16.518  0.00  0.00    +0.219 C 
ATOM      9  C   UNL     1      34.802 -23.878 -15.972  0.00  0.00    +0.005 C 
ATOM     10  C   UNL     1      33.185 -23.671 -13.587  0.00  0.00    +0.033 C 
ATOM     11  C   UNL     1      35.291 -24.168 -14.755  0.00  0.00    +0.000 C 
ATOM     12  C   UNL     1      34.469 -24.060 -13.561  0.00  0.00    +0.003 C 
ENDBRANCH   1   6
BRANCH   1  13
ATOM     13  C   UNL     1      33.633 -22.038 -19.107  0.00  0.00    +0.049 C 
ATOM     14  C   UNL     1      32.994 -21.011 -19.805  0.00  0.00    +0.018 C 
ATOM     15  C   UNL     1      35.029 -22.099 -19.087  0.00  0.00    +0.018 C 
ATOM     16  C   UNL     1      33.747 -20.049 -20.479  0.00  0.00    +0.038 C 
ATOM     17  C   UNL     1      35.781 -21.137 -19.762  0.00  0.00    +0.038 C 
ATOM     18  C   UNL     1      35.140 -20.113 -20.458  0.00  0.00    +0.134 C 
BRANCH  18  19
ATOM     19  O   UNL     1      35.873 -19.173 -21.115  0.00  0.00    -0.506 OA
ATOM     20  H   UNL     1      36.443 -19.428 -21.814  0.00  0.00    +0.292 HD
ENDBRANCH  18  19
ENDBRANCH   1  13
TORSDOF 3
ENDMDL
