MODEL 1
REMARK VINA RESULT:      -7.6      0.000      0.000
REMARK  Name = 979
REMARK  5 active torsions:
REMARK  status: ('A' for Active; 'I' for Inactive)
REMARK    1  A    between atoms: C_1  and  C_9
REMARK    2  A    between atoms: C_6  and  O_7
REMARK    3  A    between atoms: C_9  and  C_11
REMARK    4  A    between atoms: C_11  and  C_13
REMARK    5  A    between atoms: C_13  and  O_14
REMARK                            x       y       z     vdW  Elec       q    Type
REMARK                         _______ _______ _______ _____ _____    ______ ____
ROOT
ATOM      1  C   UNL     1      34.957 -19.568 -21.035  0.00  0.00    -0.014 C 
ATOM      2  C   UNL     1      35.663 -20.531 -20.315  0.00  0.00    -0.001 C 
ATOM      3  C   UNL     1      33.562 -19.553 -20.996  0.00  0.00    -0.001 C 
ATOM      4  C   UNL     1      34.976 -21.479 -19.557  0.00  0.00    +0.036 C 
ATOM      5  C   UNL     1      32.874 -20.500 -20.239  0.00  0.00    +0.036 C 
ATOM      6  C   UNL     1      33.581 -21.465 -19.520  0.00  0.00    +0.134 C 
ENDROOT
BRANCH   6   7
ATOM      7  O   UNL     1      32.911 -22.390 -18.780  0.00  0.00    -0.506 OA
ATOM      8  H   UNL     1      32.666 -22.194 -17.897  0.00  0.00    +0.292 HD
ENDBRANCH   6   7
BRANCH   1   9
ATOM      9  C   UNL     1      35.691 -18.555 -21.845  0.00  0.00    +0.102 C 
BRANCH   9  11
ATOM     10  O   UNL     1      35.216 -16.658 -20.375  0.00  0.00    -0.284 OA
ATOM     11  C   UNL     1      35.241 -17.150 -21.494  0.00  0.00    +0.252 C 
BRANCH  11  13
ATOM     12  O   UNL     1      33.707 -15.707 -22.604  0.00  0.00    -0.242 OA
ATOM     13  C   UNL     1      34.777 -16.281 -22.628  0.00  0.00    +0.374 C 
BRANCH  13  14
ATOM     14  O   UNL     1      35.724 -16.217 -23.573  0.00  0.00    -0.475 OA
ATOM     15  H   UNL     1      35.686 -15.550 -24.230  0.00  0.00    +0.295 HD
ENDBRANCH  13  14
ENDBRANCH  11  13
ENDBRANCH   9  11
ENDBRANCH   1   9
TORSDOF 5
ENDMDL
MODEL 2
REMARK VINA RESULT:      -7.6      0.022      1.340
REMARK  Name = 979
REMARK  5 active torsions:
REMARK  status: ('A' for Active; 'I' for Inactive)
REMARK    1  A    between atoms: C_1  and  C_9
REMARK    2  A    between atoms: C_6  and  O_7
REMARK    3  A    between atoms: C_9  and  C_11
REMARK    4  A    between atoms: C_11  and  C_13
REMARK    5  A    between atoms: C_13  and  O_14
REMARK                            x       y       z     vdW  Elec       q    Type
REMARK                         _______ _______ _______ _____ _____    ______ ____
ROOT
ATOM      1  C   UNL     1      34.943 -19.563 -21.053  0.00  0.00    -0.014 C 
ATOM      2  C   UNL     1      33.549 -19.546 -21.014  0.00  0.00    -0.001 C 
ATOM      3  C   UNL     1      35.649 -20.529 -20.336  0.00  0.00    -0.001 C 
ATOM      4  C   UNL     1      32.861 -20.494 -20.256  0.00  0.00    +0.036 C 
ATOM      5  C   UNL     1      34.962 -21.477 -19.580  0.00  0.00    +0.036 C 
ATOM      6  C   UNL     1      33.567 -21.460 -19.539  0.00  0.00    +0.134 C 
ENDROOT
BRANCH   6   7
ATOM      7  O   UNL     1      32.895 -22.386 -18.801  0.00  0.00    -0.506 OA
ATOM      8  H   UNL     1      32.539 -22.150 -17.967  0.00  0.00    +0.292 HD
ENDBRANCH   6   7
BRANCH   1   9
ATOM      9  C   UNL     1      35.678 -18.549 -21.861  0.00  0.00    +0.102 C 
BRANCH   9  11
ATOM     10  O   UNL     1      35.226 -16.657 -20.378  0.00  0.00    -0.284 OA
ATOM     11  C   UNL     1      35.239 -17.143 -21.500  0.00  0.00    +0.252 C 
BRANCH  11  13
ATOM     12  O   UNL     1      33.696 -15.699 -22.596  0.00  0.00    -0.242 OA
ATOM     13  C   UNL     1      34.769 -16.267 -22.626  0.00  0.00    +0.374 C 
BRANCH  13  14
ATOM     14  O   UNL     1      35.716 -16.189 -23.570  0.00  0.00    -0.475 OA
ATOM     15  H   UNL     1      36.614 -16.086 -23.325  0.00  0.00    +0.295 HD
ENDBRANCH  13  14
ENDBRANCH  11  13
ENDBRANCH   9  11
ENDBRANCH   1   9
TORSDOF 5
ENDMDL
MODEL 3
REMARK VINA RESULT:      -7.5      1.420      2.293
REMARK  Name = 979
REMARK  5 active torsions:
REMARK  status: ('A' for Active; 'I' for Inactive)
REMARK    1  A    between atoms: C_1  and  C_9
REMARK    2  A    between atoms: C_6  and  O_7
REMARK    3  A    between atoms: C_9  and  C_11
REMARK    4  A    between atoms: C_11  and  C_13
REMARK    5  A    between atoms: C_13  and  O_14
REMARK                            x       y       z     vdW  Elec       q    Type
REMARK                         _______ _______ _______ _____ _____    ______ ____
ROOT
ATOM      1  C   UNL     1      34.903 -19.395 -21.266  0.00  0.00    -0.014 C 
ATOM      2  C   UNL     1      33.515 -19.317 -21.153  0.00  0.00    -0.001 C 
ATOM      3  C   UNL     1      35.603 -20.385 -20.577  0.00  0.00    -0.001 C 
ATOM      4  C   UNL     1      32.828 -20.228 -20.350  0.00  0.00    +0.036 C 
ATOM      5  C   UNL     1      34.917 -21.296 -19.774  0.00  0.00    +0.036 C 
ATOM      6  C   UNL     1      33.529 -21.217 -19.660  0.00  0.00    +0.134 C 
ENDROOT
BRANCH   6   7
ATOM      7  O   UNL     1      32.858 -22.106 -18.878  0.00  0.00    -0.506 OA
ATOM      8  H   UNL     1      33.333 -22.685 -18.315  0.00  0.00    +0.292 HD
ENDBRANCH   6   7
BRANCH   1   9
ATOM      9  C   UNL     1      35.637 -18.422 -22.124  0.00  0.00    +0.102 C 
BRANCH   9  11
ATOM     10  O   UNL     1      34.972 -19.587 -24.169  0.00  0.00    -0.284 OA
ATOM     11  C   UNL     1      35.211 -18.546 -23.574  0.00  0.00    +0.252 C 
BRANCH  11  13
ATOM     12  O   UNL     1      34.512 -17.229 -25.429  0.00  0.00    -0.242 OA
ATOM     13  C   UNL     1      35.075 -17.270 -24.354  0.00  0.00    +0.374 C 
BRANCH  13  14
ATOM     14  O   UNL     1      35.601 -16.252 -23.661  0.00  0.00    -0.475 OA
ATOM     15  H   UNL     1      36.431 -15.895 -23.909  0.00  0.00    +0.295 HD
ENDBRANCH  13  14
ENDBRANCH  11  13
ENDBRANCH   9  11
ENDBRANCH   1   9
TORSDOF 5
ENDMDL
MODEL 4
REMARK VINA RESULT:      -7.1      1.531      5.445
REMARK  Name = 979
REMARK  5 active torsions:
REMARK  status: ('A' for Active; 'I' for Inactive)
REMARK    1  A    between atoms: C_1  and  C_9
REMARK    2  A    between atoms: C_6  and  O_7
REMARK    3  A    between atoms: C_9  and  C_11
REMARK    4  A    between atoms: C_11  and  C_13
REMARK    5  A    between atoms: C_13  and  O_14
REMARK                            x       y       z     vdW  Elec       q    Type
REMARK                         _______ _______ _______ _____ _____    ______ ____
ROOT
ATOM      1  C   UNL     1      34.162 -19.077 -21.495  0.00  0.00    -0.014 C 
ATOM      2  C   UNL     1      34.736 -19.381 -22.729  0.00  0.00    -0.001 C 
ATOM      3  C   UNL     1      34.115 -17.754 -21.056  0.00  0.00    -0.001 C 
ATOM      4  C   UNL     1      35.266 -18.364 -23.522  0.00  0.00    +0.036 C 
ATOM      5  C   UNL     1      34.643 -16.736 -21.848  0.00  0.00    +0.036 C 
ATOM      6  C   UNL     1      35.220 -17.041 -23.082  0.00  0.00    +0.134 C 
ENDROOT
BRANCH   6   7
ATOM      7  O   UNL     1      35.735 -16.048 -23.857  0.00  0.00    -0.506 OA
ATOM      8  H   UNL     1      35.522 -16.007 -24.768  0.00  0.00    +0.292 HD
ENDBRANCH   6   7
BRANCH   1   9
ATOM      9  C   UNL     1      33.597 -20.165 -20.646  0.00  0.00    +0.102 C 
BRANCH   9  11
ATOM     10  O   UNL     1      35.848 -20.491 -19.749  0.00  0.00    -0.284 OA
ATOM     11  C   UNL     1      34.689 -20.862 -19.859  0.00  0.00    +0.252 C 
BRANCH  11  13
ATOM     12  O   UNL     1      35.030 -22.642 -18.315  0.00  0.00    -0.242 OA
ATOM     13  C   UNL     1      34.312 -22.133 -19.152  0.00  0.00    +0.374 C 
BRANCH  13  14
ATOM     14  O   UNL     1      33.097 -22.533 -19.548  0.00  0.00    -0.475 OA
ATOM     15  H   UNL     1      32.399 -22.595 -18.926  0.00  0.00    +0.295 HD
ENDBRANCH  13  14
ENDBRANCH  11  13
ENDBRANCH   9  11
ENDBRANCH   1   9
TORSDOF 5
ENDMDL
MODEL 5
REMARK VINA RESULT:      -7.0      1.877      5.379
REMARK  Name = 979
REMARK  5 active torsions:
REMARK  status: ('A' for Active; 'I' for Inactive)
REMARK    1  A    between atoms: C_1  and  C_9
REMARK    2  A    between atoms: C_6  and  O_7
REMARK    3  A    between atoms: C_9  and  C_11
REMARK    4  A    between atoms: C_11  and  C_13
REMARK    5  A    between atoms: C_13  and  O_14
REMARK                            x       y       z     vdW  Elec       q    Type
REMARK                         _______ _______ _______ _____ _____    ______ ____
ROOT
ATOM      1  C   UNL     1      35.006 -18.703 -22.249  0.00  0.00    -0.014 C 
ATOM      2  C   UNL     1      34.805 -19.396 -23.443  0.00  0.00    -0.001 C 
ATOM      3  C   UNL     1      35.084 -17.310 -22.256  0.00  0.00    -0.001 C 
ATOM      4  C   UNL     1      34.684 -18.696 -24.643  0.00  0.00    +0.036 C 
ATOM      5  C   UNL     1      34.963 -16.610 -23.455  0.00  0.00    +0.036 C 
ATOM      6  C   UNL     1      34.763 -17.303 -24.650  0.00  0.00    +0.134 C 
ENDROOT
BRANCH   6   7
ATOM      7  O   UNL     1      34.644 -16.620 -25.821  0.00  0.00    -0.506 OA
ATOM      8  H   UNL     1      33.794 -16.421 -26.162  0.00  0.00    +0.292 HD
ENDBRANCH   6   7
BRANCH   1   9
ATOM      9  C   UNL     1      35.136 -19.451 -20.966  0.00  0.00    +0.102 C 
BRANCH   9  11
ATOM     10  O   UNL     1      32.700 -19.584 -20.789  0.00  0.00    -0.284 OA
ATOM     11  C   UNL     1      33.806 -20.046 -20.547  0.00  0.00    +0.252 C 
BRANCH  11  13
ATOM     12  O   UNL     1      32.843 -21.928 -19.453  0.00  0.00    -0.242 OA
ATOM     13  C   UNL     1      33.851 -21.321 -19.753  0.00  0.00    +0.374 C 
BRANCH  13  14
ATOM     14  O   UNL     1      35.122 -21.665 -19.513  0.00  0.00    -0.475 OA
ATOM     15  H   UNL     1      35.671 -21.951 -20.216  0.00  0.00    +0.295 HD
ENDBRANCH  13  14
ENDBRANCH  11  13
ENDBRANCH   9  11
ENDBRANCH   1   9
TORSDOF 5
ENDMDL
MODEL 6
REMARK VINA RESULT:      -6.9      6.900      8.597
REMARK  Name = 979
REMARK  5 active torsions:
REMARK  status: ('A' for Active; 'I' for Inactive)
REMARK    1  A    between atoms: C_1  and  C_9
REMARK    2  A    between atoms: C_6  and  O_7
REMARK    3  A    between atoms: C_9  and  C_11
REMARK    4  A    between atoms: C_11  and  C_13
REMARK    5  A    between atoms: C_13  and  O_14
REMARK                            x       y       z     vdW  Elec       q    Type
REMARK                         _______ _______ _______ _____ _____    ______ ____
ROOT
ATOM      1  C   UNL     1      31.274 -22.968 -15.387  0.00  0.00    -0.014 C 
ATOM      2  C   UNL     1      32.197 -23.235 -14.376  0.00  0.00    -0.001 C 
ATOM      3  C   UNL     1      31.681 -22.977 -16.721  0.00  0.00    -0.001 C 
ATOM      4  C   UNL     1      33.526 -23.509 -14.698  0.00  0.00    +0.036 C 
ATOM      5  C   UNL     1      33.009 -23.251 -17.045  0.00  0.00    +0.036 C 
ATOM      6  C   UNL     1      33.933 -23.517 -16.033  0.00  0.00    +0.134 C 
ENDROOT
BRANCH   6   7
ATOM      7  O   UNL     1      35.229 -23.785 -16.347  0.00  0.00    -0.506 OA
ATOM      8  H   UNL     1      35.920 -23.321 -15.917  0.00  0.00    +0.292 HD
ENDBRANCH   6   7
BRANCH   1   9
ATOM      9  C   UNL     1      29.854 -22.675 -15.042  0.00  0.00    +0.102 C 
BRANCH   9  11
ATOM     10  O   UNL     1      28.762 -24.840 -15.364  0.00  0.00    -0.284 OA
ATOM     11  C   UNL     1      28.919 -23.674 -15.696  0.00  0.00    +0.252 C 
BRANCH  11  13
ATOM     12  O   UNL     1      27.583 -23.951 -17.647  0.00  0.00    -0.242 OA
ATOM     13  C   UNL     1      28.114 -23.187 -16.867  0.00  0.00    +0.374 C 
BRANCH  13  14
ATOM     14  O   UNL     1      28.048 -21.850 -16.852  0.00  0.00    -0.475 OA
ATOM     15  H   UNL     1      27.296 -21.414 -17.202  0.00  0.00    +0.295 HD
ENDBRANCH  13  14
ENDBRANCH  11  13
ENDBRANCH   9  11
ENDBRANCH   1   9
TORSDOF 5
ENDMDL
MODEL 7
REMARK VINA RESULT:      -6.8      1.642      2.060
REMARK  Name = 979
REMARK  5 active torsions:
REMARK  status: ('A' for Active; 'I' for Inactive)
REMARK    1  A    between atoms: C_1  and  C_9
REMARK    2  A    between atoms: C_6  and  O_7
REMARK    3  A    between atoms: C_9  and  C_11
REMARK    4  A    between atoms: C_11  and  C_13
REMARK    5  A    between atoms: C_13  and  O_14
REMARK                            x       y       z     vdW  Elec       q    Type
REMARK                         _______ _______ _______ _____ _____    ______ ____
ROOT
ATOM      1  C   UNL     1      35.090 -18.737 -21.351  0.00  0.00    -0.014 C 
ATOM      2  C   UNL     1      36.324 -19.266 -20.971  0.00  0.00    -0.001 C 
ATOM      3  C   UNL     1      33.911 -19.382 -20.979  0.00  0.00    -0.001 C 
ATOM      4  C   UNL     1      36.378 -20.441 -20.221  0.00  0.00    +0.036 C 
ATOM      5  C   UNL     1      33.964 -20.556 -20.228  0.00  0.00    +0.036 C 
ATOM      6  C   UNL     1      35.198 -21.086 -19.849  0.00  0.00    +0.134 C 
ENDROOT
BRANCH   6   7
ATOM      7  O   UNL     1      35.250 -22.231 -19.116  0.00  0.00    -0.506 OA
ATOM      8  H   UNL     1      34.894 -22.249 -18.250  0.00  0.00    +0.292 HD
ENDBRANCH   6   7
BRANCH   1   9
ATOM      9  C   UNL     1      35.033 -17.482 -22.154  0.00  0.00    +0.102 C 
BRANCH   9  11
ATOM     10  O   UNL     1      35.029 -18.883 -24.159  0.00  0.00    -0.284 OA
ATOM     11  C   UNL     1      34.887 -17.789 -23.632  0.00  0.00    +0.252 C 
BRANCH  11  13
ATOM     12  O   UNL     1      34.100 -15.593 -24.105  0.00  0.00    -0.242 OA
ATOM     13  C   UNL     1      34.542 -16.639 -24.535  0.00  0.00    +0.374 C 
BRANCH  13  14
ATOM     14  O   UNL     1      34.849 -16.944 -25.801  0.00  0.00    -0.475 OA
ATOM     15  H   UNL     1      35.727 -17.179 -26.027  0.00  0.00    +0.295 HD
ENDBRANCH  13  14
ENDBRANCH  11  13
ENDBRANCH   9  11
ENDBRANCH   1   9
TORSDOF 5
ENDMDL
MODEL 8
REMARK VINA RESULT:      -6.8      1.243      1.950
REMARK  Name = 979
REMARK  5 active torsions:
REMARK  status: ('A' for Active; 'I' for Inactive)
REMARK    1  A    between atoms: C_1  and  C_9
REMARK    2  A    between atoms: C_6  and  O_7
REMARK    3  A    between atoms: C_9  and  C_11
REMARK    4  A    between atoms: C_11  and  C_13
REMARK    5  A    between atoms: C_13  and  O_14
REMARK                            x       y       z     vdW  Elec       q    Type
REMARK                         _______ _______ _______ _____ _____    ______ ____
ROOT
ATOM      1  C   UNL     1      35.159 -18.590 -21.338  0.00  0.00    -0.014 C 
ATOM      2  C   UNL     1      33.918 -19.177 -21.089  0.00  0.00    -0.001 C 
ATOM      3  C   UNL     1      36.324 -19.198 -20.869  0.00  0.00    -0.001 C 
ATOM      4  C   UNL     1      33.842 -20.371 -20.371  0.00  0.00    +0.036 C 
ATOM      5  C   UNL     1      36.249 -20.391 -20.152  0.00  0.00    +0.036 C 
ATOM      6  C   UNL     1      35.008 -20.978 -19.902  0.00  0.00    +0.134 C 
ENDROOT
BRANCH   6   7
ATOM      7  O   UNL     1      34.933 -22.143 -19.202  0.00  0.00    -0.506 OA
ATOM      8  H   UNL     1      35.238 -22.177 -18.317  0.00  0.00    +0.292 HD
ENDBRANCH   6   7
BRANCH   1   9
ATOM      9  C   UNL     1      35.240 -17.315 -22.105  0.00  0.00    +0.102 C 
BRANCH   9  11
ATOM     10  O   UNL     1      34.952 -15.988 -20.070  0.00  0.00    -0.284 OA
ATOM     11  C   UNL     1      34.759 -16.146 -21.267  0.00  0.00    +0.252 C 
BRANCH  11  13
ATOM     12  O   UNL     1      32.754 -15.020 -21.884  0.00  0.00    -0.242 OA
ATOM     13  C   UNL     1      33.964 -15.085 -21.973  0.00  0.00    +0.374 C 
BRANCH  13  14
ATOM     14  O   UNL     1      34.787 -14.251 -22.620  0.00  0.00    -0.475 OA
ATOM     15  H   UNL     1      34.480 -13.410 -22.897  0.00  0.00    +0.295 HD
ENDBRANCH  13  14
ENDBRANCH  11  13
ENDBRANCH   9  11
ENDBRANCH   1   9
TORSDOF 5
ENDMDL
MODEL 9
REMARK VINA RESULT:      -6.8      8.322      9.349
REMARK  Name = 979
REMARK  5 active torsions:
REMARK  status: ('A' for Active; 'I' for Inactive)
REMARK    1  A    between atoms: C_1  and  C_9
REMARK    2  A    between atoms: C_6  and  O_7
REMARK    3  A    between atoms: C_9  and  C_11
REMARK    4  A    between atoms: C_11  and  C_13
REMARK    5  A    between atoms: C_13  and  O_14
REMARK                            x       y       z     vdW  Elec       q    Type
REMARK                         _______ _______ _______ _____ _____    ______ ____
ROOT
ATOM      1  C   UNL     1      30.221 -23.819 -15.558  0.00  0.00    -0.014 C 
ATOM      2  C   UNL     1      30.061 -24.783 -14.564  0.00  0.00    -0.001 C 
ATOM      3  C   UNL     1      31.450 -23.177 -15.716  0.00  0.00    -0.001 C 
ATOM      4  C   UNL     1      31.129 -25.105 -13.726  0.00  0.00    +0.036 C 
ATOM      5  C   UNL     1      32.517 -23.498 -14.879  0.00  0.00    +0.036 C 
ATOM      6  C   UNL     1      32.357 -24.462 -13.883  0.00  0.00    +0.134 C 
ENDROOT
BRANCH   6   7
ATOM      7  O   UNL     1      33.399 -24.776 -13.066  0.00  0.00    -0.506 OA
ATOM      8  H   UNL     1      33.701 -25.662 -13.012  0.00  0.00    +0.292 HD
ENDBRANCH   6   7
BRANCH   1   9
ATOM      9  C   UNL     1      29.080 -23.474 -16.454  0.00  0.00    +0.102 C 
BRANCH   9  11
ATOM     10  O   UNL     1      28.491 -21.703 -14.873  0.00  0.00    -0.284 OA
ATOM     11  C   UNL     1      28.199 -22.410 -15.827  0.00  0.00    +0.252 C 
BRANCH  11  13
ATOM     12  O   UNL     1      26.660 -22.207 -17.631  0.00  0.00    -0.242 OA
ATOM     13  C   UNL     1      26.838 -22.212 -16.430  0.00  0.00    +0.374 C 
BRANCH  13  14
ATOM     14  O   UNL     1      25.919 -22.109 -15.462  0.00  0.00    -0.475 OA
ATOM     15  H   UNL     1      26.008 -21.452 -14.799  0.00  0.00    +0.295 HD
ENDBRANCH  13  14
ENDBRANCH  11  13
ENDBRANCH   9  11
ENDBRANCH   1   9
TORSDOF 5
ENDMDL
