MODEL 1
REMARK VINA RESULT:      -9.6      0.000      0.000
REMARK  Name = 31593
REMARK  4 active torsions:
REMARK  status: ('A' for Active; 'I' for Inactive)
REMARK    1  A    between atoms: N_2  and  C_14
REMARK    2  A    between atoms: C_3  and  C_5
REMARK    3  A    between atoms: C_5  and  N_8
REMARK    4  A    between atoms: C_14  and  C_15
REMARK                            x       y       z     vdW  Elec       q    Type
REMARK                         _______ _______ _______ _____ _____    ______ ____
ROOT
ATOM      1  O   UNL     1      33.394 -23.595 -16.380  0.00  0.00    -0.273 OA
ATOM      2  N   UNL     1      32.688 -22.465 -18.282  0.00  0.00    -0.299 N 
ATOM      3  C   UNL     1      32.544 -22.950 -16.989  0.00  0.00    +0.243 C 
ATOM      4  H   UNL     1      31.943 -21.958 -18.679  0.00  0.00    +0.150 HD
ENDROOT
BRANCH   3   5
ATOM      5  C   UNL     1      31.195 -22.589 -16.405  0.00  0.00    +0.183 C 
BRANCH   5   8
ATOM      6  O   UNL     1      27.606 -24.454 -17.556  0.00  0.00    -0.123 OA
ATOM      7  O   UNL     1      28.475 -22.457 -17.279  0.00  0.00    -0.123 OA
ATOM      8  N   UNL     1      30.543 -23.717 -15.748  0.00  0.00    -0.242 N 
ATOM      9  N   UNL     1      29.011 -25.222 -15.241  0.00  0.00    -0.207 NA
ATOM     10  N   UNL     1      28.432 -23.686 -16.983  0.00  0.00    +0.091 N 
ATOM     11  C   UNL     1      29.302 -24.199 -16.015  0.00  0.00    +0.284 C 
ATOM     12  C   UNL     1      31.089 -24.460 -14.752  0.00  0.00    +0.089 C 
ATOM     13  C   UNL     1      30.120 -25.389 -14.450  0.00  0.00    +0.118 C 
ENDBRANCH   5   8
ENDBRANCH   3   5
BRANCH   2  14
ATOM     14  C   UNL     1      33.876 -22.668 -19.070  0.00  0.00    +0.116 C 
BRANCH  14  15
ATOM     15  C   UNL     1      34.311 -21.426 -19.772  0.00  0.00    -0.003 C 
ATOM     16  C   UNL     1      33.359 -20.544 -20.283  0.00  0.00    -0.003 C 
ATOM     17  C   UNL     1      35.670 -21.145 -19.918  0.00  0.00    -0.003 C 
ATOM     18  C   UNL     1      33.764 -19.383 -20.938  0.00  0.00    -0.000 C 
ATOM     19  C   UNL     1      36.075 -19.984 -20.574  0.00  0.00    -0.000 C 
ATOM     20  C   UNL     1      35.122 -19.102 -21.085  0.00  0.00    -0.000 C 
ENDBRANCH  14  15
ENDBRANCH   2  14
TORSDOF 4
ENDMDL
MODEL 2
REMARK VINA RESULT:      -9.6      5.469      6.332
REMARK  Name = 31593
REMARK  4 active torsions:
REMARK  status: ('A' for Active; 'I' for Inactive)
REMARK    1  A    between atoms: N_2  and  C_14
REMARK    2  A    between atoms: C_3  and  C_5
REMARK    3  A    between atoms: C_5  and  N_8
REMARK    4  A    between atoms: C_14  and  C_15
REMARK                            x       y       z     vdW  Elec       q    Type
REMARK                         _______ _______ _______ _____ _____    ______ ____
ROOT
ATOM      1  O   UNL     1      38.375 -23.195 -15.625  0.00  0.00    -0.273 OA
ATOM      2  N   UNL     1      36.379 -22.387 -16.496  0.00  0.00    -0.299 N 
ATOM      3  C   UNL     1      37.184 -22.922 -15.499  0.00  0.00    +0.243 C 
ATOM      4  H   UNL     1      35.434 -22.205 -16.290  0.00  0.00    +0.150 HD
ENDROOT
BRANCH   3   5
ATOM      5  C   UNL     1      36.411 -23.137 -14.215  0.00  0.00    +0.183 C 
BRANCH   5   8
ATOM      6  O   UNL     1      36.395 -24.025 -10.106  0.00  0.00    -0.123 OA
ATOM      7  O   UNL     1      37.116 -22.506 -11.517  0.00  0.00    -0.123 OA
ATOM      8  N   UNL     1      36.688 -24.429 -13.597  0.00  0.00    -0.242 N 
ATOM      9  N   UNL     1      37.097 -25.942 -12.044  0.00  0.00    -0.207 NA
ATOM     10  N   UNL     1      36.786 -23.701 -11.264  0.00  0.00    +0.091 N 
ATOM     11  C   UNL     1      36.856 -24.670 -12.271  0.00  0.00    +0.284 C 
ATOM     12  C   UNL     1      36.826 -25.601 -14.269  0.00  0.00    +0.089 C 
ATOM     13  C   UNL     1      37.081 -26.528 -13.285  0.00  0.00    +0.118 C 
ENDBRANCH   5   8
ENDBRANCH   3   5
BRANCH   2  14
ATOM     14  C   UNL     1      36.863 -22.086 -17.820  0.00  0.00    +0.116 C 
BRANCH  14  15
ATOM     15  C   UNL     1      35.780 -21.600 -18.723  0.00  0.00    -0.003 C 
ATOM     16  C   UNL     1      36.084 -20.724 -19.765  0.00  0.00    -0.003 C 
ATOM     17  C   UNL     1      34.465 -22.021 -18.526  0.00  0.00    -0.003 C 
ATOM     18  C   UNL     1      35.072 -20.269 -20.610  0.00  0.00    -0.000 C 
ATOM     19  C   UNL     1      33.454 -21.566 -19.371  0.00  0.00    -0.000 C 
ATOM     20  C   UNL     1      33.757 -20.689 -20.413  0.00  0.00    -0.000 C 
ENDBRANCH  14  15
ENDBRANCH   2  14
TORSDOF 4
ENDMDL
MODEL 3
REMARK VINA RESULT:      -9.5      6.275      9.374
REMARK  Name = 31593
REMARK  4 active torsions:
REMARK  status: ('A' for Active; 'I' for Inactive)
REMARK    1  A    between atoms: N_2  and  C_14
REMARK    2  A    between atoms: C_3  and  C_5
REMARK    3  A    between atoms: C_5  and  N_8
REMARK    4  A    between atoms: C_14  and  C_15
REMARK                            x       y       z     vdW  Elec       q    Type
REMARK                         _______ _______ _______ _____ _____    ______ ____
ROOT
ATOM      1  O   UNL     1      34.586 -19.141 -23.879  0.00  0.00    -0.273 OA
ATOM      2  N   UNL     1      34.229 -18.520 -21.670  0.00  0.00    -0.299 N 
ATOM      3  C   UNL     1      34.725 -18.344 -22.955  0.00  0.00    +0.243 C 
ATOM      4  H   UNL     1      34.397 -17.818 -21.000  0.00  0.00    +0.150 HD
ENDROOT
BRANCH   3   5
ATOM      5  C   UNL     1      35.472 -17.034 -23.088  0.00  0.00    +0.183 C 
BRANCH   5   8
ATOM      6  O   UNL     1      32.961 -15.960 -26.284  0.00  0.00    -0.123 OA
ATOM      7  O   UNL     1      35.009 -16.642 -25.882  0.00  0.00    -0.123 OA
ATOM      8  N   UNL     1      34.583 -15.880 -23.153  0.00  0.00    -0.242 N 
ATOM      9  N   UNL     1      33.197 -14.370 -23.973  0.00  0.00    -0.207 NA
ATOM     10  N   UNL     1      33.962 -16.035 -25.514  0.00  0.00    +0.091 N 
ATOM     11  C   UNL     1      33.911 -15.440 -24.248  0.00  0.00    +0.284 C 
ATOM     12  C   UNL     1      34.293 -15.058 -22.112  0.00  0.00    +0.089 C 
ATOM     13  C   UNL     1      33.432 -14.126 -22.643  0.00  0.00    +0.118 C 
ENDBRANCH   5   8
ENDBRANCH   3   5
BRANCH   2  14
ATOM     14  C   UNL     1      33.480 -19.684 -21.269  0.00  0.00    +0.116 C 
BRANCH  14  15
ATOM     15  C   UNL     1      34.228 -20.536 -20.300  0.00  0.00    -0.003 C 
ATOM     16  C   UNL     1      33.539 -21.427 -19.478  0.00  0.00    -0.003 C 
ATOM     17  C   UNL     1      35.618 -20.441 -20.215  0.00  0.00    -0.003 C 
ATOM     18  C   UNL     1      34.237 -22.224 -18.572  0.00  0.00    -0.000 C 
ATOM     19  C   UNL     1      36.316 -21.238 -19.310  0.00  0.00    -0.000 C 
ATOM     20  C   UNL     1      35.626 -22.129 -18.487  0.00  0.00    -0.000 C 
ENDBRANCH  14  15
ENDBRANCH   2  14
TORSDOF 4
ENDMDL
MODEL 4
REMARK VINA RESULT:      -9.5      4.333      5.698
REMARK  Name = 31593
REMARK  4 active torsions:
REMARK  status: ('A' for Active; 'I' for Inactive)
REMARK    1  A    between atoms: N_2  and  C_14
REMARK    2  A    between atoms: C_3  and  C_5
REMARK    3  A    between atoms: C_5  and  N_8
REMARK    4  A    between atoms: C_14  and  C_15
REMARK                            x       y       z     vdW  Elec       q    Type
REMARK                         _______ _______ _______ _____ _____    ______ ____
ROOT
ATOM      1  O   UNL     1      33.743 -24.122 -15.110  0.00  0.00    -0.273 OA
ATOM      2  N   UNL     1      34.966 -22.961 -16.708  0.00  0.00    -0.299 N 
ATOM      3  C   UNL     1      34.776 -23.563 -15.470  0.00  0.00    +0.243 C 
ATOM      4  H   UNL     1      35.836 -22.540 -16.896  0.00  0.00    +0.150 HD
ENDROOT
BRANCH   3   5
ATOM      5  C   UNL     1      36.009 -23.446 -14.600  0.00  0.00    +0.183 C 
BRANCH   5   8
ATOM      6  O   UNL     1      35.376 -25.153 -10.810  0.00  0.00    -0.123 OA
ATOM      7  O   UNL     1      35.933 -23.248 -11.748  0.00  0.00    -0.123 OA
ATOM      8  N   UNL     1      36.493 -24.740 -14.130  0.00  0.00    -0.242 N 
ATOM      9  N   UNL     1      36.965 -26.409 -12.765  0.00  0.00    -0.207 NA
ATOM     10  N   UNL     1      35.897 -24.512 -11.768  0.00  0.00    +0.091 N 
ATOM     11  C   UNL     1      36.439 -25.207 -12.855  0.00  0.00    +0.284 C 
ATOM     12  C   UNL     1      37.083 -25.681 -14.909  0.00  0.00    +0.089 C 
ATOM     13  C   UNL     1      37.370 -26.710 -14.041  0.00  0.00    +0.118 C 
ENDBRANCH   5   8
ENDBRANCH   3   5
BRANCH   2  14
ATOM     14  C   UNL     1      33.950 -22.926 -17.729  0.00  0.00    +0.116 C 
BRANCH  14  15
ATOM     15  C   UNL     1      34.259 -21.937 -18.802  0.00  0.00    -0.003 C 
ATOM     16  C   UNL     1      35.583 -21.683 -19.156  0.00  0.00    -0.003 C 
ATOM     17  C   UNL     1      33.222 -21.265 -19.452  0.00  0.00    -0.003 C 
ATOM     18  C   UNL     1      35.873 -20.759 -20.159  0.00  0.00    -0.000 C 
ATOM     19  C   UNL     1      33.512 -20.342 -20.455  0.00  0.00    -0.000 C 
ATOM     20  C   UNL     1      34.837 -20.087 -20.809  0.00  0.00    -0.000 C 
ENDBRANCH  14  15
ENDBRANCH   2  14
TORSDOF 4
ENDMDL
MODEL 5
REMARK VINA RESULT:      -9.5      4.815      5.947
REMARK  Name = 31593
REMARK  4 active torsions:
REMARK  status: ('A' for Active; 'I' for Inactive)
REMARK    1  A    between atoms: N_2  and  C_14
REMARK    2  A    between atoms: C_3  and  C_5
REMARK    3  A    between atoms: C_5  and  N_8
REMARK    4  A    between atoms: C_14  and  C_15
REMARK                            x       y       z     vdW  Elec       q    Type
REMARK                         _______ _______ _______ _____ _____    ______ ____
ROOT
ATOM      1  O   UNL     1      38.489 -23.023 -15.886  0.00  0.00    -0.273 OA
ATOM      2  N   UNL     1      36.396 -22.414 -16.687  0.00  0.00    -0.299 N 
ATOM      3  C   UNL     1      37.276 -22.900 -15.730  0.00  0.00    +0.243 C 
ATOM      4  H   UNL     1      35.439 -22.355 -16.460  0.00  0.00    +0.150 HD
ENDROOT
BRANCH   3   5
ATOM      5  C   UNL     1      36.558 -23.270 -14.450  0.00  0.00    +0.183 C 
BRANCH   5   8
ATOM      6  O   UNL     1      36.667 -27.165 -16.031  0.00  0.00    -0.123 OA
ATOM      7  O   UNL     1      35.304 -25.460 -15.796  0.00  0.00    -0.123 OA
ATOM      8  N   UNL     1      37.115 -24.459 -13.813  0.00  0.00    -0.242 N 
ATOM      9  N   UNL     1      37.607 -26.579 -13.443  0.00  0.00    -0.207 NA
ATOM     10  N   UNL     1      36.297 -26.135 -15.397  0.00  0.00    +0.091 N 
ATOM     11  C   UNL     1      36.990 -25.740 -14.247  0.00  0.00    +0.284 C 
ATOM     12  C   UNL     1      37.848 -24.461 -12.671  0.00  0.00    +0.089 C 
ATOM     13  C   UNL     1      38.143 -25.788 -12.458  0.00  0.00    +0.118 C 
ENDBRANCH   5   8
ENDBRANCH   3   5
BRANCH   2  14
ATOM     14  C   UNL     1      36.815 -21.989 -17.999  0.00  0.00    +0.116 C 
BRANCH  14  15
ATOM     15  C   UNL     1      35.671 -21.537 -18.842  0.00  0.00    -0.003 C 
ATOM     16  C   UNL     1      35.879 -20.597 -19.852  0.00  0.00    -0.003 C 
ATOM     17  C   UNL     1      34.394 -22.053 -18.622  0.00  0.00    -0.003 C 
ATOM     18  C   UNL     1      34.811 -20.174 -20.641  0.00  0.00    -0.000 C 
ATOM     19  C   UNL     1      33.326 -21.629 -19.411  0.00  0.00    -0.000 C 
ATOM     20  C   UNL     1      33.533 -20.689 -20.420  0.00  0.00    -0.000 C 
ENDBRANCH  14  15
ENDBRANCH   2  14
TORSDOF 4
ENDMDL
MODEL 6
REMARK VINA RESULT:      -9.3      6.640      9.656
REMARK  Name = 31593
REMARK  4 active torsions:
REMARK  status: ('A' for Active; 'I' for Inactive)
REMARK    1  A    between atoms: N_2  and  C_14
REMARK    2  A    between atoms: C_3  and  C_5
REMARK    3  A    between atoms: C_5  and  N_8
REMARK    4  A    between atoms: C_14  and  C_15
REMARK                            x       y       z     vdW  Elec       q    Type
REMARK                         _______ _______ _______ _____ _____    ______ ____
ROOT
ATOM      1  O   UNL     1      34.954 -15.930 -20.553  0.00  0.00    -0.273 OA
ATOM      2  N   UNL     1      34.666 -17.799 -21.902  0.00  0.00    -0.299 N 
ATOM      3  C   UNL     1      34.331 -16.541 -21.418  0.00  0.00    +0.243 C 
ATOM      4  H   UNL     1      34.097 -18.201 -22.598  0.00  0.00    +0.150 HD
ENDROOT
BRANCH   3   5
ATOM      5  C   UNL     1      33.086 -16.000 -22.088  0.00  0.00    +0.183 C 
BRANCH   5   8
ATOM      6  O   UNL     1      33.594 -15.728 -26.253  0.00  0.00    -0.123 OA
ATOM      7  O   UNL     1      34.227 -16.941 -24.536  0.00  0.00    -0.123 OA
ATOM      8  N   UNL     1      33.341 -14.790 -22.862  0.00  0.00    -0.242 N 
ATOM      9  N   UNL     1      33.843 -13.486 -24.570  0.00  0.00    -0.207 NA
ATOM     10  N   UNL     1      33.838 -15.838 -25.016  0.00  0.00    +0.091 N 
ATOM     11  C   UNL     1      33.679 -14.730 -24.176  0.00  0.00    +0.284 C 
ATOM     12  C   UNL     1      33.281 -13.525 -22.374  0.00  0.00    +0.089 C 
ATOM     13  C   UNL     1      33.598 -12.730 -23.451  0.00  0.00    +0.118 C 
ENDBRANCH   5   8
ENDBRANCH   3   5
BRANCH   2  14
ATOM     14  C   UNL     1      35.807 -18.544 -21.433  0.00  0.00    +0.116 C 
BRANCH  14  15
ATOM     15  C   UNL     1      35.414 -19.747 -20.644  0.00  0.00    -0.003 C 
ATOM     16  C   UNL     1      34.069 -20.096 -20.529  0.00  0.00    -0.003 C 
ATOM     17  C   UNL     1      36.392 -20.523 -20.021  0.00  0.00    -0.003 C 
ATOM     18  C   UNL     1      33.701 -21.221 -19.792  0.00  0.00    -0.000 C 
ATOM     19  C   UNL     1      36.024 -21.648 -19.284  0.00  0.00    -0.000 C 
ATOM     20  C   UNL     1      34.679 -21.997 -19.168  0.00  0.00    -0.000 C 
ENDBRANCH  14  15
ENDBRANCH   2  14
TORSDOF 4
ENDMDL
MODEL 7
REMARK VINA RESULT:      -9.2      5.004      7.578
REMARK  Name = 31593
REMARK  4 active torsions:
REMARK  status: ('A' for Active; 'I' for Inactive)
REMARK    1  A    between atoms: N_2  and  C_14
REMARK    2  A    between atoms: C_3  and  C_5
REMARK    3  A    between atoms: C_5  and  N_8
REMARK    4  A    between atoms: C_14  and  C_15
REMARK                            x       y       z     vdW  Elec       q    Type
REMARK                         _______ _______ _______ _____ _____    ______ ____
ROOT
ATOM      1  O   UNL     1      36.544 -22.957 -16.433  0.00  0.00    -0.273 OA
ATOM      2  N   UNL     1      34.716 -23.228 -15.026  0.00  0.00    -0.299 N 
ATOM      3  C   UNL     1      36.067 -23.075 -15.307  0.00  0.00    +0.243 C 
ATOM      4  H   UNL     1      34.438 -23.315 -14.085  0.00  0.00    +0.150 HD
ENDROOT
BRANCH   3   5
ATOM      5  C   UNL     1      36.901 -23.074 -14.044  0.00  0.00    +0.183 C 
BRANCH   5   8
ATOM      6  O   UNL     1      36.252 -24.029 -10.001  0.00  0.00    -0.123 OA
ATOM      7  O   UNL     1      37.268 -22.543 -11.258  0.00  0.00    -0.123 OA
ATOM      8  N   UNL     1      36.998 -24.393 -13.429  0.00  0.00    -0.242 N 
ATOM      9  N   UNL     1      37.079 -25.959 -11.876  0.00  0.00    -0.207 NA
ATOM     10  N   UNL     1      36.823 -23.714 -11.085  0.00  0.00    +0.091 N 
ATOM     11  C   UNL     1      36.963 -24.668 -12.099  0.00  0.00    +0.284 C 
ATOM     12  C   UNL     1      37.144 -25.560 -14.107  0.00  0.00    +0.089 C 
ATOM     13  C   UNL     1      37.194 -26.521 -13.123  0.00  0.00    +0.118 C 
ENDBRANCH   5   8
ENDBRANCH   3   5
BRANCH   2  14
ATOM     14  C   UNL     1      33.700 -23.265 -16.047  0.00  0.00    +0.116 C 
BRANCH  14  15
ATOM     15  C   UNL     1      32.362 -23.640 -15.504  0.00  0.00    -0.003 C 
ATOM     16  C   UNL     1      31.203 -23.206 -16.146  0.00  0.00    -0.003 C 
ATOM     17  C   UNL     1      32.271 -24.424 -14.354  0.00  0.00    -0.003 C 
ATOM     18  C   UNL     1      29.952 -23.557 -15.639  0.00  0.00    -0.000 C 
ATOM     19  C   UNL     1      31.020 -24.775 -13.847  0.00  0.00    -0.000 C 
ATOM     20  C   UNL     1      29.860 -24.341 -14.489  0.00  0.00    -0.000 C 
ENDBRANCH  14  15
ENDBRANCH   2  14
TORSDOF 4
ENDMDL
MODEL 8
REMARK VINA RESULT:      -9.1      4.222      5.619
REMARK  Name = 31593
REMARK  4 active torsions:
REMARK  status: ('A' for Active; 'I' for Inactive)
REMARK    1  A    between atoms: N_2  and  C_14
REMARK    2  A    between atoms: C_3  and  C_5
REMARK    3  A    between atoms: C_5  and  N_8
REMARK    4  A    between atoms: C_14  and  C_15
REMARK                            x       y       z     vdW  Elec       q    Type
REMARK                         _______ _______ _______ _____ _____    ______ ____
ROOT
ATOM      1  O   UNL     1      34.044 -24.134 -15.263  0.00  0.00    -0.273 OA
ATOM      2  N   UNL     1      35.057 -22.893 -16.944  0.00  0.00    -0.299 N 
ATOM      3  C   UNL     1      35.020 -23.544 -15.718  0.00  0.00    +0.243 C 
ATOM      4  H   UNL     1      35.893 -22.448 -17.215  0.00  0.00    +0.150 HD
ENDROOT
BRANCH   3   5
ATOM      5  C   UNL     1      36.344 -23.437 -14.991  0.00  0.00    +0.183 C 
BRANCH   5   8
ATOM      6  O   UNL     1      38.056 -27.204 -14.241  0.00  0.00    -0.123 OA
ATOM      7  O   UNL     1      36.810 -26.163 -15.719  0.00  0.00    -0.123 OA
ATOM      8  N   UNL     1      36.353 -24.159 -13.723  0.00  0.00    -0.242 N 
ATOM      9  N   UNL     1      36.628 -25.795 -12.267  0.00  0.00    -0.207 NA
ATOM     10  N   UNL     1      37.221 -26.299 -14.531  0.00  0.00    +0.091 N 
ATOM     11  C   UNL     1      36.747 -25.444 -13.529  0.00  0.00    +0.284 C 
ATOM     12  C   UNL     1      35.957 -23.645 -12.531  0.00  0.00    +0.089 C 
ATOM     13  C   UNL     1      36.135 -24.678 -11.639  0.00  0.00    +0.118 C 
ENDBRANCH   5   8
ENDBRANCH   3   5
BRANCH   2  14
ATOM     14  C   UNL     1      33.930 -22.837 -17.839  0.00  0.00    +0.116 C 
BRANCH  14  15
ATOM     15  C   UNL     1      34.112 -21.826 -18.920  0.00  0.00    -0.003 C 
ATOM     16  C   UNL     1      33.000 -21.211 -19.493  0.00  0.00    -0.003 C 
ATOM     17  C   UNL     1      35.395 -21.496 -19.358  0.00  0.00    -0.003 C 
ATOM     18  C   UNL     1      33.169 -20.265 -20.503  0.00  0.00    -0.000 C 
ATOM     19  C   UNL     1      35.564 -20.550 -20.368  0.00  0.00    -0.000 C 
ATOM     20  C   UNL     1      34.451 -19.935 -20.942  0.00  0.00    -0.000 C 
ENDBRANCH  14  15
ENDBRANCH   2  14
TORSDOF 4
ENDMDL
MODEL 9
REMARK VINA RESULT:      -9.0      5.518      7.954
REMARK  Name = 31593
REMARK  4 active torsions:
REMARK  status: ('A' for Active; 'I' for Inactive)
REMARK    1  A    between atoms: N_2  and  C_14
REMARK    2  A    between atoms: C_3  and  C_5
REMARK    3  A    between atoms: C_5  and  N_8
REMARK    4  A    between atoms: C_14  and  C_15
REMARK                            x       y       z     vdW  Elec       q    Type
REMARK                         _______ _______ _______ _____ _____    ______ ____
ROOT
ATOM      1  O   UNL     1      34.231 -23.932 -12.280  0.00  0.00    -0.273 OA
ATOM      2  N   UNL     1      33.219 -24.756 -14.201  0.00  0.00    -0.299 N 
ATOM      3  C   UNL     1      34.266 -24.202 -13.478  0.00  0.00    +0.243 C 
ATOM      4  H   UNL     1      33.352 -24.934 -15.161  0.00  0.00    +0.150 HD
ENDROOT
BRANCH   3   5
ATOM      5  C   UNL     1      35.479 -23.961 -14.351  0.00  0.00    +0.183 C 
BRANCH   5   8
ATOM      6  O   UNL     1      38.328 -24.487 -11.305  0.00  0.00    -0.123 OA
ATOM      7  O   UNL     1      37.481 -22.924 -12.592  0.00  0.00    -0.123 OA
ATOM      8  N   UNL     1      36.469 -25.029 -14.252  0.00  0.00    -0.242 N 
ATOM      9  N   UNL     1      38.209 -26.187 -13.544  0.00  0.00    -0.207 NA
ATOM     10  N   UNL     1      37.778 -24.136 -12.388  0.00  0.00    +0.091 N 
ATOM     11  C   UNL     1      37.497 -25.096 -13.367  0.00  0.00    +0.284 C 
ATOM     12  C   UNL     1      36.510 -26.129 -15.045  0.00  0.00    +0.089 C 
ATOM     13  C   UNL     1      37.600 -26.835 -14.590  0.00  0.00    +0.118 C 
ENDBRANCH   5   8
ENDBRANCH   3   5
BRANCH   2  14
ATOM     14  C   UNL     1      31.945 -25.084 -13.614  0.00  0.00    +0.116 C 
BRANCH  14  15
ATOM     15  C   UNL     1      30.805 -24.456 -14.343  0.00  0.00    -0.003 C 
ATOM     16  C   UNL     1      30.737 -23.069 -14.467  0.00  0.00    -0.003 C 
ATOM     17  C   UNL     1      29.807 -25.256 -14.901  0.00  0.00    -0.003 C 
ATOM     18  C   UNL     1      29.672 -22.481 -15.148  0.00  0.00    -0.000 C 
ATOM     19  C   UNL     1      28.742 -24.668 -15.582  0.00  0.00    -0.000 C 
ATOM     20  C   UNL     1      28.674 -23.280 -15.706  0.00  0.00    -0.000 C 
ENDBRANCH  14  15
ENDBRANCH   2  14
TORSDOF 4
ENDMDL
