MODEL 1
REMARK VINA RESULT:      -6.8      0.000      0.000
REMARK  Name = 8434
REMARK  4 active torsions:
REMARK  status: ('A' for Active; 'I' for Inactive)
REMARK    1  A    between atoms: C_1  and  C_10
REMARK    2  A    between atoms: C_6  and  O_7
REMARK    3  A    between atoms: C_10  and  O_11
REMARK    4  A    between atoms: O_11  and  C_12
REMARK                            x       y       z     vdW  Elec       q    Type
REMARK                         _______ _______ _______ _____ _____    ______ ____
ROOT
ATOM      1  C   UNL     1      34.922 -19.573 -21.033  0.00  0.00    +0.076 C 
ATOM      2  C   UNL     1      33.530 -19.515 -20.962  0.00  0.00    +0.010 C 
ATOM      3  C   UNL     1      35.615 -20.567 -20.342  0.00  0.00    +0.010 C 
ATOM      4  C   UNL     1      32.831 -20.450 -20.199  0.00  0.00    +0.037 C 
ATOM      5  C   UNL     1      34.915 -21.503 -19.579  0.00  0.00    +0.037 C 
ATOM      6  C   UNL     1      33.524 -21.445 -19.508  0.00  0.00    +0.134 C 
ENDROOT
BRANCH   6   7
ATOM      7  O   UNL     1      32.841 -22.357 -18.763  0.00  0.00    -0.506 OA
ATOM      8  H   UNL     1      32.435 -23.092 -19.179  0.00  0.00    +0.292 HD
ENDBRANCH   6   7
BRANCH   1  10
ATOM      9  O   UNL     1      36.887 -18.526 -21.886  0.00  0.00    -0.245 OA
ATOM     10  C   UNL     1      35.652 -18.598 -21.827  0.00  0.00    +0.341 C 
BRANCH  10  11
ATOM     11  O   UNL     1      34.805 -17.765 -22.507  0.00  0.00    -0.445 OA
BRANCH  11  12
ATOM     12  C   UNL     1      35.019 -17.635 -23.916  0.00  0.00    +0.209 C 
ATOM     13  C   UNL     1      34.527 -18.889 -24.607  0.00  0.00    +0.051 C 
ENDBRANCH  11  12
ENDBRANCH  10  11
ENDBRANCH   1  10
TORSDOF 4
ENDMDL
MODEL 2
REMARK VINA RESULT:      -6.8      1.083      2.064
REMARK  Name = 8434
REMARK  4 active torsions:
REMARK  status: ('A' for Active; 'I' for Inactive)
REMARK    1  A    between atoms: C_1  and  C_10
REMARK    2  A    between atoms: C_6  and  O_7
REMARK    3  A    between atoms: C_10  and  O_11
REMARK    4  A    between atoms: O_11  and  C_12
REMARK                            x       y       z     vdW  Elec       q    Type
REMARK                         _______ _______ _______ _____ _____    ______ ____
ROOT
ATOM      1  C   UNL     1      34.864 -19.561 -21.008  0.00  0.00    +0.076 C 
ATOM      2  C   UNL     1      35.594 -20.550 -20.350  0.00  0.00    +0.010 C 
ATOM      3  C   UNL     1      33.473 -19.535 -20.907  0.00  0.00    +0.010 C 
ATOM      4  C   UNL     1      34.933 -21.515 -19.590  0.00  0.00    +0.037 C 
ATOM      5  C   UNL     1      32.812 -20.499 -20.145  0.00  0.00    +0.037 C 
ATOM      6  C   UNL     1      33.541 -21.489 -19.487  0.00  0.00    +0.134 C 
ENDROOT
BRANCH   6   7
ATOM      7  O   UNL     1      32.896 -22.431 -18.746  0.00  0.00    -0.506 OA
ATOM      8  H   UNL     1      32.824 -22.327 -17.817  0.00  0.00    +0.292 HD
ENDBRANCH   6   7
BRANCH   1  10
ATOM      9  O   UNL     1      36.783 -18.480 -21.923  0.00  0.00    -0.245 OA
ATOM     10  C   UNL     1      35.553 -18.555 -21.802  0.00  0.00    +0.341 C 
BRANCH  10  11
ATOM     11  O   UNL     1      34.673 -17.699 -22.405  0.00  0.00    -0.445 OA
BRANCH  11  12
ATOM     12  C   UNL     1      34.935 -16.299 -22.267  0.00  0.00    +0.209 C 
ATOM     13  C   UNL     1      34.607 -15.874 -20.851  0.00  0.00    +0.051 C 
ENDBRANCH  11  12
ENDBRANCH  10  11
ENDBRANCH   1  10
TORSDOF 4
ENDMDL
MODEL 3
REMARK VINA RESULT:      -6.8      1.572      2.453
REMARK  Name = 8434
REMARK  4 active torsions:
REMARK  status: ('A' for Active; 'I' for Inactive)
REMARK    1  A    between atoms: C_1  and  C_10
REMARK    2  A    between atoms: C_6  and  O_7
REMARK    3  A    between atoms: C_10  and  O_11
REMARK    4  A    between atoms: O_11  and  C_12
REMARK                            x       y       z     vdW  Elec       q    Type
REMARK                         _______ _______ _______ _____ _____    ______ ____
ROOT
ATOM      1  C   UNL     1      34.975 -19.887 -20.705  0.00  0.00    +0.076 C 
ATOM      2  C   UNL     1      35.997 -20.668 -20.167  0.00  0.00    +0.010 C 
ATOM      3  C   UNL     1      33.642 -20.211 -20.453  0.00  0.00    +0.010 C 
ATOM      4  C   UNL     1      35.687 -21.774 -19.375  0.00  0.00    +0.037 C 
ATOM      5  C   UNL     1      33.332 -21.317 -19.660  0.00  0.00    +0.037 C 
ATOM      6  C   UNL     1      34.354 -22.098 -19.122  0.00  0.00    +0.134 C 
ENDROOT
BRANCH   6   7
ATOM      7  O   UNL     1      34.051 -23.178 -18.350  0.00  0.00    -0.506 OA
ATOM      8  H   UNL     1      34.277 -23.182 -17.441  0.00  0.00    +0.292 HD
ENDBRANCH   6   7
BRANCH   1  10
ATOM      9  O   UNL     1      35.541 -18.789 -22.744  0.00  0.00    -0.245 OA
ATOM     10  C   UNL     1      35.298 -18.735 -21.531  0.00  0.00    +0.341 C 
BRANCH  10  11
ATOM     11  O   UNL     1      35.299 -17.576 -20.803  0.00  0.00    -0.445 OA
BRANCH  11  12
ATOM     12  C   UNL     1      34.856 -16.391 -21.472  0.00  0.00    +0.209 C 
ATOM     13  C   UNL     1      34.385 -15.389 -20.439  0.00  0.00    +0.051 C 
ENDBRANCH  11  12
ENDBRANCH  10  11
ENDBRANCH   1  10
TORSDOF 4
ENDMDL
MODEL 4
REMARK VINA RESULT:      -6.8      1.792      5.115
REMARK  Name = 8434
REMARK  4 active torsions:
REMARK  status: ('A' for Active; 'I' for Inactive)
REMARK    1  A    between atoms: C_1  and  C_10
REMARK    2  A    between atoms: C_6  and  O_7
REMARK    3  A    between atoms: C_10  and  O_11
REMARK    4  A    between atoms: O_11  and  C_12
REMARK                            x       y       z     vdW  Elec       q    Type
REMARK                         _______ _______ _______ _____ _____    ______ ____
ROOT
ATOM      1  C   UNL     1      35.076 -18.078 -22.668  0.00  0.00    +0.076 C 
ATOM      2  C   UNL     1      35.009 -16.685 -22.661  0.00  0.00    +0.010 C 
ATOM      3  C   UNL     1      34.813 -18.783 -23.843  0.00  0.00    +0.010 C 
ATOM      4  C   UNL     1      34.678 -15.997 -23.828  0.00  0.00    +0.037 C 
ATOM      5  C   UNL     1      34.482 -18.094 -25.010  0.00  0.00    +0.037 C 
ATOM      6  C   UNL     1      34.415 -16.702 -25.003  0.00  0.00    +0.134 C 
ENDROOT
BRANCH   6   7
ATOM      7  O   UNL     1      34.091 -16.029 -26.141  0.00  0.00    -0.506 OA
ATOM      8  H   UNL     1      33.573 -16.448 -26.801  0.00  0.00    +0.292 HD
ENDBRANCH   6   7
BRANCH   1  10
ATOM      9  O   UNL     1      36.061 -18.311 -20.509  0.00  0.00    -0.245 OA
ATOM     10  C   UNL     1      35.420 -18.796 -21.451  0.00  0.00    +0.341 C 
BRANCH  10  11
ATOM     11  O   UNL     1      34.946 -20.080 -21.473  0.00  0.00    -0.445 OA
BRANCH  11  12
ATOM     12  C   UNL     1      34.202 -20.513 -20.329  0.00  0.00    +0.209 C 
ATOM     13  C   UNL     1      32.768 -20.050 -20.470  0.00  0.00    +0.051 C 
ENDBRANCH  11  12
ENDBRANCH  10  11
ENDBRANCH   1  10
TORSDOF 4
ENDMDL
MODEL 5
REMARK VINA RESULT:      -6.7      1.844      5.542
REMARK  Name = 8434
REMARK  4 active torsions:
REMARK  status: ('A' for Active; 'I' for Inactive)
REMARK    1  A    between atoms: C_1  and  C_10
REMARK    2  A    between atoms: C_6  and  O_7
REMARK    3  A    between atoms: C_10  and  O_11
REMARK    4  A    between atoms: O_11  and  C_12
REMARK                            x       y       z     vdW  Elec       q    Type
REMARK                         _______ _______ _______ _____ _____    ______ ____
ROOT
ATOM      1  C   UNL     1      34.070 -21.684 -19.497  0.00  0.00    +0.076 C 
ATOM      2  C   UNL     1      33.270 -20.724 -20.116  0.00  0.00    +0.010 C 
ATOM      3  C   UNL     1      35.460 -21.581 -19.559  0.00  0.00    +0.010 C 
ATOM      4  C   UNL     1      33.860 -19.659 -20.797  0.00  0.00    +0.037 C 
ATOM      5  C   UNL     1      36.050 -20.515 -20.239  0.00  0.00    +0.037 C 
ATOM      6  C   UNL     1      35.250 -19.554 -20.858  0.00  0.00    +0.134 C 
ENDROOT
BRANCH   6   7
ATOM      7  O   UNL     1      35.826 -18.515 -21.523  0.00  0.00    -0.506 OA
ATOM      8  H   UNL     1      35.356 -17.712 -21.633  0.00  0.00    +0.292 HD
ENDBRANCH   6   7
BRANCH   1  10
ATOM      9  O   UNL     1      33.859 -23.965 -18.835  0.00  0.00    -0.245 OA
ATOM     10  C   UNL     1      33.455 -22.795 -18.788  0.00  0.00    +0.341 C 
BRANCH  10  11
ATOM     11  O   UNL     1      32.372 -22.390 -18.057  0.00  0.00    -0.445 OA
BRANCH  11  12
ATOM     12  C   UNL     1      32.142 -23.062 -16.815  0.00  0.00    +0.209 C 
ATOM     13  C   UNL     1      30.690 -22.885 -16.421  0.00  0.00    +0.051 C 
ENDBRANCH  11  12
ENDBRANCH  10  11
ENDBRANCH   1  10
TORSDOF 4
ENDMDL
MODEL 6
REMARK VINA RESULT:      -6.6      2.013      5.432
REMARK  Name = 8434
REMARK  4 active torsions:
REMARK  status: ('A' for Active; 'I' for Inactive)
REMARK    1  A    between atoms: C_1  and  C_10
REMARK    2  A    between atoms: C_6  and  O_7
REMARK    3  A    between atoms: C_10  and  O_11
REMARK    4  A    between atoms: O_11  and  C_12
REMARK                            x       y       z     vdW  Elec       q    Type
REMARK                         _______ _______ _______ _____ _____    ______ ____
ROOT
ATOM      1  C   UNL     1      34.909 -17.164 -22.768  0.00  0.00    +0.076 C 
ATOM      2  C   UNL     1      35.003 -17.960 -23.909  0.00  0.00    +0.010 C 
ATOM      3  C   UNL     1      34.393 -15.871 -22.859  0.00  0.00    +0.010 C 
ATOM      4  C   UNL     1      34.582 -17.463 -25.142  0.00  0.00    +0.037 C 
ATOM      5  C   UNL     1      33.971 -15.374 -24.093  0.00  0.00    +0.037 C 
ATOM      6  C   UNL     1      34.066 -16.170 -25.234  0.00  0.00    +0.134 C 
ENDROOT
BRANCH   6   7
ATOM      7  O   UNL     1      33.656 -15.685 -26.438  0.00  0.00    -0.506 OA
ATOM      8  H   UNL     1      33.964 -14.852 -26.736  0.00  0.00    +0.292 HD
ENDBRANCH   6   7
BRANCH   1  10
ATOM      9  O   UNL     1      35.414 -17.010 -20.442  0.00  0.00    -0.245 OA
ATOM     10  C   UNL     1      35.349 -17.681 -21.481  0.00  0.00    +0.341 C 
BRANCH  10  11
ATOM     11  O   UNL     1      35.681 -19.006 -21.558  0.00  0.00    -0.445 OA
BRANCH  11  12
ATOM     12  C   UNL     1      35.028 -19.891 -20.641  0.00  0.00    +0.209 C 
ATOM     13  C   UNL     1      33.551 -19.940 -20.972  0.00  0.00    +0.051 C 
ENDBRANCH  11  12
ENDBRANCH  10  11
ENDBRANCH   1  10
TORSDOF 4
ENDMDL
MODEL 7
REMARK VINA RESULT:      -6.5      2.317      5.213
REMARK  Name = 8434
REMARK  4 active torsions:
REMARK  status: ('A' for Active; 'I' for Inactive)
REMARK    1  A    between atoms: C_1  and  C_10
REMARK    2  A    between atoms: C_6  and  O_7
REMARK    3  A    between atoms: C_10  and  O_11
REMARK    4  A    between atoms: O_11  and  C_12
REMARK                            x       y       z     vdW  Elec       q    Type
REMARK                         _______ _______ _______ _____ _____    ______ ____
ROOT
ATOM      1  C   UNL     1      35.026 -17.343 -21.698  0.00  0.00    +0.076 C 
ATOM      2  C   UNL     1      35.085 -17.092 -23.068  0.00  0.00    +0.010 C 
ATOM      3  C   UNL     1      34.720 -16.311 -20.811  0.00  0.00    +0.010 C 
ATOM      4  C   UNL     1      34.837 -15.808 -23.553  0.00  0.00    +0.037 C 
ATOM      5  C   UNL     1      34.470 -15.026 -21.296  0.00  0.00    +0.037 C 
ATOM      6  C   UNL     1      34.529 -14.775 -22.666  0.00  0.00    +0.134 C 
ENDROOT
BRANCH   6   7
ATOM      7  O   UNL     1      34.288 -13.521 -23.139  0.00  0.00    -0.506 OA
ATOM      8  H   UNL     1      34.183 -13.381 -24.060  0.00  0.00    +0.292 HD
ENDBRANCH   6   7
BRANCH   1  10
ATOM      9  O   UNL     1      36.230 -18.978 -20.446  0.00  0.00    -0.245 OA
ATOM     10  C   UNL     1      35.286 -18.682 -21.192  0.00  0.00    +0.341 C 
BRANCH  10  11
ATOM     11  O   UNL     1      34.355 -19.579 -21.640  0.00  0.00    -0.445 OA
BRANCH  11  12
ATOM     12  C   UNL     1      33.170 -19.729 -20.852  0.00  0.00    +0.209 C 
ATOM     13  C   UNL     1      33.347 -20.905 -19.914  0.00  0.00    +0.051 C 
ENDBRANCH  11  12
ENDBRANCH  10  11
ENDBRANCH   1  10
TORSDOF 4
ENDMDL
MODEL 8
REMARK VINA RESULT:      -6.4      1.987      5.476
REMARK  Name = 8434
REMARK  4 active torsions:
REMARK  status: ('A' for Active; 'I' for Inactive)
REMARK    1  A    between atoms: C_1  and  C_10
REMARK    2  A    between atoms: C_6  and  O_7
REMARK    3  A    between atoms: C_10  and  O_11
REMARK    4  A    between atoms: O_11  and  C_12
REMARK                            x       y       z     vdW  Elec       q    Type
REMARK                         _______ _______ _______ _____ _____    ______ ____
ROOT
ATOM      1  C   UNL     1      34.393 -21.457 -19.535  0.00  0.00    +0.076 C 
ATOM      2  C   UNL     1      33.175 -20.886 -19.902  0.00  0.00    +0.010 C 
ATOM      3  C   UNL     1      35.588 -20.922 -20.017  0.00  0.00    +0.010 C 
ATOM      4  C   UNL     1      33.150 -19.781 -20.752  0.00  0.00    +0.037 C 
ATOM      5  C   UNL     1      35.563 -19.815 -20.867  0.00  0.00    +0.037 C 
ATOM      6  C   UNL     1      34.345 -19.245 -21.234  0.00  0.00    +0.134 C 
ENDROOT
BRANCH   6   7
ATOM      7  O   UNL     1      34.320 -18.167 -22.065  0.00  0.00    -0.506 OA
ATOM      8  H   UNL     1      33.961 -18.248 -22.926  0.00  0.00    +0.292 HD
ENDBRANCH   6   7
BRANCH   1  10
ATOM      9  O   UNL     1      33.631 -23.562 -18.715  0.00  0.00    -0.245 OA
ATOM     10  C   UNL     1      34.420 -22.610 -18.649  0.00  0.00    +0.341 C 
BRANCH  10  11
ATOM     11  O   UNL     1      35.429 -22.517 -17.730  0.00  0.00    -0.445 OA
BRANCH  11  12
ATOM     12  C   UNL     1      35.132 -22.947 -16.397  0.00  0.00    +0.209 C 
ATOM     13  C   UNL     1      36.394 -22.877 -15.564  0.00  0.00    +0.051 C 
ENDBRANCH  11  12
ENDBRANCH  10  11
ENDBRANCH   1  10
TORSDOF 4
ENDMDL
MODEL 9
REMARK VINA RESULT:      -6.4      8.207      9.052
REMARK  Name = 8434
REMARK  4 active torsions:
REMARK  status: ('A' for Active; 'I' for Inactive)
REMARK    1  A    between atoms: C_1  and  C_10
REMARK    2  A    between atoms: C_6  and  O_7
REMARK    3  A    between atoms: C_10  and  O_11
REMARK    4  A    between atoms: O_11  and  C_12
REMARK                            x       y       z     vdW  Elec       q    Type
REMARK                         _______ _______ _______ _____ _____    ______ ____
ROOT
ATOM      1  C   UNL     1      29.384 -23.801 -15.942  0.00  0.00    +0.076 C 
ATOM      2  C   UNL     1      30.447 -22.919 -15.752  0.00  0.00    +0.010 C 
ATOM      3  C   UNL     1      29.361 -25.023 -15.269  0.00  0.00    +0.010 C 
ATOM      4  C   UNL     1      31.488 -23.258 -14.888  0.00  0.00    +0.037 C 
ATOM      5  C   UNL     1      30.402 -25.361 -14.404  0.00  0.00    +0.037 C 
ATOM      6  C   UNL     1      31.466 -24.479 -14.214  0.00  0.00    +0.134 C 
ENDROOT
BRANCH   6   7
ATOM      7  O   UNL     1      32.483 -24.810 -13.372  0.00  0.00    -0.506 OA
ATOM      8  H   UNL     1      32.639 -24.299 -12.603  0.00  0.00    +0.292 HD
ENDBRANCH   6   7
BRANCH   1  10
ATOM      9  O   UNL     1      27.718 -24.250 -17.588  0.00  0.00    -0.245 OA
ATOM     10  C   UNL     1      28.298 -23.448 -16.843  0.00  0.00    +0.341 C 
BRANCH  10  11
ATOM     11  O   UNL     1      27.991 -22.117 -16.767  0.00  0.00    -0.445 OA
BRANCH  11  12
ATOM     12  C   UNL     1      26.610 -21.780 -16.600  0.00  0.00    +0.209 C 
ATOM     13  C   UNL     1      26.084 -21.202 -17.897  0.00  0.00    +0.051 C 
ENDBRANCH  11  12
ENDBRANCH  10  11
ENDBRANCH   1  10
TORSDOF 4
ENDMDL
