MODEL 1
REMARK VINA RESULT:      -8.2      0.000      0.000
REMARK  Name = 7619
REMARK  2 active torsions:
REMARK  status: ('A' for Active; 'I' for Inactive)
REMARK    1  A    between atoms: C_3  and  S_10
REMARK    2  A    between atoms: S_10  and  N_12
REMARK                            x       y       z     vdW  Elec       q    Type
REMARK                         _______ _______ _______ _____ _____    ______ ____
ROOT
ATOM      1  S   UNL     1      35.052 -17.204 -23.152  0.00  0.00    -0.046 S 
ATOM      2  N   UNL     1      34.863 -16.847 -20.606  0.00  0.00    -0.391 NA
ATOM      3  C   UNL     1      35.381 -17.605 -21.532  0.00  0.00    +0.201 C 
ATOM      4  C   UNL     1      34.111 -15.866 -22.607  0.00  0.00    +0.058 C 
ATOM      5  C   UNL     1      34.127 -15.837 -21.209  0.00  0.00    +0.121 C 
ATOM      6  C   UNL     1      33.411 -14.912 -23.361  0.00  0.00    +0.008 C 
ATOM      7  C   UNL     1      33.414 -14.815 -20.545  0.00  0.00    +0.085 C 
ATOM      8  C   UNL     1      32.715 -13.910 -22.680  0.00  0.00    -0.004 C 
ATOM      9  C   UNL     1      32.715 -13.861 -21.290  0.00  0.00    -0.019 C 
ENDROOT
BRANCH   3  10
ATOM     10  S   UNL     1      36.382 -18.994 -21.097  0.00  0.00    +0.001 S 
BRANCH  10  12
ATOM     11  O   UNL     1      33.217 -21.910 -19.749  0.00  0.00    -0.351 OA
ATOM     12  N   UNL     1      35.198 -19.938 -20.391  0.00  0.00    -0.217 NA
ATOM     13  C   UNL     1      33.851 -19.925 -20.989  0.00  0.00    +0.116 C 
ATOM     14  C   UNL     1      35.554 -21.315 -20.005  0.00  0.00    +0.116 C 
ATOM     15  C   UNL     1      32.831 -20.573 -20.059  0.00  0.00    +0.160 C 
ATOM     16  C   UNL     1      34.487 -21.925 -19.100  0.00  0.00    +0.160 C 
ENDBRANCH  10  12
ENDBRANCH   3  10
TORSDOF 2
ENDMDL
MODEL 2
REMARK VINA RESULT:      -8.2      2.294      6.017
REMARK  Name = 7619
REMARK  2 active torsions:
REMARK  status: ('A' for Active; 'I' for Inactive)
REMARK    1  A    between atoms: C_3  and  S_10
REMARK    2  A    between atoms: S_10  and  N_12
REMARK                            x       y       z     vdW  Elec       q    Type
REMARK                         _______ _______ _______ _____ _____    ______ ____
ROOT
ATOM      1  S   UNL     1      36.496 -18.936 -21.314  0.00  0.00    -0.046 S 
ATOM      2  N   UNL     1      33.955 -18.679 -21.668  0.00  0.00    -0.391 NA
ATOM      3  C   UNL     1      35.121 -18.184 -21.977  0.00  0.00    +0.201 C 
ATOM      4  C   UNL     1      35.465 -20.062 -20.512  0.00  0.00    +0.058 C 
ATOM      5  C   UNL     1      34.135 -19.764 -20.823  0.00  0.00    +0.121 C 
ATOM      6  C   UNL     1      35.809 -21.130 -19.669  0.00  0.00    +0.008 C 
ATOM      7  C   UNL     1      33.114 -20.567 -20.268  0.00  0.00    +0.085 C 
ATOM      8  C   UNL     1      34.780 -21.909 -19.134  0.00  0.00    -0.004 C 
ATOM      9  C   UNL     1      33.449 -21.633 -19.429  0.00  0.00    -0.019 C 
ENDROOT
BRANCH   3  10
ATOM     10  S   UNL     1      35.247 -16.783 -23.046  0.00  0.00    +0.001 S 
BRANCH  10  12
ATOM     11  O   UNL     1      32.658 -13.703 -21.010  0.00  0.00    -0.351 OA
ATOM     12  N   UNL     1      34.106 -15.811 -22.309  0.00  0.00    -0.217 NA
ATOM     13  C   UNL     1      34.273 -15.506 -20.877  0.00  0.00    +0.116 C 
ATOM     14  C   UNL     1      33.670 -14.597 -23.024  0.00  0.00    +0.116 C 
ATOM     15  C   UNL     1      33.007 -14.887 -20.295  0.00  0.00    +0.160 C 
ATOM     16  C   UNL     1      32.419 -14.002 -22.384  0.00  0.00    +0.160 C 
ENDBRANCH  10  12
ENDBRANCH   3  10
TORSDOF 2
ENDMDL
MODEL 3
REMARK VINA RESULT:      -8.0      1.465      2.235
REMARK  Name = 7619
REMARK  2 active torsions:
REMARK  status: ('A' for Active; 'I' for Inactive)
REMARK    1  A    between atoms: C_3  and  S_10
REMARK    2  A    between atoms: S_10  and  N_12
REMARK                            x       y       z     vdW  Elec       q    Type
REMARK                         _______ _______ _______ _____ _____    ______ ____
ROOT
ATOM      1  S   UNL     1      34.952 -16.735 -21.214  0.00  0.00    -0.046 S 
ATOM      2  N   UNL     1      35.655 -18.292 -23.145  0.00  0.00    -0.391 NA
ATOM      3  C   UNL     1      35.716 -18.114 -21.855  0.00  0.00    +0.201 C 
ATOM      4  C   UNL     1      34.467 -16.290 -22.807  0.00  0.00    +0.058 C 
ATOM      5  C   UNL     1      34.936 -17.249 -23.711  0.00  0.00    +0.121 C 
ATOM      6  C   UNL     1      33.725 -15.176 -23.227  0.00  0.00    +0.008 C 
ATOM      7  C   UNL     1      34.652 -17.081 -25.084  0.00  0.00    +0.085 C 
ATOM      8  C   UNL     1      33.456 -15.034 -24.590  0.00  0.00    -0.004 C 
ATOM      9  C   UNL     1      33.912 -15.973 -25.508  0.00  0.00    -0.019 C 
ENDROOT
BRANCH   3  10
ATOM     10  S   UNL     1      36.567 -19.273 -20.829  0.00  0.00    +0.001 S 
BRANCH  10  12
ATOM     11  O   UNL     1      33.034 -21.881 -19.801  0.00  0.00    -0.351 OA
ATOM     12  N   UNL     1      35.239 -20.101 -20.242  0.00  0.00    -0.217 NA
ATOM     13  C   UNL     1      33.962 -19.969 -20.967  0.00  0.00    +0.116 C 
ATOM     14  C   UNL     1      35.429 -21.502 -19.828  0.00  0.00    +0.116 C 
ATOM     15  C   UNL     1      32.803 -20.516 -20.142  0.00  0.00    +0.160 C 
ATOM     16  C   UNL     1      34.229 -22.007 -19.032  0.00  0.00    +0.160 C 
ENDBRANCH  10  12
ENDBRANCH   3  10
TORSDOF 2
ENDMDL
MODEL 4
REMARK VINA RESULT:      -7.9      6.436      8.674
REMARK  Name = 7619
REMARK  2 active torsions:
REMARK  status: ('A' for Active; 'I' for Inactive)
REMARK    1  A    between atoms: C_3  and  S_10
REMARK    2  A    between atoms: S_10  and  N_12
REMARK                            x       y       z     vdW  Elec       q    Type
REMARK                         _______ _______ _______ _____ _____    ______ ____
ROOT
ATOM      1  S   UNL     1      36.478 -22.858 -15.804  0.00  0.00    -0.046 S 
ATOM      2  N   UNL     1      34.122 -23.462 -16.659  0.00  0.00    -0.391 NA
ATOM      3  C   UNL     1      34.957 -23.608 -15.668  0.00  0.00    +0.201 C 
ATOM      4  C   UNL     1      36.017 -22.254 -17.352  0.00  0.00    +0.058 C 
ATOM      5  C   UNL     1      34.718 -22.683 -17.640  0.00  0.00    +0.121 C 
ATOM      6  C   UNL     1      36.752 -21.460 -18.245  0.00  0.00    +0.008 C 
ATOM      7  C   UNL     1      34.136 -22.301 -18.869  0.00  0.00    +0.085 C 
ATOM      8  C   UNL     1      36.153 -21.094 -19.454  0.00  0.00    -0.004 C 
ATOM      9  C   UNL     1      34.862 -21.509 -19.763  0.00  0.00    -0.019 C 
ENDROOT
BRANCH   3  10
ATOM     10  S   UNL     1      34.505 -24.553 -14.246  0.00  0.00    +0.001 S 
BRANCH  10  12
ATOM     11  O   UNL     1      37.973 -24.341 -11.371  0.00  0.00    -0.351 OA
ATOM     12  N   UNL     1      35.898 -24.329 -13.351  0.00  0.00    -0.217 NA
ATOM     13  C   UNL     1      35.807 -23.540 -12.109  0.00  0.00    +0.116 C 
ATOM     14  C   UNL     1      36.771 -25.496 -13.131  0.00  0.00    +0.116 C 
ATOM     15  C   UNL     1      37.192 -23.168 -11.591  0.00  0.00    +0.160 C 
ATOM     16  C   UNL     1      38.131 -25.070 -12.586  0.00  0.00    +0.160 C 
ENDBRANCH  10  12
ENDBRANCH   3  10
TORSDOF 2
ENDMDL
MODEL 5
REMARK VINA RESULT:      -7.8      6.091      8.240
REMARK  Name = 7619
REMARK  2 active torsions:
REMARK  status: ('A' for Active; 'I' for Inactive)
REMARK    1  A    between atoms: C_3  and  S_10
REMARK    2  A    between atoms: S_10  and  N_12
REMARK                            x       y       z     vdW  Elec       q    Type
REMARK                         _______ _______ _______ _____ _____    ______ ____
ROOT
ATOM      1  S   UNL     1      33.269 -23.279 -17.187  0.00  0.00    -0.046 S 
ATOM      2  N   UNL     1      35.677 -22.957 -16.324  0.00  0.00    -0.391 NA
ATOM      3  C   UNL     1      34.515 -23.482 -16.047  0.00  0.00    +0.201 C 
ATOM      4  C   UNL     1      34.358 -22.393 -18.188  0.00  0.00    +0.058 C 
ATOM      5  C   UNL     1      35.604 -22.326 -17.557  0.00  0.00    +0.121 C 
ATOM      6  C   UNL     1      34.126 -21.803 -19.440  0.00  0.00    +0.008 C 
ATOM      7  C   UNL     1      36.654 -21.640 -18.205  0.00  0.00    +0.085 C 
ATOM      8  C   UNL     1      35.183 -21.131 -20.060  0.00  0.00    -0.004 C 
ATOM      9  C   UNL     1      36.431 -21.050 -19.453  0.00  0.00    -0.019 C 
ENDROOT
BRANCH   3  10
ATOM     10  S   UNL     1      34.267 -24.364 -14.537  0.00  0.00    +0.001 S 
BRANCH  10  12
ATOM     11  O   UNL     1      38.214 -26.337 -13.606  0.00  0.00    -0.351 OA
ATOM     12  N   UNL     1      35.833 -24.901 -14.308  0.00  0.00    -0.217 NA
ATOM     13  C   UNL     1      36.369 -24.915 -12.935  0.00  0.00    +0.116 C 
ATOM     14  C   UNL     1      36.252 -26.125 -15.013  0.00  0.00    +0.116 C 
ATOM     15  C   UNL     1      37.879 -25.123 -12.936  0.00  0.00    +0.160 C 
ATOM     16  C   UNL     1      37.767 -26.300 -14.959  0.00  0.00    +0.160 C 
ENDBRANCH  10  12
ENDBRANCH   3  10
TORSDOF 2
ENDMDL
MODEL 6
REMARK VINA RESULT:      -7.8      2.339      6.144
REMARK  Name = 7619
REMARK  2 active torsions:
REMARK  status: ('A' for Active; 'I' for Inactive)
REMARK    1  A    between atoms: C_3  and  S_10
REMARK    2  A    between atoms: S_10  and  N_12
REMARK                            x       y       z     vdW  Elec       q    Type
REMARK                         _______ _______ _______ _____ _____    ______ ____
ROOT
ATOM      1  S   UNL     1      33.546 -19.398 -21.477  0.00  0.00    -0.046 S 
ATOM      2  N   UNL     1      36.093 -19.370 -21.076  0.00  0.00    -0.391 NA
ATOM      3  C   UNL     1      35.123 -18.821 -21.754  0.00  0.00    +0.201 C 
ATOM      4  C   UNL     1      34.180 -20.512 -20.324  0.00  0.00    +0.058 C 
ATOM      5  C   UNL     1      35.566 -20.347 -20.244  0.00  0.00    +0.121 C 
ATOM      6  C   UNL     1      33.499 -21.461 -19.545  0.00  0.00    +0.008 C 
ATOM      7  C   UNL     1      36.295 -21.165 -19.354  0.00  0.00    +0.085 C 
ATOM      8  C   UNL     1      34.244 -22.257 -18.671  0.00  0.00    -0.004 C 
ATOM      9  C   UNL     1      35.623 -22.112 -18.575  0.00  0.00    -0.019 C 
ENDROOT
BRANCH   3  10
ATOM     10  S   UNL     1      35.456 -17.530 -22.913  0.00  0.00    +0.001 S 
BRANCH  10  12
ATOM     11  O   UNL     1      33.147 -14.011 -21.295  0.00  0.00    -0.351 OA
ATOM     12  N   UNL     1      34.406 -16.381 -22.306  0.00  0.00    -0.217 NA
ATOM     13  C   UNL     1      34.622 -15.899 -20.930  0.00  0.00    +0.116 C 
ATOM     14  C   UNL     1      34.050 -15.245 -23.176  0.00  0.00    +0.116 C 
ATOM     15  C   UNL     1      33.418 -15.110 -20.428  0.00  0.00    +0.160 C 
ATOM     16  C   UNL     1      32.860 -14.474 -22.613  0.00  0.00    +0.160 C 
ENDBRANCH  10  12
ENDBRANCH   3  10
TORSDOF 2
ENDMDL
MODEL 7
REMARK VINA RESULT:      -7.7      1.491      2.189
REMARK  Name = 7619
REMARK  2 active torsions:
REMARK  status: ('A' for Active; 'I' for Inactive)
REMARK    1  A    between atoms: C_3  and  S_10
REMARK    2  A    between atoms: S_10  and  N_12
REMARK                            x       y       z     vdW  Elec       q    Type
REMARK                         _______ _______ _______ _____ _____    ______ ____
ROOT
ATOM      1  S   UNL     1      34.930 -18.048 -24.248  0.00  0.00    -0.046 S 
ATOM      2  N   UNL     1      35.207 -16.365 -22.314  0.00  0.00    -0.391 NA
ATOM      3  C   UNL     1      35.460 -17.585 -22.699  0.00  0.00    +0.201 C 
ATOM      4  C   UNL     1      34.280 -16.467 -24.473  0.00  0.00    +0.058 C 
ATOM      5  C   UNL     1      34.527 -15.705 -23.327  0.00  0.00    +0.121 C 
ATOM      6  C   UNL     1      33.602 -15.939 -25.583  0.00  0.00    +0.008 C 
ATOM      7  C   UNL     1      34.076 -14.367 -23.293  0.00  0.00    +0.085 C 
ATOM      8  C   UNL     1      33.167 -14.613 -25.525  0.00  0.00    -0.004 C 
ATOM      9  C   UNL     1      33.400 -13.835 -24.395  0.00  0.00    -0.019 C 
ENDROOT
BRANCH   3  10
ATOM     10  S   UNL     1      36.322 -18.701 -21.634  0.00  0.00    +0.001 S 
BRANCH  10  12
ATOM     11  O   UNL     1      32.844 -20.802 -19.679  0.00  0.00    -0.351 OA
ATOM     12  N   UNL     1      35.015 -19.608 -21.122  0.00  0.00    -0.217 NA
ATOM     13  C   UNL     1      35.231 -20.590 -20.045  0.00  0.00    +0.116 C 
ATOM     14  C   UNL     1      33.735 -18.910 -20.904  0.00  0.00    +0.116 C 
ATOM     15  C   UNL     1      34.043 -21.537 -19.918  0.00  0.00    +0.160 C 
ATOM     16  C   UNL     1      32.587 -19.903 -20.755  0.00  0.00    +0.160 C 
ENDBRANCH  10  12
ENDBRANCH   3  10
TORSDOF 2
ENDMDL
MODEL 8
REMARK VINA RESULT:      -7.6      8.770     10.302
REMARK  Name = 7619
REMARK  2 active torsions:
REMARK  status: ('A' for Active; 'I' for Inactive)
REMARK    1  A    between atoms: C_3  and  S_10
REMARK    2  A    between atoms: S_10  and  N_12
REMARK                            x       y       z     vdW  Elec       q    Type
REMARK                         _______ _______ _______ _____ _____    ______ ____
ROOT
ATOM      1  S   UNL     1      35.077 -23.573 -14.844  0.00  0.00    -0.046 S 
ATOM      2  N   UNL     1      33.568 -24.216 -12.855  0.00  0.00    -0.391 NA
ATOM      3  C   UNL     1      34.806 -24.087 -13.245  0.00  0.00    +0.201 C 
ATOM      4  C   UNL     1      33.372 -23.498 -15.086  0.00  0.00    +0.058 C 
ATOM      5  C   UNL     1      32.727 -23.879 -13.905  0.00  0.00    +0.121 C 
ATOM      6  C   UNL     1      32.657 -23.129 -16.236  0.00  0.00    +0.008 C 
ATOM      7  C   UNL     1      31.315 -23.891 -13.878  0.00  0.00    +0.085 C 
ATOM      8  C   UNL     1      31.261 -23.149 -16.183  0.00  0.00    -0.004 C 
ATOM      9  C   UNL     1      30.597 -23.524 -15.020  0.00  0.00    -0.019 C 
ENDROOT
BRANCH   3  10
ATOM     10  S   UNL     1      36.137 -24.441 -12.139  0.00  0.00    +0.001 S 
BRANCH  10  12
ATOM     11  O   UNL     1      39.175 -26.672 -14.615  0.00  0.00    -0.351 OA
ATOM     12  N   UNL     1      37.198 -25.115 -13.241  0.00  0.00    -0.217 NA
ATOM     13  C   UNL     1      38.643 -24.927 -13.019  0.00  0.00    +0.116 C 
ATOM     14  C   UNL     1      36.942 -26.496 -13.687  0.00  0.00    +0.116 C 
ATOM     15  C   UNL     1      39.444 -25.319 -14.255  0.00  0.00    +0.160 C 
ATOM     16  C   UNL     1      37.790 -26.845 -14.907  0.00  0.00    +0.160 C 
ENDBRANCH  10  12
ENDBRANCH   3  10
TORSDOF 2
ENDMDL
MODEL 9
REMARK VINA RESULT:      -7.6      2.771      5.989
REMARK  Name = 7619
REMARK  2 active torsions:
REMARK  status: ('A' for Active; 'I' for Inactive)
REMARK    1  A    between atoms: C_3  and  S_10
REMARK    2  A    between atoms: S_10  and  N_12
REMARK                            x       y       z     vdW  Elec       q    Type
REMARK                         _______ _______ _______ _____ _____    ______ ____
ROOT
ATOM      1  S   UNL     1      36.158 -18.453 -21.189  0.00  0.00    -0.046 S 
ATOM      2  N   UNL     1      33.609 -18.176 -20.912  0.00  0.00    -0.391 NA
ATOM      3  C   UNL     1      34.709 -17.563 -21.253  0.00  0.00    +0.201 C 
ATOM      4  C   UNL     1      35.264 -19.825 -20.648  0.00  0.00    +0.058 C 
ATOM      5  C   UNL     1      33.911 -19.483 -20.561  0.00  0.00    +0.121 C 
ATOM      6  C   UNL     1      35.727 -21.111 -20.325  0.00  0.00    +0.008 C 
ATOM      7  C   UNL     1      32.991 -20.465 -20.134  0.00  0.00    +0.085 C 
ATOM      8  C   UNL     1      34.796 -22.064 -19.906  0.00  0.00    -0.004 C 
ATOM      9  C   UNL     1      33.445 -21.747 -19.811  0.00  0.00    -0.019 C 
ENDROOT
BRANCH   3  10
ATOM     10  S   UNL     1      34.674 -15.871 -21.759  0.00  0.00    +0.001 S 
BRANCH  10  12
ATOM     11  O   UNL     1      33.974 -16.245 -26.198  0.00  0.00    -0.351 OA
ATOM     12  N   UNL     1      34.191 -16.099 -23.342  0.00  0.00    -0.217 NA
ATOM     13  C   UNL     1      33.957 -14.907 -24.176  0.00  0.00    +0.116 C 
ATOM     14  C   UNL     1      34.892 -17.126 -24.135  0.00  0.00    +0.116 C 
ATOM     15  C   UNL     1      33.230 -15.272 -25.466  0.00  0.00    +0.160 C 
ATOM     16  C   UNL     1      34.139 -17.432 -25.426  0.00  0.00    +0.160 C 
ENDBRANCH  10  12
ENDBRANCH   3  10
TORSDOF 2
ENDMDL
