MODEL 1
REMARK VINA RESULT:      -8.2      0.000      0.000
REMARK  Name = 4369103
REMARK  5 active torsions:
REMARK  status: ('A' for Active; 'I' for Inactive)
REMARK    1  A    between atoms: N_5  and  C_20
REMARK    2  A    between atoms: C_6  and  O_18
REMARK    3  A    between atoms: C_11  and  S_12
REMARK    4  A    between atoms: S_12  and  N_15
REMARK    5  A    between atoms: C_20  and  C_22
REMARK                            x       y       z     vdW  Elec       q    Type
REMARK                         _______ _______ _______ _____ _____    ______ ____
ROOT
ATOM      1  S   UNL     1      34.172 -15.760 -23.371  0.00  0.00    +0.069 S 
ATOM      2  S   UNL     1      33.145 -12.964 -23.399  0.00  0.00    -0.048 S 
ATOM      3  O   UNL     1      35.566 -15.374 -23.302  0.00  0.00    -0.152 OA
ATOM      4  O   UNL     1      33.497 -16.011 -24.629  0.00  0.00    -0.152 OA
ATOM      5  N   UNL     1      33.861 -17.059 -22.268  0.00  0.00    -0.147 NA
ATOM      6  C   UNL     1      32.774 -15.687 -20.462  0.00  0.00    +0.152 C 
ATOM      7  C   UNL     1      33.907 -16.680 -20.809  0.00  0.00    +0.130 C 
ATOM      8  C   UNL     1      32.745 -14.465 -21.340  0.00  0.00    +0.032 C 
ATOM      9  C   UNL     1      33.305 -14.442 -22.598  0.00  0.00    +0.151 C 
ATOM     10  C   UNL     1      32.151 -13.202 -21.036  0.00  0.00    +0.027 C 
ATOM     11  C   UNL     1      32.293 -12.296 -22.069  0.00  0.00    +0.152 C 
ENDROOT
BRANCH  11  12
ATOM     12  S   UNL     1      31.788 -10.627 -22.282  0.00  0.00    +0.063 S 
ATOM     13  O   UNL     1      32.725  -9.987 -23.189  0.00  0.00    -0.153 OA
ATOM     14  O   UNL     1      30.365 -10.620 -22.575  0.00  0.00    -0.153 OA
BRANCH  12  15
ATOM     15  N   UNL     1      32.034 -10.020 -20.706  0.00  0.00    -0.203 NA
ATOM     16  H   UNL     1      33.031  -9.869 -20.551  0.00  0.00    +0.144 HD
ATOM     17  H   UNL     1      31.682 -10.692 -20.024  0.00  0.00    +0.144 HD
ENDBRANCH  12  15
ENDBRANCH  11  12
BRANCH   6  18
ATOM     18  O   UNL     1      31.535 -16.397 -20.529  0.00  0.00    -0.379 OA
ATOM     19  H   UNL     1      30.990 -16.171 -19.759  0.00  0.00    +0.211 HD
ENDBRANCH   6  18
BRANCH   5  20
ATOM     20  C   UNL     1      34.564 -18.332 -22.555  0.00  0.00    +0.129 C 
BRANCH  20  22
ATOM     21  S   UNL     1      35.630 -20.098 -20.721  0.00  0.00    -0.089 S 
ATOM     22  C   UNL     1      34.303 -19.368 -21.499  0.00  0.00    +0.025 C 
ATOM     23  C   UNL     1      33.098 -19.825 -21.056  0.00  0.00    +0.004 C 
ATOM     24  C   UNL     1      33.258 -20.811 -20.042  0.00  0.00    +0.007 C 
ATOM     25  C   UNL     1      34.584 -21.055 -19.762  0.00  0.00    +0.035 C 
ENDBRANCH  20  22
ENDBRANCH   5  20
TORSDOF 5
ENDMDL
MODEL 2
REMARK VINA RESULT:      -7.8      6.602     10.245
REMARK  Name = 4369103
REMARK  5 active torsions:
REMARK  status: ('A' for Active; 'I' for Inactive)
REMARK    1  A    between atoms: N_5  and  C_20
REMARK    2  A    between atoms: C_6  and  O_18
REMARK    3  A    between atoms: C_11  and  S_12
REMARK    4  A    between atoms: S_12  and  N_15
REMARK    5  A    between atoms: C_20  and  C_22
REMARK                            x       y       z     vdW  Elec       q    Type
REMARK                         _______ _______ _______ _____ _____    ______ ____
ROOT
ATOM      1  S   UNL     1      34.054 -22.720 -18.887  0.00  0.00    +0.069 S 
ATOM      2  S   UNL     1      32.969 -23.755 -16.312  0.00  0.00    -0.048 S 
ATOM      3  O   UNL     1      33.097 -21.638 -18.992  0.00  0.00    -0.152 OA
ATOM      4  O   UNL     1      33.829 -24.017 -19.492  0.00  0.00    -0.152 OA
ATOM      5  N   UNL     1      35.639 -22.150 -19.289  0.00  0.00    -0.147 NA
ATOM      6  C   UNL     1      36.509 -21.948 -16.938  0.00  0.00    +0.152 C 
ATOM      7  C   UNL     1      36.257 -21.218 -18.277  0.00  0.00    +0.130 C 
ATOM      8  C   UNL     1      35.290 -22.629 -16.376  0.00  0.00    +0.032 C 
ATOM      9  C   UNL     1      34.221 -23.001 -17.161  0.00  0.00    +0.151 C 
ATOM     10  C   UNL     1      35.060 -22.995 -15.015  0.00  0.00    +0.027 C 
ATOM     11  C   UNL     1      33.839 -23.617 -14.840  0.00  0.00    +0.152 C 
ENDROOT
BRANCH  11  12
ATOM     12  S   UNL     1      33.016 -24.277 -13.436  0.00  0.00    +0.063 S 
ATOM     13  O   UNL     1      32.135 -25.339 -13.891  0.00  0.00    -0.153 OA
ATOM     14  O   UNL     1      34.012 -24.540 -12.411  0.00  0.00    -0.153 OA
BRANCH  12  15
ATOM     15  N   UNL     1      32.073 -22.935 -12.964  0.00  0.00    -0.203 NA
ATOM     16  H   UNL     1      31.862 -23.001 -11.968  0.00  0.00    +0.144 HD
ATOM     17  H   UNL     1      31.205 -22.926 -13.498  0.00  0.00    +0.144 HD
ENDBRANCH  12  15
ENDBRANCH  11  12
BRANCH   6  18
ATOM     18  O   UNL     1      37.571 -22.884 -17.143  0.00  0.00    -0.379 OA
ATOM     19  H   UNL     1      37.668 -23.441 -16.355  0.00  0.00    +0.211 HD
ENDBRANCH   6  18
BRANCH   5  20
ATOM     20  C   UNL     1      35.825 -21.689 -20.686  0.00  0.00    +0.129 C 
BRANCH  20  22
ATOM     21  S   UNL     1      36.617 -19.061 -20.978  0.00  0.00    -0.089 S 
ATOM     22  C   UNL     1      35.410 -20.256 -20.863  0.00  0.00    +0.025 C 
ATOM     23  C   UNL     1      34.144 -19.758 -20.950  0.00  0.00    +0.004 C 
ATOM     24  C   UNL     1      34.154 -18.343 -21.116  0.00  0.00    +0.007 C 
ATOM     25  C   UNL     1      35.434 -17.835 -21.149  0.00  0.00    +0.035 C 
ENDBRANCH  20  22
ENDBRANCH   5  20
TORSDOF 5
ENDMDL
MODEL 3
REMARK VINA RESULT:      -7.4     10.352     12.114
REMARK  Name = 4369103
REMARK  5 active torsions:
REMARK  status: ('A' for Active; 'I' for Inactive)
REMARK    1  A    between atoms: N_5  and  C_20
REMARK    2  A    between atoms: C_6  and  O_18
REMARK    3  A    between atoms: C_11  and  S_12
REMARK    4  A    between atoms: S_12  and  N_15
REMARK    5  A    between atoms: C_20  and  C_22
REMARK                            x       y       z     vdW  Elec       q    Type
REMARK                         _______ _______ _______ _____ _____    ______ ____
ROOT
ATOM      1  S   UNL     1      31.887 -24.312 -13.905  0.00  0.00    +0.069 S 
ATOM      2  S   UNL     1      34.863 -24.191 -13.852  0.00  0.00    -0.048 S 
ATOM      3  O   UNL     1      31.710 -23.330 -12.854  0.00  0.00    -0.152 OA
ATOM      4  O   UNL     1      31.949 -25.734 -13.635  0.00  0.00    -0.152 OA
ATOM      5  N   UNL     1      30.773 -24.006 -15.195  0.00  0.00    -0.147 NA
ATOM      6  C   UNL     1      32.404 -22.909 -16.765  0.00  0.00    +0.152 C 
ATOM      7  C   UNL     1      31.064 -22.768 -16.007  0.00  0.00    +0.130 C 
ATOM      8  C   UNL     1      33.569 -23.266 -15.883  0.00  0.00    +0.032 C 
ATOM      9  C   UNL     1      33.413 -23.884 -14.663  0.00  0.00    +0.151 C 
ATOM     10  C   UNL     1      34.954 -23.048 -16.157  0.00  0.00    +0.027 C 
ATOM     11  C   UNL     1      35.767 -23.505 -15.138  0.00  0.00    +0.152 C 
ENDROOT
BRANCH  11  12
ATOM     12  S   UNL     1      37.507 -23.520 -14.903  0.00  0.00    +0.063 S 
ATOM     13  O   UNL     1      38.110 -22.736 -15.968  0.00  0.00    -0.153 OA
ATOM     14  O   UNL     1      37.778 -23.196 -13.513  0.00  0.00    -0.153 OA
BRANCH  12  15
ATOM     15  N   UNL     1      37.846 -25.172 -15.166  0.00  0.00    -0.203 NA
ATOM     16  H   UNL     1      38.801 -25.374 -14.871  0.00  0.00    +0.144 HD
ATOM     17  H   UNL     1      37.744 -25.386 -16.158  0.00  0.00    +0.144 HD
ENDBRANCH  12  15
ENDBRANCH  11  12
BRANCH   6  18
ATOM     18  O   UNL     1      32.223 -23.884 -17.795  0.00  0.00    -0.379 OA
ATOM     19  H   UNL     1      32.042 -24.749 -17.395  0.00  0.00    +0.211 HD
ENDBRANCH   6  18
BRANCH   5  20
ATOM     20  C   UNL     1      29.338 -24.149 -14.857  0.00  0.00    +0.129 C 
BRANCH  20  22
ATOM     21  S   UNL     1      27.475 -22.162 -15.306  0.00  0.00    -0.089 S 
ATOM     22  C   UNL     1      28.455 -23.444 -15.848  0.00  0.00    +0.025 C 
ATOM     23  C   UNL     1      28.323 -23.701 -17.180  0.00  0.00    +0.004 C 
ATOM     24  C   UNL     1      27.386 -22.817 -17.788  0.00  0.00    +0.007 C 
ATOM     25  C   UNL     1      26.850 -21.928 -16.882  0.00  0.00    +0.035 C 
ENDBRANCH  20  22
ENDBRANCH   5  20
TORSDOF 5
ENDMDL
MODEL 4
REMARK VINA RESULT:      -7.4     11.733     13.591
REMARK  Name = 4369103
REMARK  5 active torsions:
REMARK  status: ('A' for Active; 'I' for Inactive)
REMARK    1  A    between atoms: N_5  and  C_20
REMARK    2  A    between atoms: C_6  and  O_18
REMARK    3  A    between atoms: C_11  and  S_12
REMARK    4  A    between atoms: S_12  and  N_15
REMARK    5  A    between atoms: C_20  and  C_22
REMARK                            x       y       z     vdW  Elec       q    Type
REMARK                         _______ _______ _______ _____ _____    ______ ____
ROOT
ATOM      1  S   UNL     1      35.371 -24.078 -12.380  0.00  0.00    +0.069 S 
ATOM      2  S   UNL     1      38.170 -24.951 -12.904  0.00  0.00    -0.048 S 
ATOM      3  O   UNL     1      35.753 -22.865 -11.687  0.00  0.00    -0.152 OA
ATOM      4  O   UNL     1      35.122 -25.324 -11.684  0.00  0.00    -0.152 OA
ATOM      5  N   UNL     1      34.073 -23.750 -13.479  0.00  0.00    -0.147 NA
ATOM      6  C   UNL     1      35.448 -23.691 -15.584  0.00  0.00    +0.152 C 
ATOM      7  C   UNL     1      34.451 -22.925 -14.683  0.00  0.00    +0.130 C 
ATOM      8  C   UNL     1      36.670 -24.184 -14.858  0.00  0.00    +0.032 C 
ATOM      9  C   UNL     1      36.691 -24.389 -13.497  0.00  0.00    +0.151 C 
ATOM     10  C   UNL     1      37.935 -24.518 -15.431  0.00  0.00    +0.027 C 
ATOM     11  C   UNL     1      38.841 -24.951 -14.483  0.00  0.00    +0.152 C 
ENDROOT
BRANCH  11  12
ATOM     12  S   UNL     1      40.511 -25.488 -14.572  0.00  0.00    +0.063 S 
ATOM     13  O   UNL     1      41.364 -24.315 -14.486  0.00  0.00    -0.153 OA
ATOM     14  O   UNL     1      40.682 -26.588 -13.639  0.00  0.00    -0.153 OA
BRANCH  12  15
ATOM     15  N   UNL     1      40.560 -26.097 -16.166  0.00  0.00    -0.203 NA
ATOM     16  H   UNL     1      41.527 -26.123 -16.490  0.00  0.00    +0.144 HD
ATOM     17  H   UNL     1      40.012 -25.494 -16.777  0.00  0.00    +0.144 HD
ENDBRANCH  12  15
ENDBRANCH  11  12
BRANCH   6  18
ATOM     18  O   UNL     1      34.742 -24.773 -16.195  0.00  0.00    -0.379 OA
ATOM     19  H   UNL     1      33.803 -24.723 -15.957  0.00  0.00    +0.211 HD
ENDBRANCH   6  18
BRANCH   5  20
ATOM     20  C   UNL     1      32.798 -23.315 -12.861  0.00  0.00    +0.129 C 
BRANCH  20  22
ATOM     21  S   UNL     1      30.984 -25.082 -13.958  0.00  0.00    -0.089 S 
ATOM     22  C   UNL     1      31.629 -23.517 -13.783  0.00  0.00    +0.025 C 
ATOM     23  C   UNL     1      30.985 -22.578 -14.533  0.00  0.00    +0.004 C 
ATOM     24  C   UNL     1      29.921 -23.155 -15.284  0.00  0.00    +0.007 C 
ATOM     25  C   UNL     1      29.808 -24.511 -15.064  0.00  0.00    +0.035 C 
ENDBRANCH  20  22
ENDBRANCH   5  20
TORSDOF 5
ENDMDL
MODEL 5
REMARK VINA RESULT:      -7.3      7.619     11.638
REMARK  Name = 4369103
REMARK  5 active torsions:
REMARK  status: ('A' for Active; 'I' for Inactive)
REMARK    1  A    between atoms: N_5  and  C_20
REMARK    2  A    between atoms: C_6  and  O_18
REMARK    3  A    between atoms: C_11  and  S_12
REMARK    4  A    between atoms: S_12  and  N_15
REMARK    5  A    between atoms: C_20  and  C_22
REMARK                            x       y       z     vdW  Elec       q    Type
REMARK                         _______ _______ _______ _____ _____    ______ ____
ROOT
ATOM      1  S   UNL     1      34.088 -23.458 -16.810  0.00  0.00    +0.069 S 
ATOM      2  S   UNL     1      34.657 -24.468 -14.065  0.00  0.00    -0.048 S 
ATOM      3  O   UNL     1      33.013 -22.582 -16.393  0.00  0.00    -0.152 OA
ATOM      4  O   UNL     1      33.854 -24.818 -17.251  0.00  0.00    -0.152 OA
ATOM      5  N   UNL     1      35.114 -22.641 -17.940  0.00  0.00    -0.147 NA
ATOM      6  C   UNL     1      36.978 -22.098 -16.340  0.00  0.00    +0.152 C 
ATOM      7  C   UNL     1      35.955 -21.534 -17.353  0.00  0.00    +0.130 C 
ATOM      8  C   UNL     1      36.363 -22.944 -15.259  0.00  0.00    +0.032 C 
ATOM      9  C   UNL     1      35.144 -23.567 -15.409  0.00  0.00    +0.151 C 
ATOM     10  C   UNL     1      36.917 -23.238 -13.976  0.00  0.00    +0.027 C 
ATOM     11  C   UNL     1      36.096 -24.057 -13.227  0.00  0.00    +0.152 C 
ENDROOT
BRANCH  11  12
ATOM     12  S   UNL     1      36.230 -24.745 -11.616  0.00  0.00    +0.063 S 
ATOM     13  O   UNL     1      37.215 -23.972 -10.879  0.00  0.00    -0.153 OA
ATOM     14  O   UNL     1      34.888 -24.917 -11.085  0.00  0.00    -0.153 OA
BRANCH  12  15
ATOM     15  N   UNL     1      36.884 -26.278 -11.982  0.00  0.00    -0.203 NA
ATOM     16  H   UNL     1      37.879 -26.184 -12.185  0.00  0.00    +0.144 HD
ATOM     17  H   UNL     1      36.405 -26.667 -12.794  0.00  0.00    +0.144 HD
ENDBRANCH  12  15
ENDBRANCH  11  12
BRANCH   6  18
ATOM     18  O   UNL     1      37.958 -22.836 -17.074  0.00  0.00    -0.379 OA
ATOM     19  H   UNL     1      38.571 -22.220 -17.507  0.00  0.00    +0.211 HD
ENDBRANCH   6  18
BRANCH   5  20
ATOM     20  C   UNL     1      34.486 -22.265 -19.229  0.00  0.00    +0.129 C 
BRANCH  20  22
ATOM     21  S   UNL     1      34.252 -19.906 -20.642  0.00  0.00    -0.089 S 
ATOM     22  C   UNL     1      35.187 -21.106 -19.879  0.00  0.00    +0.025 C 
ATOM     23  C   UNL     1      36.529 -20.872 -19.944  0.00  0.00    +0.004 C 
ATOM     24  C   UNL     1      36.810 -19.665 -20.646  0.00  0.00    +0.007 C 
ATOM     25  C   UNL     1      35.662 -19.039 -21.080  0.00  0.00    +0.035 C 
ENDBRANCH  20  22
ENDBRANCH   5  20
TORSDOF 5
ENDMDL
MODEL 6
REMARK VINA RESULT:      -7.3      9.992     12.508
REMARK  Name = 4369103
REMARK  5 active torsions:
REMARK  status: ('A' for Active; 'I' for Inactive)
REMARK    1  A    between atoms: N_5  and  C_20
REMARK    2  A    between atoms: C_6  and  O_18
REMARK    3  A    between atoms: C_11  and  S_12
REMARK    4  A    between atoms: S_12  and  N_15
REMARK    5  A    between atoms: C_20  and  C_22
REMARK                            x       y       z     vdW  Elec       q    Type
REMARK                         _______ _______ _______ _____ _____    ______ ____
ROOT
ATOM      1  S   UNL     1      33.960 -23.501 -16.402  0.00  0.00    +0.069 S 
ATOM      2  S   UNL     1      36.497 -23.958 -14.910  0.00  0.00    -0.048 S 
ATOM      3  O   UNL     1      34.059 -24.719 -17.180  0.00  0.00    -0.152 OA
ATOM      4  O   UNL     1      34.478 -22.234 -16.876  0.00  0.00    -0.152 OA
ATOM      5  N   UNL     1      32.340 -23.297 -15.826  0.00  0.00    -0.147 NA
ATOM      6  C   UNL     1      32.745 -24.064 -13.465  0.00  0.00    +0.152 C 
ATOM      7  C   UNL     1      31.917 -24.270 -14.755  0.00  0.00    +0.130 C 
ATOM      8  C   UNL     1      34.233 -24.108 -13.683  0.00  0.00    +0.032 C 
ATOM      9  C   UNL     1      34.811 -23.856 -14.907  0.00  0.00    +0.151 C 
ATOM     10  C   UNL     1      35.237 -24.388 -12.706  0.00  0.00    +0.027 C 
ATOM     11  C   UNL     1      36.511 -24.337 -13.237  0.00  0.00    +0.152 C 
ENDROOT
BRANCH  11  12
ATOM     12  S   UNL     1      38.109 -24.583 -12.552  0.00  0.00    +0.063 S 
ATOM     13  O   UNL     1      38.038 -25.713 -11.642  0.00  0.00    -0.153 OA
ATOM     14  O   UNL     1      39.072 -24.578 -13.639  0.00  0.00    -0.153 OA
BRANCH  12  15
ATOM     15  N   UNL     1      38.286 -23.148 -11.645  0.00  0.00    -0.203 NA
ATOM     16  H   UNL     1      39.268 -23.020 -11.399  0.00  0.00    +0.144 HD
ATOM     17  H   UNL     1      37.728 -23.212 -10.795  0.00  0.00    +0.144 HD
ENDBRANCH  12  15
ENDBRANCH  11  12
BRANCH   6  18
ATOM     18  O   UNL     1      32.347 -22.818 -12.886  0.00  0.00    -0.379 OA
ATOM     19  H   UNL     1      32.619 -22.793 -11.955  0.00  0.00    +0.211 HD
ENDBRANCH   6  18
BRANCH   5  20
ATOM     20  C   UNL     1      31.304 -23.101 -16.868  0.00  0.00    +0.129 C 
BRANCH  20  22
ATOM     21  S   UNL     1      28.571 -23.446 -17.048  0.00  0.00    -0.089 S 
ATOM     22  C   UNL     1      29.952 -22.826 -16.271  0.00  0.00    +0.025 C 
ATOM     23  C   UNL     1      29.666 -22.117 -15.142  0.00  0.00    +0.004 C 
ATOM     24  C   UNL     1      28.264 -22.075 -14.898  0.00  0.00    +0.007 C 
ATOM     25  C   UNL     1      27.551 -22.759 -15.858  0.00  0.00    +0.035 C 
ENDBRANCH  20  22
ENDBRANCH   5  20
TORSDOF 5
ENDMDL
MODEL 7
REMARK VINA RESULT:      -7.3      5.349      8.312
REMARK  Name = 4369103
REMARK  5 active torsions:
REMARK  status: ('A' for Active; 'I' for Inactive)
REMARK    1  A    between atoms: N_5  and  C_20
REMARK    2  A    between atoms: C_6  and  O_18
REMARK    3  A    between atoms: C_11  and  S_12
REMARK    4  A    between atoms: S_12  and  N_15
REMARK    5  A    between atoms: C_20  and  C_22
REMARK                            x       y       z     vdW  Elec       q    Type
REMARK                         _______ _______ _______ _____ _____    ______ ____
ROOT
ATOM      1  S   UNL     1      33.813 -22.628 -18.448  0.00  0.00    +0.069 S 
ATOM      2  S   UNL     1      33.922 -20.713 -20.728  0.00  0.00    -0.048 S 
ATOM      3  O   UNL     1      33.785 -23.809 -19.287  0.00  0.00    -0.152 OA
ATOM      4  O   UNL     1      32.605 -21.983 -17.976  0.00  0.00    -0.152 OA
ATOM      5  N   UNL     1      34.909 -22.865 -17.128  0.00  0.00    -0.147 NA
ATOM      6  C   UNL     1      36.820 -21.521 -18.058  0.00  0.00    +0.152 C 
ATOM      7  C   UNL     1      36.368 -22.894 -17.508  0.00  0.00    +0.130 C 
ATOM      8  C   UNL     1      35.974 -21.009 -19.192  0.00  0.00    +0.032 C 
ATOM      9  C   UNL     1      34.678 -21.428 -19.396  0.00  0.00    +0.151 C 
ATOM     10  C   UNL     1      36.347 -20.047 -20.178  0.00  0.00    +0.027 C 
ATOM     11  C   UNL     1      35.327 -19.792 -21.073  0.00  0.00    +0.152 C 
ENDROOT
BRANCH  11  12
ATOM     12  S   UNL     1      35.187 -18.734 -22.468  0.00  0.00    +0.063 S 
ATOM     13  O   UNL     1      34.830 -19.550 -23.616  0.00  0.00    -0.153 OA
ATOM     14  O   UNL     1      34.363 -17.597 -22.093  0.00  0.00    -0.153 OA
BRANCH  12  15
ATOM     15  N   UNL     1      36.805 -18.217 -22.634  0.00  0.00    -0.203 NA
ATOM     16  H   UNL     1      37.114 -18.368 -23.594  0.00  0.00    +0.144 HD
ATOM     17  H   UNL     1      37.398 -18.748 -21.997  0.00  0.00    +0.144 HD
ENDBRANCH  12  15
ENDBRANCH  11  12
BRANCH   6  18
ATOM     18  O   UNL     1      36.832 -20.596 -16.968  0.00  0.00    -0.379 OA
ATOM     19  H   UNL     1      36.170 -20.861 -16.310  0.00  0.00    +0.211 HD
ENDBRANCH   6  18
BRANCH   5  20
ATOM     20  C   UNL     1      34.543 -23.935 -16.169  0.00  0.00    +0.129 C 
BRANCH  20  22
ATOM     21  S   UNL     1      36.405 -25.510 -14.877  0.00  0.00    -0.089 S 
ATOM     22  C   UNL     1      35.541 -24.053 -15.053  0.00  0.00    +0.025 C 
ATOM     23  C   UNL     1      35.866 -23.114 -14.119  0.00  0.00    +0.004 C 
ATOM     24  C   UNL     1      36.860 -23.599 -13.221  0.00  0.00    +0.007 C 
ATOM     25  C   UNL     1      37.243 -24.888 -13.519  0.00  0.00    +0.035 C 
ENDBRANCH  20  22
ENDBRANCH   5  20
TORSDOF 5
ENDMDL
MODEL 8
REMARK VINA RESULT:      -7.2      3.060      8.097
REMARK  Name = 4369103
REMARK  5 active torsions:
REMARK  status: ('A' for Active; 'I' for Inactive)
REMARK    1  A    between atoms: N_5  and  C_20
REMARK    2  A    between atoms: C_6  and  O_18
REMARK    3  A    between atoms: C_11  and  S_12
REMARK    4  A    between atoms: S_12  and  N_15
REMARK    5  A    between atoms: C_20  and  C_22
REMARK                            x       y       z     vdW  Elec       q    Type
REMARK                         _______ _______ _______ _____ _____    ______ ____
ROOT
ATOM      1  S   UNL     1      33.313 -11.603 -23.636  0.00  0.00    +0.069 S 
ATOM      2  S   UNL     1      34.376 -14.306 -22.973  0.00  0.00    -0.048 S 
ATOM      3  O   UNL     1      32.680 -12.024 -24.870  0.00  0.00    -0.152 OA
ATOM      4  O   UNL     1      34.660 -11.074 -23.596  0.00  0.00    -0.152 OA
ATOM      5  N   UNL     1      32.247 -10.567 -22.748  0.00  0.00    -0.147 NA
ATOM      6  C   UNL     1      31.472 -12.274 -21.070  0.00  0.00    +0.152 C 
ATOM      7  C   UNL     1      31.044 -11.253 -22.149  0.00  0.00    +0.130 C 
ATOM      8  C   UNL     1      32.487 -13.277 -21.549  0.00  0.00    +0.032 C 
ATOM      9  C   UNL     1      33.314 -13.039 -22.623  0.00  0.00    +0.151 C 
ATOM     10  C   UNL     1      32.755 -14.563 -20.989  0.00  0.00    +0.027 C 
ATOM     11  C   UNL     1      33.760 -15.228 -21.664  0.00  0.00    +0.152 C 
ENDROOT
BRANCH  11  12
ATOM     12  S   UNL     1      34.514 -16.800 -21.453  0.00  0.00    +0.063 S 
ATOM     13  O   UNL     1      35.406 -16.720 -20.310  0.00  0.00    -0.153 OA
ATOM     14  O   UNL     1      33.471 -17.811 -21.499  0.00  0.00    -0.153 OA
BRANCH  12  15
ATOM     15  N   UNL     1      35.444 -16.896 -22.881  0.00  0.00    -0.203 NA
ATOM     16  H   UNL     1      35.101 -16.214 -23.558  0.00  0.00    +0.144 HD
ATOM     17  H   UNL     1      35.368 -17.834 -23.273  0.00  0.00    +0.144 HD
ENDBRANCH  12  15
ENDBRANCH  11  12
BRANCH   6  18
ATOM     18  O   UNL     1      31.966 -11.541 -19.946  0.00  0.00    -0.379 OA
ATOM     19  H   UNL     1      32.926 -11.433 -20.026  0.00  0.00    +0.211 HD
ENDBRANCH   6  18
BRANCH   5  20
ATOM     20  C   UNL     1      31.911  -9.277 -23.395  0.00  0.00    +0.129 C 
BRANCH  20  22
ATOM     21  S   UNL     1      31.105  -6.697 -22.836  0.00  0.00    -0.089 S 
ATOM     22  C   UNL     1      31.901  -8.141 -22.412  0.00  0.00    +0.025 C 
ATOM     23  C   UNL     1      32.465  -8.105 -21.172  0.00  0.00    +0.004 C 
ATOM     24  C   UNL     1      32.243  -6.849 -20.538  0.00  0.00    +0.007 C 
ATOM     25  C   UNL     1      31.515  -5.990 -21.332  0.00  0.00    +0.035 C 
ENDBRANCH  20  22
ENDBRANCH   5  20
TORSDOF 5
ENDMDL
MODEL 9
REMARK VINA RESULT:      -7.2      3.075      3.381
REMARK  Name = 4369103
REMARK  5 active torsions:
REMARK  status: ('A' for Active; 'I' for Inactive)
REMARK    1  A    between atoms: N_5  and  C_20
REMARK    2  A    between atoms: C_6  and  O_18
REMARK    3  A    between atoms: C_11  and  S_12
REMARK    4  A    between atoms: S_12  and  N_15
REMARK    5  A    between atoms: C_20  and  C_22
REMARK                            x       y       z     vdW  Elec       q    Type
REMARK                         _______ _______ _______ _____ _____    ______ ____
ROOT
ATOM      1  S   UNL     1      35.307 -18.351 -23.309  0.00  0.00    +0.069 S 
ATOM      2  S   UNL     1      34.370 -16.446 -25.399  0.00  0.00    -0.048 S 
ATOM      3  O   UNL     1      36.711 -18.200 -23.633  0.00  0.00    -0.152 OA
ATOM      4  O   UNL     1      34.482 -19.387 -23.896  0.00  0.00    -0.152 OA
ATOM      5  N   UNL     1      35.090 -18.329 -21.591  0.00  0.00    -0.147 NA
ATOM      6  C   UNL     1      34.265 -15.960 -21.408  0.00  0.00    +0.152 C 
ATOM      7  C   UNL     1      35.319 -16.989 -20.937  0.00  0.00    +0.130 C 
ATOM      8  C   UNL     1      34.169 -15.825 -22.903  0.00  0.00    +0.032 C 
ATOM      9  C   UNL     1      34.577 -16.819 -23.764  0.00  0.00    +0.151 C 
ATOM     10  C   UNL     1      33.654 -14.713 -23.635  0.00  0.00    +0.027 C 
ATOM     11  C   UNL     1      33.701 -14.918 -25.000  0.00  0.00    +0.152 C 
ENDROOT
BRANCH  11  12
ATOM     12  S   UNL     1      33.224 -13.942 -26.380  0.00  0.00    +0.063 S 
ATOM     13  O   UNL     1      34.190 -14.164 -27.442  0.00  0.00    -0.153 OA
ATOM     14  O   UNL     1      31.808 -14.161 -26.621  0.00  0.00    -0.153 OA
BRANCH  12  15
ATOM     15  N   UNL     1      33.444 -12.373 -25.746  0.00  0.00    -0.203 NA
ATOM     16  H   UNL     1      33.460 -12.417 -24.726  0.00  0.00    +0.144 HD
ATOM     17  H   UNL     1      32.677 -11.773 -26.049  0.00  0.00    +0.144 HD
ENDBRANCH  12  15
ENDBRANCH  11  12
BRANCH   6  18
ATOM     18  O   UNL     1      33.005 -16.336 -20.844  0.00  0.00    -0.379 OA
ATOM     19  H   UNL     1      33.145 -16.716 -19.963  0.00  0.00    +0.211 HD
ENDBRANCH   6  18
BRANCH   5  20
ATOM     20  C   UNL     1      35.716 -19.447 -20.846  0.00  0.00    +0.129 C 
BRANCH  20  22
ATOM     21  S   UNL     1      35.217 -21.742 -19.396  0.00  0.00    -0.089 S 
ATOM     22  C   UNL     1      34.689 -20.356 -20.232  0.00  0.00    +0.025 C 
ATOM     23  C   UNL     1      33.333 -20.218 -20.251  0.00  0.00    +0.004 C 
ATOM     24  C   UNL     1      32.694 -21.286 -19.557  0.00  0.00    +0.007 C 
ATOM     25  C   UNL     1      33.602 -22.185 -19.042  0.00  0.00    +0.035 C 
ENDBRANCH  20  22
ENDBRANCH   5  20
TORSDOF 5
ENDMDL
