MODEL 1
REMARK VINA RESULT:     -11.4      0.000      0.000
REMARK  Name = 5327686
REMARK  3 active torsions:
REMARK  status: ('A' for Active; 'I' for Inactive)
REMARK    1  A    between atoms: C_4  and  C_10
REMARK    2  A    between atoms: C_5  and  C_23
REMARK    3  A    between atoms: C_17  and  N_21
REMARK                            x       y       z     vdW  Elec       q    Type
REMARK                         _______ _______ _______ _____ _____    ______ ____
ROOT
ATOM      1  O   UNL     1      33.541 -16.936 -25.907  0.00  0.00    -0.270 OA
ATOM      2  O   UNL     1      32.883 -12.628 -27.307  0.00  0.00    -0.270 OA
ATOM      3  N   UNL     1      33.198 -14.905 -26.981  0.00  0.00    -0.248 N 
ATOM      4  C   UNL     1      33.360 -14.856 -24.706  0.00  0.00    +0.059 C 
ATOM      5  C   UNL     1      33.178 -13.588 -25.118  0.00  0.00    +0.059 C 
ATOM      6  C   UNL     1      33.379 -15.727 -25.908  0.00  0.00    +0.252 C 
ATOM      7  C   UNL     1      33.067 -13.604 -26.599  0.00  0.00    +0.252 C 
ATOM      8  H   UNL     1      33.166 -15.214 -27.916  0.00  0.00    +0.158 HD
ENDROOT
BRANCH   4  10
ATOM      9  N   UNL     1      33.277 -15.635 -21.190  0.00  0.00    -0.284 N 
ATOM     10  C   UNL     1      33.536 -15.365 -23.382  0.00  0.00    +0.021 C 
ATOM     11  C   UNL     1      34.420 -16.395 -22.949  0.00  0.00    +0.015 C 
ATOM     12  C   UNL     1      34.237 -16.545 -21.572  0.00  0.00    +0.053 C 
ATOM     13  C   UNL     1      32.847 -14.919 -22.275  0.00  0.00    +0.066 C 
ATOM     14  C   UNL     1      35.361 -17.218 -23.600  0.00  0.00    +0.003 C 
ATOM     15  C   UNL     1      34.950 -17.479 -20.812  0.00  0.00    +0.039 C 
ATOM     16  C   UNL     1      32.781 -15.451 -19.843  0.00  0.00    +0.117 C 
ATOM     17  C   UNL     1      35.877 -18.283 -21.480  0.00  0.00    +0.144 C 
ATOM     18  C   UNL     1      36.081 -18.157 -22.852  0.00  0.00    +0.024 C 
BRANCH  17  21
ATOM     19  O   UNL     1      36.030 -19.966 -19.911  0.00  0.00    -0.126 OA
ATOM     20  O   UNL     1      37.858 -19.341 -20.954  0.00  0.00    -0.126 OA
ATOM     21  N   UNL     1      36.625 -19.243 -20.746  0.00  0.00    +0.058 N 
ENDBRANCH  17  21
ENDBRANCH   4  10
BRANCH   5  23
ATOM     22  N   UNL     1      32.371 -10.939 -22.821  0.00  0.00    -0.284 N 
ATOM     23  C   UNL     1      33.073 -12.387 -24.349  0.00  0.00    +0.021 C 
ATOM     24  C   UNL     1      33.833 -11.193 -24.487  0.00  0.00    +0.015 C 
ATOM     25  C   UNL     1      33.373 -10.300 -23.515  0.00  0.00    +0.052 C 
ATOM     26  C   UNL     1      32.181 -12.200 -23.317  0.00  0.00    +0.066 C 
ATOM     27  C   UNL     1      34.872 -10.784 -25.346  0.00  0.00    +0.001 C 
ATOM     28  C   UNL     1      33.902  -9.014 -23.361  0.00  0.00    +0.015 C 
ATOM     29  C   UNL     1      31.614 -10.372 -21.726  0.00  0.00    +0.117 C 
ATOM     30  C   UNL     1      35.411  -9.499 -25.203  0.00  0.00    +0.000 C 
ATOM     31  C   UNL     1      34.932  -8.630 -24.224  0.00  0.00    +0.001 C 
ENDBRANCH   5  23
TORSDOF 3
ENDMDL
MODEL 2
REMARK VINA RESULT:     -10.9      0.715      2.061
REMARK  Name = 5327686
REMARK  3 active torsions:
REMARK  status: ('A' for Active; 'I' for Inactive)
REMARK    1  A    between atoms: C_4  and  C_10
REMARK    2  A    between atoms: C_5  and  C_23
REMARK    3  A    between atoms: C_17  and  N_21
REMARK                            x       y       z     vdW  Elec       q    Type
REMARK                         _______ _______ _______ _____ _____    ______ ____
ROOT
ATOM      1  O   UNL     1      33.102 -16.653 -26.056  0.00  0.00    -0.270 OA
ATOM      2  O   UNL     1      33.007 -12.342 -27.592  0.00  0.00    -0.270 OA
ATOM      3  N   UNL     1      32.993 -14.629 -27.190  0.00  0.00    -0.248 N 
ATOM      4  C   UNL     1      33.330 -14.532 -24.936  0.00  0.00    +0.059 C 
ATOM      5  C   UNL     1      33.313 -13.265 -25.389  0.00  0.00    +0.059 C 
ATOM      6  C   UNL     1      33.127 -15.434 -26.098  0.00  0.00    +0.252 C 
ATOM      7  C   UNL     1      33.092 -13.311 -26.857  0.00  0.00    +0.252 C 
ATOM      8  H   UNL     1      32.846 -14.958 -28.106  0.00  0.00    +0.158 HD
ENDROOT
BRANCH   4  10
ATOM      9  N   UNL     1      33.330 -15.224 -21.401  0.00  0.00    -0.284 N 
ATOM     10  C   UNL     1      33.525 -15.020 -23.606  0.00  0.00    +0.021 C 
ATOM     11  C   UNL     1      34.364 -16.090 -23.178  0.00  0.00    +0.015 C 
ATOM     12  C   UNL     1      34.222 -16.196 -21.792  0.00  0.00    +0.053 C 
ATOM     13  C   UNL     1      32.903 -14.509 -22.488  0.00  0.00    +0.066 C 
ATOM     14  C   UNL     1      35.231 -16.980 -23.841  0.00  0.00    +0.003 C 
ATOM     15  C   UNL     1      34.907 -17.152 -21.035  0.00  0.00    +0.039 C 
ATOM     16  C   UNL     1      32.895 -14.980 -20.042  0.00  0.00    +0.117 C 
ATOM     17  C   UNL     1      35.763 -18.024 -21.713  0.00  0.00    +0.144 C 
ATOM     18  C   UNL     1      35.923 -17.942 -23.095  0.00  0.00    +0.024 C 
BRANCH  17  21
ATOM     19  O   UNL     1      37.726 -19.066 -21.102  0.00  0.00    -0.126 OA
ATOM     20  O   UNL     1      35.845 -19.793 -20.237  0.00  0.00    -0.126 OA
ATOM     21  N   UNL     1      36.480 -19.009 -20.982  0.00  0.00    +0.058 N 
ENDBRANCH  17  21
ENDBRANCH   4  10
BRANCH   5  23
ATOM     22  N   UNL     1      34.229 -10.054 -24.048  0.00  0.00    -0.284 N 
ATOM     23  C   UNL     1      33.451 -12.038 -24.667  0.00  0.00    +0.021 C 
ATOM     24  C   UNL     1      32.667 -11.575 -23.575  0.00  0.00    +0.015 C 
ATOM     25  C   UNL     1      33.176 -10.327 -23.205  0.00  0.00    +0.052 C 
ATOM     26  C   UNL     1      34.404 -11.082 -24.934  0.00  0.00    +0.066 C 
ATOM     27  C   UNL     1      31.568 -12.097 -22.864  0.00  0.00    +0.001 C 
ATOM     28  C   UNL     1      32.640  -9.575 -22.154  0.00  0.00    +0.015 C 
ATOM     29  C   UNL     1      35.048  -8.862 -24.011  0.00  0.00    +0.117 C 
ATOM     30  C   UNL     1      31.022 -11.355 -21.810  0.00  0.00    +0.000 C 
ATOM     31  C   UNL     1      31.551 -10.113 -21.463  0.00  0.00    +0.001 C 
ENDBRANCH   5  23
TORSDOF 3
ENDMDL
MODEL 3
REMARK VINA RESULT:     -10.3      2.240      7.126
REMARK  Name = 5327686
REMARK  3 active torsions:
REMARK  status: ('A' for Active; 'I' for Inactive)
REMARK    1  A    between atoms: C_4  and  C_10
REMARK    2  A    between atoms: C_5  and  C_23
REMARK    3  A    between atoms: C_17  and  N_21
REMARK                            x       y       z     vdW  Elec       q    Type
REMARK                         _______ _______ _______ _____ _____    ______ ____
ROOT
ATOM      1  O   UNL     1      32.525 -13.010 -26.952  0.00  0.00    -0.270 OA
ATOM      2  O   UNL     1      34.414 -17.053 -25.930  0.00  0.00    -0.270 OA
ATOM      3  N   UNL     1      33.467 -15.130 -26.822  0.00  0.00    -0.248 N 
ATOM      4  C   UNL     1      33.221 -13.987 -24.862  0.00  0.00    +0.059 C 
ATOM      5  C   UNL     1      33.766 -15.180 -24.561  0.00  0.00    +0.059 C 
ATOM      6  C   UNL     1      33.016 -13.940 -26.333  0.00  0.00    +0.252 C 
ATOM      7  C   UNL     1      33.935 -15.936 -25.828  0.00  0.00    +0.252 C 
ATOM      8  H   UNL     1      33.454 -15.377 -27.776  0.00  0.00    +0.158 HD
ENDROOT
BRANCH   4  10
ATOM      9  N   UNL     1      31.824 -11.785 -22.378  0.00  0.00    -0.284 N 
ATOM     10  C   UNL     1      32.850 -12.911 -23.997  0.00  0.00    +0.021 C 
ATOM     11  C   UNL     1      33.349 -11.577 -23.993  0.00  0.00    +0.015 C 
ATOM     12  C   UNL     1      32.690 -10.893 -22.969  0.00  0.00    +0.053 C 
ATOM     13  C   UNL     1      31.913 -13.006 -22.991  0.00  0.00    +0.066 C 
ATOM     14  C   UNL     1      34.303 -10.885 -24.766  0.00  0.00    +0.003 C 
ATOM     15  C   UNL     1      32.939  -9.547 -22.678  0.00  0.00    +0.039 C 
ATOM     16  C   UNL     1      30.942 -11.492 -21.269  0.00  0.00    +0.117 C 
ATOM     17  C   UNL     1      33.888  -8.881 -23.458  0.00  0.00    +0.144 C 
ATOM     18  C   UNL     1      34.562  -9.538 -24.485  0.00  0.00    +0.024 C 
BRANCH  17  21
ATOM     19  O   UNL     1      33.290  -6.805 -22.652  0.00  0.00    -0.126 OA
ATOM     20  O   UNL     1      35.290  -7.052 -23.522  0.00  0.00    -0.126 OA
ATOM     21  N   UNL     1      34.169  -7.513 -23.197  0.00  0.00    +0.058 N 
ENDBRANCH  17  21
ENDBRANCH   4  10
BRANCH   5  23
ATOM     22  N   UNL     1      34.673 -15.790 -21.133  0.00  0.00    -0.284 N 
ATOM     23  C   UNL     1      34.164 -15.704 -23.291  0.00  0.00    +0.021 C 
ATOM     24  C   UNL     1      34.514 -17.045 -22.970  0.00  0.00    +0.015 C 
ATOM     25  C   UNL     1      34.829 -17.071 -21.609  0.00  0.00    +0.052 C 
ATOM     26  C   UNL     1      34.272 -14.956 -22.141  0.00  0.00    +0.066 C 
ATOM     27  C   UNL     1      34.592 -18.243 -23.708  0.00  0.00    +0.001 C 
ATOM     28  C   UNL     1      35.221 -18.241 -20.948  0.00  0.00    +0.015 C 
ATOM     29  C   UNL     1      34.902 -15.367 -19.768  0.00  0.00    +0.117 C 
ATOM     30  C   UNL     1      34.983 -19.420 -23.059  0.00  0.00    +0.000 C 
ATOM     31  C   UNL     1      35.292 -19.417 -21.700  0.00  0.00    +0.001 C 
ENDBRANCH   5  23
TORSDOF 3
ENDMDL
MODEL 4
REMARK VINA RESULT:     -10.1      2.446      6.761
REMARK  Name = 5327686
REMARK  3 active torsions:
REMARK  status: ('A' for Active; 'I' for Inactive)
REMARK    1  A    between atoms: C_4  and  C_10
REMARK    2  A    between atoms: C_5  and  C_23
REMARK    3  A    between atoms: C_17  and  N_21
REMARK                            x       y       z     vdW  Elec       q    Type
REMARK                         _______ _______ _______ _____ _____    ______ ____
ROOT
ATOM      1  O   UNL     1      32.512 -12.681 -27.504  0.00  0.00    -0.270 OA
ATOM      2  O   UNL     1      33.282 -16.960 -26.068  0.00  0.00    -0.270 OA
ATOM      3  N   UNL     1      32.784 -14.959 -27.137  0.00  0.00    -0.248 N 
ATOM      4  C   UNL     1      33.308 -13.565 -25.409  0.00  0.00    +0.059 C 
ATOM      5  C   UNL     1      33.524 -14.823 -24.983  0.00  0.00    +0.059 C 
ATOM      6  C   UNL     1      32.822 -13.636 -26.810  0.00  0.00    +0.252 C 
ATOM      7  C   UNL     1      33.190 -15.744 -26.099  0.00  0.00    +0.252 C 
ATOM      8  H   UNL     1      32.498 -15.305 -28.014  0.00  0.00    +0.158 HD
ENDROOT
BRANCH   4  10
ATOM      9  N   UNL     1      34.198 -10.294 -24.191  0.00  0.00    -0.284 N 
ATOM     10  C   UNL     1      33.466 -12.328 -24.709  0.00  0.00    +0.021 C 
ATOM     11  C   UNL     1      32.806 -11.903 -23.520  0.00  0.00    +0.015 C 
ATOM     12  C   UNL     1      33.283 -10.625 -23.218  0.00  0.00    +0.053 C 
ATOM     13  C   UNL     1      34.316 -11.315 -25.096  0.00  0.00    +0.066 C 
ATOM     14  C   UNL     1      31.845 -12.486 -22.670  0.00  0.00    +0.003 C 
ATOM     15  C   UNL     1      32.845  -9.899 -22.105  0.00  0.00    +0.039 C 
ATOM     16  C   UNL     1      34.937  -9.051 -24.264  0.00  0.00    +0.117 C 
ATOM     17  C   UNL     1      31.892 -10.498 -21.276  0.00  0.00    +0.144 C 
ATOM     18  C   UNL     1      31.398 -11.771 -21.553  0.00  0.00    +0.024 C 
BRANCH  17  21
ATOM     19  O   UNL     1      31.764  -8.601 -19.971  0.00  0.00    -0.126 OA
ATOM     20  O   UNL     1      30.676 -10.392 -19.320  0.00  0.00    -0.126 OA
ATOM     21  N   UNL     1      31.422  -9.796 -20.134  0.00  0.00    +0.058 N 
ENDBRANCH  17  21
ENDBRANCH   4  10
BRANCH   5  23
ATOM     22  N   UNL     1      34.519 -15.311 -21.560  0.00  0.00    -0.284 N 
ATOM     23  C   UNL     1      34.006 -15.287 -23.719  0.00  0.00    +0.021 C 
ATOM     24  C   UNL     1      34.585 -16.549 -23.414  0.00  0.00    +0.015 C 
ATOM     25  C   UNL     1      34.898 -16.539 -22.053  0.00  0.00    +0.052 C 
ATOM     26  C   UNL     1      33.980 -14.546 -22.559  0.00  0.00    +0.066 C 
ATOM     27  C   UNL     1      34.873 -17.705 -24.168  0.00  0.00    +0.001 C 
ATOM     28  C   UNL     1      35.488 -17.630 -21.406  0.00  0.00    +0.015 C 
ATOM     29  C   UNL     1      34.669 -14.873 -20.189  0.00  0.00    +0.117 C 
ATOM     30  C   UNL     1      35.463 -18.804 -23.533  0.00  0.00    +0.000 C 
ATOM     31  C   UNL     1      35.765 -18.765 -22.173  0.00  0.00    +0.001 C 
ENDBRANCH   5  23
TORSDOF 3
ENDMDL
MODEL 5
REMARK VINA RESULT:      -9.9      7.998     13.376
REMARK  Name = 5327686
REMARK  3 active torsions:
REMARK  status: ('A' for Active; 'I' for Inactive)
REMARK    1  A    between atoms: C_4  and  C_10
REMARK    2  A    between atoms: C_5  and  C_23
REMARK    3  A    between atoms: C_17  and  N_21
REMARK                            x       y       z     vdW  Elec       q    Type
REMARK                         _______ _______ _______ _____ _____    ______ ____
ROOT
ATOM      1  O   UNL     1      31.615 -22.836 -17.637  0.00  0.00    -0.270 OA
ATOM      2  O   UNL     1      31.488 -25.109 -13.665  0.00  0.00    -0.270 OA
ATOM      3  N   UNL     1      31.163 -24.026 -15.693  0.00  0.00    -0.248 N 
ATOM      4  C   UNL     1      33.332 -23.411 -16.047  0.00  0.00    +0.059 C 
ATOM      5  C   UNL     1      33.292 -24.069 -14.875  0.00  0.00    +0.059 C 
ATOM      6  C   UNL     1      31.951 -23.370 -16.592  0.00  0.00    +0.252 C 
ATOM      7  C   UNL     1      31.886 -24.479 -14.630  0.00  0.00    +0.252 C 
ATOM      8  H   UNL     1      30.192 -24.154 -15.798  0.00  0.00    +0.158 HD
ENDROOT
BRANCH   4  10
ATOM      9  N   UNL     1      36.523 -22.156 -17.148  0.00  0.00    -0.284 N 
ATOM     10  C   UNL     1      34.442 -22.806 -16.715  0.00  0.00    +0.021 C 
ATOM     11  C   UNL     1      34.440 -22.085 -17.943  0.00  0.00    +0.015 C 
ATOM     12  C   UNL     1      35.757 -21.689 -18.192  0.00  0.00    +0.053 C 
ATOM     13  C   UNL     1      35.739 -22.832 -16.252  0.00  0.00    +0.066 C 
ATOM     14  C   UNL     1      33.440 -21.731 -18.871  0.00  0.00    +0.003 C 
ATOM     15  C   UNL     1      36.124 -20.955 -19.325  0.00  0.00    +0.039 C 
ATOM     16  C   UNL     1      37.952 -21.970 -17.005  0.00  0.00    +0.117 C 
ATOM     17  C   UNL     1      35.115 -20.615 -20.230  0.00  0.00    +0.144 C 
ATOM     18  C   UNL     1      33.793 -20.996 -20.009  0.00  0.00    +0.024 C 
BRANCH  17  21
ATOM     19  O   UNL     1      34.666 -19.903 -22.377  0.00  0.00    -0.126 OA
ATOM     20  O   UNL     1      36.501 -19.194 -21.403  0.00  0.00    -0.126 OA
ATOM     21  N   UNL     1      35.443 -19.867 -21.393  0.00  0.00    +0.058 N 
ENDBRANCH  17  21
ENDBRANCH   4  10
BRANCH   5  23
ATOM     22  N   UNL     1      35.597 -24.410 -12.132  0.00  0.00    -0.284 N 
ATOM     23  C   UNL     1      34.356 -24.385 -13.972  0.00  0.00    +0.021 C 
ATOM     24  C   UNL     1      35.473 -25.234 -14.202  0.00  0.00    +0.015 C 
ATOM     25  C   UNL     1      36.236 -25.233 -13.031  0.00  0.00    +0.052 C 
ATOM     26  C   UNL     1      34.460 -23.892 -12.691  0.00  0.00    +0.066 C 
ATOM     27  C   UNL     1      35.910 -26.008 -15.296  0.00  0.00    +0.001 C 
ATOM     28  C   UNL     1      37.420 -25.969 -12.901  0.00  0.00    +0.015 C 
ATOM     29  C   UNL     1      36.051 -24.119 -10.790  0.00  0.00    +0.117 C 
ATOM     30  C   UNL     1      37.092 -26.749 -15.179  0.00  0.00    +0.000 C 
ATOM     31  C   UNL     1      37.834 -26.728 -13.999  0.00  0.00    +0.001 C 
ENDBRANCH   5  23
TORSDOF 3
ENDMDL
MODEL 6
REMARK VINA RESULT:      -9.2      9.474     12.965
REMARK  Name = 5327686
REMARK  3 active torsions:
REMARK  status: ('A' for Active; 'I' for Inactive)
REMARK    1  A    between atoms: C_4  and  C_10
REMARK    2  A    between atoms: C_5  and  C_23
REMARK    3  A    between atoms: C_17  and  N_21
REMARK                            x       y       z     vdW  Elec       q    Type
REMARK                         _______ _______ _______ _____ _____    ______ ____
ROOT
ATOM      1  O   UNL     1      31.885 -25.216 -13.097  0.00  0.00    -0.270 OA
ATOM      2  O   UNL     1      31.600 -23.055 -17.123  0.00  0.00    -0.270 OA
ATOM      3  N   UNL     1      31.358 -24.218 -15.128  0.00  0.00    -0.248 N 
ATOM      4  C   UNL     1      33.526 -24.064 -14.433  0.00  0.00    +0.059 C 
ATOM      5  C   UNL     1      33.444 -23.439 -15.622  0.00  0.00    +0.059 C 
ATOM      6  C   UNL     1      32.175 -24.582 -14.099  0.00  0.00    +0.252 C 
ATOM      7  C   UNL     1      32.037 -23.528 -16.087  0.00  0.00    +0.252 C 
ATOM      8  H   UNL     1      30.397 -24.430 -15.173  0.00  0.00    +0.158 HD
ENDROOT
BRANCH   4  10
ATOM      9  N   UNL     1      35.913 -24.365 -11.754  0.00  0.00    -0.284 N 
ATOM     10  C   UNL     1      34.660 -24.266 -13.587  0.00  0.00    +0.021 C 
ATOM     11  C   UNL     1      35.969 -24.687 -13.960  0.00  0.00    +0.015 C 
ATOM     12  C   UNL     1      36.734 -24.742 -12.792  0.00  0.00    +0.053 C 
ATOM     13  C   UNL     1      34.660 -24.075 -12.222  0.00  0.00    +0.066 C 
ATOM     14  C   UNL     1      36.577 -25.030 -15.184  0.00  0.00    +0.003 C 
ATOM     15  C   UNL     1      38.080 -25.122 -12.788  0.00  0.00    +0.039 C 
ATOM     16  C   UNL     1      36.302 -24.282 -10.362  0.00  0.00    +0.117 C 
ATOM     17  C   UNL     1      38.662 -25.457 -14.014  0.00  0.00    +0.144 C 
ATOM     18  C   UNL     1      37.924 -25.413 -15.195  0.00  0.00    +0.024 C 
BRANCH  17  21
ATOM     19  O   UNL     1      40.309 -27.044 -14.300  0.00  0.00    -0.126 OA
ATOM     20  O   UNL     1      40.912 -24.983 -13.846  0.00  0.00    -0.126 OA
ATOM     21  N   UNL     1      40.027 -25.847 -14.055  0.00  0.00    +0.058 N 
ENDBRANCH  17  21
ENDBRANCH   4  10
BRANCH   5  23
ATOM     22  N   UNL     1      36.380 -21.756 -16.846  0.00  0.00    -0.284 N 
ATOM     23  C   UNL     1      34.462 -22.764 -16.367  0.00  0.00    +0.021 C 
ATOM     24  C   UNL     1      34.435 -22.387 -17.738  0.00  0.00    +0.015 C 
ATOM     25  C   UNL     1      35.651 -21.756 -18.013  0.00  0.00    +0.052 C 
ATOM     26  C   UNL     1      35.670 -22.362 -15.845  0.00  0.00    +0.066 C 
ATOM     27  C   UNL     1      33.491 -22.522 -18.776  0.00  0.00    +0.001 C 
ATOM     28  C   UNL     1      35.971 -21.252 -19.279  0.00  0.00    +0.015 C 
ATOM     29  C   UNL     1      37.704 -21.196 -16.682  0.00  0.00    +0.117 C 
ATOM     30  C   UNL     1      33.798 -22.022 -20.047  0.00  0.00    +0.000 C 
ATOM     31  C   UNL     1      35.019 -21.397 -20.292  0.00  0.00    +0.001 C 
ENDBRANCH   5  23
TORSDOF 3
ENDMDL
MODEL 7
REMARK VINA RESULT:      -9.0      7.908     13.346
REMARK  Name = 5327686
REMARK  3 active torsions:
REMARK  status: ('A' for Active; 'I' for Inactive)
REMARK    1  A    between atoms: C_4  and  C_10
REMARK    2  A    between atoms: C_5  and  C_23
REMARK    3  A    between atoms: C_17  and  N_21
REMARK                            x       y       z     vdW  Elec       q    Type
REMARK                         _______ _______ _______ _____ _____    ______ ____
ROOT
ATOM      1  O   UNL     1      31.513 -22.447 -17.282  0.00  0.00    -0.270 OA
ATOM      2  O   UNL     1      32.013 -25.487 -13.896  0.00  0.00    -0.270 OA
ATOM      3  N   UNL     1      31.372 -23.995 -15.555  0.00  0.00    -0.248 N 
ATOM      4  C   UNL     1      33.465 -23.409 -16.248  0.00  0.00    +0.059 C 
ATOM      5  C   UNL     1      33.612 -24.294 -15.246  0.00  0.00    +0.059 C 
ATOM      6  C   UNL     1      32.010 -23.200 -16.460  0.00  0.00    +0.252 C 
ATOM      7  C   UNL     1      32.256 -24.688 -14.784  0.00  0.00    +0.252 C 
ATOM      8  H   UNL     1      30.393 -24.059 -15.468  0.00  0.00    +0.158 HD
ENDROOT
BRANCH   4  10
ATOM      9  N   UNL     1      36.441 -21.925 -17.632  0.00  0.00    -0.284 N 
ATOM     10  C   UNL     1      34.462 -22.726 -17.012  0.00  0.00    +0.021 C 
ATOM     11  C   UNL     1      34.293 -22.006 -18.230  0.00  0.00    +0.015 C 
ATOM     12  C   UNL     1      35.549 -21.516 -18.598  0.00  0.00    +0.053 C 
ATOM     13  C   UNL     1      35.795 -22.656 -16.671  0.00  0.00    +0.066 C 
ATOM     14  C   UNL     1      33.188 -21.727 -19.059  0.00  0.00    +0.003 C 
ATOM     15  C   UNL     1      35.754 -20.758 -19.755  0.00  0.00    +0.039 C 
ATOM     16  C   UNL     1      37.859 -21.635 -17.621  0.00  0.00    +0.117 C 
ATOM     17  C   UNL     1      34.644 -20.492 -20.560  0.00  0.00    +0.144 C 
ATOM     18  C   UNL     1      33.379 -20.969 -20.220  0.00  0.00    +0.024 C 
BRANCH  17  21
ATOM     19  O   UNL     1      33.812 -19.521 -22.479  0.00  0.00    -0.126 OA
ATOM     20  O   UNL     1      35.944 -19.270 -22.021  0.00  0.00    -0.126 OA
ATOM     21  N   UNL     1      34.807 -19.724 -21.744  0.00  0.00    +0.058 N 
ENDBRANCH  17  21
ENDBRANCH   4  10
BRANCH   5  23
ATOM     22  N   UNL     1      36.645 -26.058 -14.445  0.00  0.00    -0.284 N 
ATOM     23  C   UNL     1      34.808 -24.834 -14.676  0.00  0.00    +0.021 C 
ATOM     24  C   UNL     1      35.403 -24.510 -13.426  0.00  0.00    +0.015 C 
ATOM     25  C   UNL     1      36.555 -25.292 -13.306  0.00  0.00    +0.052 C 
ATOM     26  C   UNL     1      35.593 -25.789 -15.279  0.00  0.00    +0.066 C 
ATOM     27  C   UNL     1      35.073 -23.623 -12.381  0.00  0.00    +0.001 C 
ATOM     28  C   UNL     1      37.396 -25.230 -12.188  0.00  0.00    +0.015 C 
ATOM     29  C   UNL     1      37.689 -27.017 -14.733  0.00  0.00    +0.117 C 
ATOM     30  C   UNL     1      35.905 -23.552 -11.258  0.00  0.00    +0.000 C 
ATOM     31  C   UNL     1      37.048 -24.344 -11.165  0.00  0.00    +0.001 C 
ENDBRANCH   5  23
TORSDOF 3
ENDMDL
MODEL 8
REMARK VINA RESULT:      -8.9      3.230      8.387
REMARK  Name = 5327686
REMARK  3 active torsions:
REMARK  status: ('A' for Active; 'I' for Inactive)
REMARK    1  A    between atoms: C_4  and  C_10
REMARK    2  A    between atoms: C_5  and  C_23
REMARK    3  A    between atoms: C_17  and  N_21
REMARK                            x       y       z     vdW  Elec       q    Type
REMARK                         _______ _______ _______ _____ _____    ______ ____
ROOT
ATOM      1  O   UNL     1      32.087 -10.753 -20.098  0.00  0.00    -0.270 OA
ATOM      2  O   UNL     1      31.878 -15.257 -20.888  0.00  0.00    -0.270 OA
ATOM      3  N   UNL     1      31.838 -13.063 -20.131  0.00  0.00    -0.248 N 
ATOM      4  C   UNL     1      32.652 -12.084 -22.025  0.00  0.00    +0.059 C 
ATOM      5  C   UNL     1      32.601 -13.409 -22.253  0.00  0.00    +0.059 C 
ATOM      6  C   UNL     1      32.162 -11.842 -20.644  0.00  0.00    +0.252 C 
ATOM      7  C   UNL     1      32.070 -14.061 -21.029  0.00  0.00    +0.252 C 
ATOM      8  H   UNL     1      31.482 -13.205 -19.224  0.00  0.00    +0.158 HD
ENDROOT
BRANCH   4  10
ATOM      9  N   UNL     1      34.327  -9.915 -24.362  0.00  0.00    -0.284 N 
ATOM     10  C   UNL     1      33.102 -11.030 -22.880  0.00  0.00    +0.021 C 
ATOM     11  C   UNL     1      32.523  -9.741 -23.061  0.00  0.00    +0.015 C 
ATOM     12  C   UNL     1      33.310  -9.063 -23.995  0.00  0.00    +0.053 C 
ATOM     13  C   UNL     1      34.210 -11.105 -23.694  0.00  0.00    +0.066 C 
ATOM     14  C   UNL     1      31.400  -9.085 -22.518  0.00  0.00    +0.003 C 
ATOM     15  C   UNL     1      33.029  -7.758 -24.415  0.00  0.00    +0.039 C 
ATOM     16  C   UNL     1      35.375  -9.613 -25.313  0.00  0.00    +0.117 C 
ATOM     17  C   UNL     1      31.911  -7.128 -23.862  0.00  0.00    +0.144 C 
ATOM     18  C   UNL     1      31.107  -7.779 -22.929  0.00  0.00    +0.024 C 
BRANCH  17  21
ATOM     19  O   UNL     1      30.675  -5.192 -23.656  0.00  0.00    -0.126 OA
ATOM     20  O   UNL     1      32.232  -5.277 -25.200  0.00  0.00    -0.126 OA
ATOM     21  N   UNL     1      31.591  -5.801 -24.258  0.00  0.00    +0.058 N 
ENDBRANCH  17  21
ENDBRANCH   4  10
BRANCH   5  23
ATOM     22  N   UNL     1      33.061 -14.740 -25.565  0.00  0.00    -0.284 N 
ATOM     23  C   UNL     1      32.949 -14.145 -23.430  0.00  0.00    +0.021 C 
ATOM     24  C   UNL     1      33.759 -15.310 -23.524  0.00  0.00    +0.015 C 
ATOM     25  C   UNL     1      33.813 -15.663 -24.874  0.00  0.00    +0.052 C 
ATOM     26  C   UNL     1      32.534 -13.819 -24.701  0.00  0.00    +0.066 C 
ATOM     27  C   UNL     1      34.454 -16.101 -22.587  0.00  0.00    +0.001 C 
ATOM     28  C   UNL     1      34.530 -16.773 -25.336  0.00  0.00    +0.015 C 
ATOM     29  C   UNL     1      32.844 -14.734 -26.995  0.00  0.00    +0.117 C 
ATOM     30  C   UNL     1      35.175 -17.214 -23.035  0.00  0.00    +0.000 C 
ATOM     31  C   UNL     1      35.211 -17.543 -24.389  0.00  0.00    +0.001 C 
ENDBRANCH   5  23
TORSDOF 3
ENDMDL
MODEL 9
REMARK VINA RESULT:      -8.9      2.536      4.346
REMARK  Name = 5327686
REMARK  3 active torsions:
REMARK  status: ('A' for Active; 'I' for Inactive)
REMARK    1  A    between atoms: C_4  and  C_10
REMARK    2  A    between atoms: C_5  and  C_23
REMARK    3  A    between atoms: C_17  and  N_21
REMARK                            x       y       z     vdW  Elec       q    Type
REMARK                         _______ _______ _______ _____ _____    ______ ____
ROOT
ATOM      1  O   UNL     1      31.040 -12.913 -20.470  0.00  0.00    -0.270 OA
ATOM      2  O   UNL     1      31.919  -8.484 -21.225  0.00  0.00    -0.270 OA
ATOM      3  N   UNL     1      31.258 -10.601 -20.536  0.00  0.00    -0.248 N 
ATOM      4  C   UNL     1      32.364 -11.789 -22.140  0.00  0.00    +0.059 C 
ATOM      5  C   UNL     1      32.613 -10.487 -22.368  0.00  0.00    +0.059 C 
ATOM      6  C   UNL     1      31.479 -11.881 -20.951  0.00  0.00    +0.252 C 
ATOM      7  C   UNL     1      31.902  -9.699 -21.330  0.00  0.00    +0.252 C 
ATOM      8  H   UNL     1      30.702 -10.359 -19.760  0.00  0.00    +0.158 HD
ENDROOT
BRANCH   4  10
ATOM      9  N   UNL     1      33.153 -14.345 -24.552  0.00  0.00    -0.284 N 
ATOM     10  C   UNL     1      32.804 -12.941 -22.865  0.00  0.00    +0.021 C 
ATOM     11  C   UNL     1      33.518 -14.069 -22.369  0.00  0.00    +0.015 C 
ATOM     12  C   UNL     1      33.725 -14.933 -23.447  0.00  0.00    +0.053 C 
ATOM     13  C   UNL     1      32.595 -13.142 -24.212  0.00  0.00    +0.066 C 
ATOM     14  C   UNL     1      34.011 -14.438 -21.101  0.00  0.00    +0.003 C 
ATOM     15  C   UNL     1      34.402 -16.151 -23.320  0.00  0.00    +0.039 C 
ATOM     16  C   UNL     1      33.136 -14.903 -25.888  0.00  0.00    +0.117 C 
ATOM     17  C   UNL     1      34.881 -16.496 -22.054  0.00  0.00    +0.144 C 
ATOM     18  C   UNL     1      34.691 -15.654 -20.960  0.00  0.00    +0.024 C 
BRANCH  17  21
ATOM     19  O   UNL     1      36.008 -18.325 -22.890  0.00  0.00    -0.126 OA
ATOM     20  O   UNL     1      35.728 -18.175 -20.719  0.00  0.00    -0.126 OA
ATOM     21  N   UNL     1      35.572 -17.725 -21.879  0.00  0.00    +0.058 N 
ENDBRANCH  17  21
ENDBRANCH   4  10
BRANCH   5  23
ATOM     22  N   UNL     1      34.923  -9.647 -24.997  0.00  0.00    -0.284 N 
ATOM     23  C   UNL     1      33.418  -9.878 -23.382  0.00  0.00    +0.021 C 
ATOM     24  C   UNL     1      33.416  -8.519 -23.799  0.00  0.00    +0.015 C 
ATOM     25  C   UNL     1      34.369  -8.401 -24.814  0.00  0.00    +0.052 C 
ATOM     26  C   UNL     1      34.356 -10.547 -24.135  0.00  0.00    +0.066 C 
ATOM     27  C   UNL     1      32.692  -7.373 -23.412  0.00  0.00    +0.001 C 
ATOM     28  C   UNL     1      34.636  -7.189 -25.462  0.00  0.00    +0.015 C 
ATOM     29  C   UNL     1      35.959  -9.975 -25.952  0.00  0.00    +0.117 C 
ATOM     30  C   UNL     1      32.949  -6.155 -24.052  0.00  0.00    +0.000 C 
ATOM     31  C   UNL     1      33.906  -6.066 -25.061  0.00  0.00    +0.001 C 
ENDBRANCH   5  23
TORSDOF 3
ENDMDL
