MODEL 1
REMARK VINA RESULT:      -4.2      0.000      0.000
REMARK  Name = 6585
REMARK  2 active torsions:
REMARK  status: ('A' for Active; 'I' for Inactive)
REMARK    1  A    between atoms: O_1  and  C_4
REMARK    2  A    between atoms: O_1  and  O_5
REMARK                            x       y       z     vdW  Elec       q    Type
REMARK                         _______ _______ _______ _____ _____    ______ ____
ROOT
ATOM      1  O   UNL     1      27.080 -21.254 -17.440  0.00  0.00    -0.299 OA
ENDROOT
BRANCH   1   4
ATOM      2  O   UNL     1      25.569 -22.016 -15.864  0.00  0.00    -0.247 OA
ATOM      3  C   UNL     1      27.829 -22.842 -15.896  0.00  0.00    +0.125 C 
ATOM      4  C   UNL     1      26.681 -22.005 -16.374  0.00  0.00    +0.352 C 
ENDBRANCH   1   4
BRANCH   1   5
ATOM      5  O   UNL     1      25.928 -20.466 -17.846  0.00  0.00    -0.198 OA
ATOM      6  H   UNL     1      25.275 -21.042 -18.274  0.00  0.00    +0.268 HD
ENDBRANCH   1   5
TORSDOF 2
ENDMDL
MODEL 2
REMARK VINA RESULT:      -4.1      1.136      1.568
REMARK  Name = 6585
REMARK  2 active torsions:
REMARK  status: ('A' for Active; 'I' for Inactive)
REMARK    1  A    between atoms: O_1  and  C_4
REMARK    2  A    between atoms: O_1  and  O_5
REMARK                            x       y       z     vdW  Elec       q    Type
REMARK                         _______ _______ _______ _____ _____    ______ ____
ROOT
ATOM      1  O   UNL     1      25.932 -21.621 -17.107  0.00  0.00    -0.299 OA
ENDROOT
BRANCH   1   4
ATOM      2  O   UNL     1      27.529 -23.021 -18.022  0.00  0.00    -0.247 OA
ATOM      3  C   UNL     1      27.689 -22.314 -15.728  0.00  0.00    +0.125 C 
ATOM      4  C   UNL     1      27.066 -22.378 -17.089  0.00  0.00    +0.352 C 
ENDBRANCH   1   4
BRANCH   1   5
ATOM      5  O   UNL     1      26.229 -20.449 -17.914  0.00  0.00    -0.198 OA
ATOM      6  H   UNL     1      25.470 -19.845 -17.899  0.00  0.00    +0.268 HD
ENDBRANCH   1   5
TORSDOF 2
ENDMDL
MODEL 3
REMARK VINA RESULT:      -4.0      1.651      2.108
REMARK  Name = 6585
REMARK  2 active torsions:
REMARK  status: ('A' for Active; 'I' for Inactive)
REMARK    1  A    between atoms: O_1  and  C_4
REMARK    2  A    between atoms: O_1  and  O_5
REMARK                            x       y       z     vdW  Elec       q    Type
REMARK                         _______ _______ _______ _____ _____    ______ ____
ROOT
ATOM      1  O   UNL     1      28.362 -21.933 -17.090  0.00  0.00    -0.299 OA
ENDROOT
BRANCH   1   4
ATOM      2  O   UNL     1      27.616 -24.042 -17.671  0.00  0.00    -0.247 OA
ATOM      3  C   UNL     1      28.870 -23.701 -15.646  0.00  0.00    +0.125 C 
ATOM      4  C   UNL     1      28.204 -23.276 -16.920  0.00  0.00    +0.352 C 
ENDBRANCH   1   4
BRANCH   1   5
ATOM      5  O   UNL     1      27.047 -21.396 -17.398  0.00  0.00    -0.198 OA
ATOM      6  H   UNL     1      26.375 -22.078 -17.245  0.00  0.00    +0.268 HD
ENDBRANCH   1   5
TORSDOF 2
ENDMDL
MODEL 4
REMARK VINA RESULT:      -4.0     11.037     11.701
REMARK  Name = 6585
REMARK  2 active torsions:
REMARK  status: ('A' for Active; 'I' for Inactive)
REMARK    1  A    between atoms: O_1  and  C_4
REMARK    2  A    between atoms: O_1  and  O_5
REMARK                            x       y       z     vdW  Elec       q    Type
REMARK                         _______ _______ _______ _____ _____    ______ ____
ROOT
ATOM      1  O   UNL     1      36.261 -24.111  -9.928  0.00  0.00    -0.299 OA
ENDROOT
BRANCH   1   4
ATOM      2  O   UNL     1      37.573 -22.739 -11.249  0.00  0.00    -0.247 OA
ATOM      3  C   UNL     1      35.602 -23.788 -12.148  0.00  0.00    +0.125 C 
ATOM      4  C   UNL     1      36.605 -23.468 -11.081  0.00  0.00    +0.352 C 
ENDBRANCH   1   4
BRANCH   1   5
ATOM      5  O   UNL     1      35.259 -25.101 -10.287  0.00  0.00    -0.198 OA
ATOM      6  H   UNL     1      34.802 -24.820 -11.095  0.00  0.00    +0.268 HD
ENDBRANCH   1   5
TORSDOF 2
ENDMDL
MODEL 5
REMARK VINA RESULT:      -4.0     11.109     11.842
REMARK  Name = 6585
REMARK  2 active torsions:
REMARK  status: ('A' for Active; 'I' for Inactive)
REMARK    1  A    between atoms: O_1  and  C_4
REMARK    2  A    between atoms: O_1  and  O_5
REMARK                            x       y       z     vdW  Elec       q    Type
REMARK                         _______ _______ _______ _____ _____    ______ ____
ROOT
ATOM      1  O   UNL     1      36.218 -26.880 -15.859  0.00  0.00    -0.299 OA
ENDROOT
BRANCH   1   4
ATOM      2  O   UNL     1      38.198 -27.137 -14.691  0.00  0.00    -0.247 OA
ATOM      3  C   UNL     1      37.077 -25.008 -14.751  0.00  0.00    +0.125 C 
ATOM      4  C   UNL     1      37.255 -26.460 -15.079  0.00  0.00    +0.352 C 
ENDBRANCH   1   4
BRANCH   1   5
ATOM      5  O   UNL     1      36.795 -27.712 -16.902  0.00  0.00    -0.198 OA
ATOM      6  H   UNL     1      36.647 -27.297 -17.766  0.00  0.00    +0.268 HD
ENDBRANCH   1   5
TORSDOF 2
ENDMDL
MODEL 6
REMARK VINA RESULT:      -3.8     10.932     11.492
REMARK  Name = 6585
REMARK  2 active torsions:
REMARK  status: ('A' for Active; 'I' for Inactive)
REMARK    1  A    between atoms: O_1  and  C_4
REMARK    2  A    between atoms: O_1  and  O_5
REMARK                            x       y       z     vdW  Elec       q    Type
REMARK                         _______ _______ _______ _____ _____    ______ ____
ROOT
ATOM      1  O   UNL     1      37.254 -24.149 -10.948  0.00  0.00    -0.299 OA
ENDROOT
BRANCH   1   4
ATOM      2  O   UNL     1      35.236 -25.072 -10.298  0.00  0.00    -0.247 OA
ATOM      3  C   UNL     1      35.414 -23.841 -12.358  0.00  0.00    +0.125 C 
ATOM      4  C   UNL     1      35.927 -24.434 -11.081  0.00  0.00    +0.352 C 
ENDBRANCH   1   4
BRANCH   1   5
ATOM      5  O   UNL     1      37.382 -22.707 -11.076  0.00  0.00    -0.198 OA
ATOM      6  H   UNL     1      37.781 -22.492 -11.933  0.00  0.00    +0.268 HD
ENDBRANCH   1   5
TORSDOF 2
ENDMDL
MODEL 7
REMARK VINA RESULT:      -3.7     13.376     13.956
REMARK  Name = 6585
REMARK  2 active torsions:
REMARK  status: ('A' for Active; 'I' for Inactive)
REMARK    1  A    between atoms: O_1  and  C_4
REMARK    2  A    between atoms: O_1  and  O_5
REMARK                            x       y       z     vdW  Elec       q    Type
REMARK                         _______ _______ _______ _____ _____    ______ ____
ROOT
ATOM      1  O   UNL     1      40.595 -25.540 -14.771  0.00  0.00    -0.299 OA
ENDROOT
BRANCH   1   4
ATOM      2  O   UNL     1      38.708 -26.869 -14.635  0.00  0.00    -0.247 OA
ATOM      3  C   UNL     1      38.994 -24.990 -13.159  0.00  0.00    +0.125 C 
ATOM      4  C   UNL     1      39.387 -25.921 -14.265  0.00  0.00    +0.352 C 
ENDBRANCH   1   4
BRANCH   1   5
ATOM      5  O   UNL     1      40.636 -26.013 -16.145  0.00  0.00    -0.198 OA
ATOM      6  H   UNL     1      40.001 -26.737 -16.258  0.00  0.00    +0.268 HD
ENDBRANCH   1   5
TORSDOF 2
ENDMDL
MODEL 8
REMARK VINA RESULT:      -3.7      2.673      3.140
REMARK  Name = 6585
REMARK  2 active torsions:
REMARK  status: ('A' for Active; 'I' for Inactive)
REMARK    1  A    between atoms: O_1  and  C_4
REMARK    2  A    between atoms: O_1  and  O_5
REMARK                            x       y       z     vdW  Elec       q    Type
REMARK                         _______ _______ _______ _____ _____    ______ ____
ROOT
ATOM      1  O   UNL     1      29.084 -22.232 -17.049  0.00  0.00    -0.299 OA
ENDROOT
BRANCH   1   4
ATOM      2  O   UNL     1      27.501 -23.787 -17.700  0.00  0.00    -0.247 OA
ATOM      3  C   UNL     1      28.833 -24.145 -15.728  0.00  0.00    +0.125 C 
ATOM      4  C   UNL     1      28.377 -23.393 -16.941  0.00  0.00    +0.352 C 
ENDBRANCH   1   4
BRANCH   1   5
ATOM      5  O   UNL     1      30.490 -22.595 -16.987  0.00  0.00    -0.198 OA
ATOM      6  H   UNL     1      30.680 -23.271 -17.656  0.00  0.00    +0.268 HD
ENDBRANCH   1   5
TORSDOF 2
ENDMDL
MODEL 9
REMARK VINA RESULT:      -3.7     15.548     16.117
REMARK  Name = 6585
REMARK  2 active torsions:
REMARK  status: ('A' for Active; 'I' for Inactive)
REMARK    1  A    between atoms: O_1  and  C_4
REMARK    2  A    between atoms: O_1  and  O_5
REMARK                            x       y       z     vdW  Elec       q    Type
REMARK                         _______ _______ _______ _____ _____    ______ ____
ROOT
ATOM      1  O   UNL     1      40.560 -16.243 -15.674  0.00  0.00    -0.299 OA
ENDROOT
BRANCH   1   4
ATOM      2  O   UNL     1      42.825 -16.429 -16.100  0.00  0.00    -0.247 OA
ATOM      3  C   UNL     1      41.463 -14.894 -17.356  0.00  0.00    +0.125 C 
ATOM      4  C   UNL     1      41.724 -15.940 -16.316  0.00  0.00    +0.352 C 
ENDBRANCH   1   4
BRANCH   1   5
ATOM      5  O   UNL     1      40.340 -15.191 -14.695  0.00  0.00    -0.198 OA
ATOM      6  H   UNL     1      39.478 -15.320 -14.269  0.00  0.00    +0.268 HD
ENDBRANCH   1   5
TORSDOF 2
ENDMDL
