MODEL 1
REMARK VINA RESULT:     -10.3      0.000      0.000
REMARK  Name = 46937102
REMARK  8 active torsions:
REMARK  status: ('A' for Active; 'I' for Inactive)
REMARK    1  A    between atoms: C_1  and  C_6
REMARK    2  A    between atoms: C_1  and  N_17
REMARK    3  A    between atoms: C_1  and  C_26
REMARK    4  A    between atoms: N_3  and  C_8
REMARK    5  A    between atoms: C_8  and  C_10
REMARK    6  A    between atoms: C_8  and  C_12
REMARK    7  A    between atoms: C_12  and  C_13
REMARK    8  A    between atoms: C_18  and  C_20
REMARK                            x       y       z     vdW  Elec       q    Type
REMARK                         _______ _______ _______ _____ _____    ______ ____
ROOT
ATOM      1  C   UNL     1      34.984 -18.001 -22.814  0.00  0.00    +0.091 C 
ATOM      2  C   UNL     1      36.545 -18.188 -22.847  0.00  0.00    +0.026 C 
ENDROOT
BRANCH   1   6
ATOM      3  N   UNL     1      33.961 -14.593 -22.303  0.00  0.00    -0.157 NA
ATOM      4  N   UNL     1      34.937 -16.147 -21.179  0.00  0.00    -0.152 NA
ATOM      5  N   UNL     1      34.513 -14.889 -21.115  0.00  0.00    -0.063 NA
ATOM      6  C   UNL     1      34.640 -16.627 -22.424  0.00  0.00    +0.091 C 
ATOM      7  C   UNL     1      34.015 -15.650 -23.158  0.00  0.00    +0.140 C 
BRANCH   3   8
ATOM      8  C   UNL     1      33.378 -13.216 -22.566  0.00  0.00    +0.141 C 
BRANCH   8  10
ATOM      9  O   UNL     1      32.970 -13.664 -24.914  0.00  0.00    -0.295 OA
ATOM     10  C   UNL     1      33.411 -12.893 -24.061  0.00  0.00    +0.167 C 
ATOM     11  C   UNL     1      33.989 -11.556 -24.457  0.00  0.00    +0.074 C 
ENDBRANCH   8  10
BRANCH   8  12
ATOM     12  C   UNL     1      31.950 -13.061 -21.999  0.00  0.00    +0.051 C 
BRANCH  12  13
ATOM     13  C   UNL     1      31.930 -12.346 -20.676  0.00  0.00    -0.029 C 
ATOM     14  C   UNL     1      31.206 -11.241 -20.437  0.00  0.00    -0.030 C 
ATOM     15  C   UNL     1      31.185 -10.530 -19.125  0.00  0.00    +0.030 C 
ENDBRANCH  12  13
ENDBRANCH   8  12
ENDBRANCH   3   8
ENDBRANCH   1   6
BRANCH   1  17
ATOM     16  O   UNL     1      36.440 -19.098 -20.597  0.00  0.00    -0.270 OA
ATOM     17  N   UNL     1      34.510 -19.050 -21.871  0.00  0.00    -0.299 N 
ATOM     18  C   UNL     1      35.305 -19.486 -20.853  0.00  0.00    +0.246 C 
ATOM     19  H   UNL     1      33.610 -19.434 -21.984  0.00  0.00    +0.150 HD
BRANCH  18  20
ATOM     20  C   UNL     1      34.697 -20.554 -20.018  0.00  0.00    +0.053 C 
ATOM     21  C   UNL     1      35.513 -21.435 -19.309  0.00  0.00    +0.005 C 
ATOM     22  C   UNL     1      33.309 -20.676 -19.944  0.00  0.00    +0.005 C 
ATOM     23  C   UNL     1      34.942 -22.437 -18.524  0.00  0.00    +0.000 C 
ATOM     24  C   UNL     1      32.738 -21.678 -19.160  0.00  0.00    +0.000 C 
ATOM     25  C   UNL     1      33.555 -22.559 -18.449  0.00  0.00    +0.000 C 
ENDBRANCH  18  20
ENDBRANCH   1  17
BRANCH   1  26
ATOM     26  C   UNL     1      34.406 -18.415 -24.250  0.00  0.00    +0.022 C 
ATOM     27  C   UNL     1      34.767 -19.829 -24.735  0.00  0.00    +0.002 C 
ATOM     28  C   UNL     1      34.803 -17.409 -25.344  0.00  0.00    +0.002 C 
ENDBRANCH   1  26
TORSDOF 8
ENDMDL
MODEL 2
REMARK VINA RESULT:      -9.9      0.896      1.467
REMARK  Name = 46937102
REMARK  8 active torsions:
REMARK  status: ('A' for Active; 'I' for Inactive)
REMARK    1  A    between atoms: C_1  and  C_6
REMARK    2  A    between atoms: C_1  and  N_17
REMARK    3  A    between atoms: C_1  and  C_26
REMARK    4  A    between atoms: N_3  and  C_8
REMARK    5  A    between atoms: C_8  and  C_10
REMARK    6  A    between atoms: C_8  and  C_12
REMARK    7  A    between atoms: C_12  and  C_13
REMARK    8  A    between atoms: C_18  and  C_20
REMARK                            x       y       z     vdW  Elec       q    Type
REMARK                         _______ _______ _______ _____ _____    ______ ____
ROOT
ATOM      1  C   UNL     1      34.942 -17.456 -23.121  0.00  0.00    +0.091 C 
ATOM      2  C   UNL     1      36.472 -17.288 -22.798  0.00  0.00    +0.026 C 
ENDROOT
BRANCH   1   6
ATOM      3  N   UNL     1      33.491 -14.193 -22.714  0.00  0.00    -0.157 NA
ATOM      4  N   UNL     1      33.127 -16.195 -22.013  0.00  0.00    -0.152 NA
ATOM      5  N   UNL     1      32.686 -14.943 -21.943  0.00  0.00    -0.063 NA
ATOM      6  C   UNL     1      34.218 -16.210 -22.837  0.00  0.00    +0.091 C 
ATOM      7  C   UNL     1      34.467 -14.941 -23.297  0.00  0.00    +0.140 C 
BRANCH   3   8
ATOM      8  C   UNL     1      33.262 -12.698 -22.850  0.00  0.00    +0.141 C 
BRANCH   8  10
ATOM      9  O   UNL     1      33.442 -12.913 -25.259  0.00  0.00    -0.295 OA
ATOM     10  C   UNL     1      33.630 -12.222 -24.257  0.00  0.00    +0.167 C 
ATOM     11  C   UNL     1      34.216 -10.837 -24.376  0.00  0.00    +0.074 C 
ENDBRANCH   8  10
BRANCH   8  12
ATOM     12  C   UNL     1      31.819 -12.287 -22.488  0.00  0.00    +0.051 C 
BRANCH  12  13
ATOM     13  C   UNL     1      31.768 -11.299 -21.355  0.00  0.00    -0.029 C 
ATOM     14  C   UNL     1      31.531 -11.639 -20.079  0.00  0.00    -0.030 C 
ATOM     15  C   UNL     1      31.479 -10.660 -18.954  0.00  0.00    +0.030 C 
ENDBRANCH  12  13
ENDBRANCH   8  12
ENDBRANCH   3   8
ENDBRANCH   1   6
BRANCH   1  17
ATOM     16  O   UNL     1      35.925 -18.159 -20.517  0.00  0.00    -0.270 OA
ATOM     17  N   UNL     1      34.519 -18.621 -22.295  0.00  0.00    -0.299 N 
ATOM     18  C   UNL     1      35.068 -18.843 -21.067  0.00  0.00    +0.246 C 
ATOM     19  H   UNL     1      33.835 -19.238 -22.641  0.00  0.00    +0.150 HD
BRANCH  18  20
ATOM     20  C   UNL     1      34.560 -20.060 -20.383  0.00  0.00    +0.053 C 
ATOM     21  C   UNL     1      33.186 -20.278 -20.276  0.00  0.00    +0.005 C 
ATOM     22  C   UNL     1      35.457 -20.985 -19.849  0.00  0.00    +0.005 C 
ATOM     23  C   UNL     1      32.710 -21.422 -19.635  0.00  0.00    +0.000 C 
ATOM     24  C   UNL     1      34.980 -22.128 -19.208  0.00  0.00    +0.000 C 
ATOM     25  C   UNL     1      33.606 -22.347 -19.101  0.00  0.00    +0.000 C 
ENDBRANCH  18  20
ENDBRANCH   1  17
BRANCH   1  26
ATOM     26  C   UNL     1      34.808 -17.934 -24.645  0.00  0.00    +0.022 C 
ATOM     27  C   UNL     1      33.859 -17.106 -25.526  0.00  0.00    +0.002 C 
ATOM     28  C   UNL     1      34.406 -19.415 -24.752  0.00  0.00    +0.002 C 
ENDBRANCH   1  26
TORSDOF 8
ENDMDL
MODEL 3
REMARK VINA RESULT:      -9.5      1.916      7.858
REMARK  Name = 46937102
REMARK  8 active torsions:
REMARK  status: ('A' for Active; 'I' for Inactive)
REMARK    1  A    between atoms: C_1  and  C_6
REMARK    2  A    between atoms: C_1  and  N_17
REMARK    3  A    between atoms: C_1  and  C_26
REMARK    4  A    between atoms: N_3  and  C_8
REMARK    5  A    between atoms: C_8  and  C_10
REMARK    6  A    between atoms: C_8  and  C_12
REMARK    7  A    between atoms: C_12  and  C_13
REMARK    8  A    between atoms: C_18  and  C_20
REMARK                            x       y       z     vdW  Elec       q    Type
REMARK                         _______ _______ _______ _____ _____    ______ ____
ROOT
ATOM      1  C   UNL     1      33.292 -13.099 -24.289  0.00  0.00    +0.091 C 
ATOM      2  C   UNL     1      31.917 -13.359 -25.007  0.00  0.00    +0.026 C 
ENDROOT
BRANCH   1   6
ATOM      3  N   UNL     1      34.384 -16.407 -23.405  0.00  0.00    -0.157 NA
ATOM      4  N   UNL     1      34.865 -14.378 -22.875  0.00  0.00    -0.152 NA
ATOM      5  N   UNL     1      35.178 -15.647 -22.633  0.00  0.00    -0.063 NA
ATOM      6  C   UNL     1      33.866 -14.363 -23.806  0.00  0.00    +0.091 C 
ATOM      7  C   UNL     1      33.543 -15.649 -24.159  0.00  0.00    +0.140 C 
BRANCH   3   8
ATOM      8  C   UNL     1      34.484 -17.922 -23.364  0.00  0.00    +0.141 C 
BRANCH   8  10
ATOM      9  O   UNL     1      34.708 -17.772 -25.774  0.00  0.00    -0.295 OA
ATOM     10  C   UNL     1      34.686 -18.487 -24.772  0.00  0.00    +0.167 C 
ATOM     11  C   UNL     1      34.892 -19.977 -24.885  0.00  0.00    +0.074 C 
ENDBRANCH   8  10
BRANCH   8  12
ATOM     12  C   UNL     1      35.589 -18.415 -22.407  0.00  0.00    +0.051 C 
BRANCH  12  13
ATOM     13  C   UNL     1      35.043 -19.229 -21.266  0.00  0.00    -0.029 C 
ATOM     14  C   UNL     1      33.784 -19.689 -21.213  0.00  0.00    -0.030 C 
ATOM     15  C   UNL     1      33.241 -20.496 -20.082  0.00  0.00    +0.030 C 
ENDBRANCH  12  13
ENDBRANCH   8  12
ENDBRANCH   3   8
ENDBRANCH   1   6
BRANCH   1  17
ATOM     16  O   UNL     1      31.800 -13.610 -21.890  0.00  0.00    -0.270 OA
ATOM     17  N   UNL     1      32.966 -12.117 -23.219  0.00  0.00    -0.299 N 
ATOM     18  C   UNL     1      32.246 -12.490 -22.124  0.00  0.00    +0.246 C 
ATOM     19  H   UNL     1      33.276 -11.187 -23.304  0.00  0.00    +0.150 HD
BRANCH  18  20
ATOM     20  C   UNL     1      31.982 -11.389 -21.162  0.00  0.00    +0.053 C 
ATOM     21  C   UNL     1      32.095 -10.061 -21.575  0.00  0.00    +0.005 C 
ATOM     22  C   UNL     1      31.622 -11.682 -19.847  0.00  0.00    +0.005 C 
ATOM     23  C   UNL     1      31.845  -9.027 -20.673  0.00  0.00    +0.000 C 
ATOM     24  C   UNL     1      31.373 -10.649 -18.945  0.00  0.00    +0.000 C 
ATOM     25  C   UNL     1      31.484  -9.320 -19.357  0.00  0.00    +0.000 C 
ENDBRANCH  18  20
ENDBRANCH   1  17
BRANCH   1  26
ATOM     26  C   UNL     1      34.246 -12.321 -25.315  0.00  0.00    +0.022 C 
ATOM     27  C   UNL     1      34.517 -10.844 -24.990  0.00  0.00    +0.002 C 
ATOM     28  C   UNL     1      33.734 -12.415 -26.763  0.00  0.00    +0.002 C 
ENDBRANCH   1  26
TORSDOF 8
ENDMDL
MODEL 4
REMARK VINA RESULT:      -9.4      6.677     11.994
REMARK  Name = 46937102
REMARK  8 active torsions:
REMARK  status: ('A' for Active; 'I' for Inactive)
REMARK    1  A    between atoms: C_1  and  C_6
REMARK    2  A    between atoms: C_1  and  N_17
REMARK    3  A    between atoms: C_1  and  C_26
REMARK    4  A    between atoms: N_3  and  C_8
REMARK    5  A    between atoms: C_8  and  C_10
REMARK    6  A    between atoms: C_8  and  C_12
REMARK    7  A    between atoms: C_12  and  C_13
REMARK    8  A    between atoms: C_18  and  C_20
REMARK                            x       y       z     vdW  Elec       q    Type
REMARK                         _______ _______ _______ _____ _____    ______ ____
ROOT
ATOM      1  C   UNL     1      32.080 -23.245 -15.209  0.00  0.00    +0.091 C 
ATOM      2  C   UNL     1      31.145 -22.243 -14.438  0.00  0.00    +0.026 C 
ENDROOT
BRANCH   1   6
ATOM      3  N   UNL     1      35.025 -24.261 -13.416  0.00  0.00    -0.157 NA
ATOM      4  N   UNL     1      32.896 -24.256 -13.105  0.00  0.00    -0.152 NA
ATOM      5  N   UNL     1      34.054 -24.590 -12.547  0.00  0.00    -0.063 NA
ATOM      6  C   UNL     1      33.161 -23.717 -14.332  0.00  0.00    +0.091 C 
ATOM      7  C   UNL     1      34.516 -23.710 -14.551  0.00  0.00    +0.140 C 
BRANCH   3   8
ATOM      8  C   UNL     1      36.483 -24.519 -13.083  0.00  0.00    +0.141 C 
BRANCH   8  10
ATOM      9  O   UNL     1      36.550 -24.523 -10.659  0.00  0.00    -0.295 OA
ATOM     10  C   UNL     1      36.832 -23.945 -11.708  0.00  0.00    +0.167 C 
ATOM     11  C   UNL     1      37.576 -22.632 -11.687  0.00  0.00    +0.074 C 
ENDBRANCH   8  10
BRANCH   8  12
ATOM     12  C   UNL     1      36.852 -26.016 -13.166  0.00  0.00    +0.051 C 
BRANCH  12  13
ATOM     13  C   UNL     1      38.081 -26.262 -13.998  0.00  0.00    -0.029 C 
ATOM     14  C   UNL     1      39.264 -25.672 -13.773  0.00  0.00    -0.030 C 
ATOM     15  C   UNL     1      40.484 -25.915 -14.598  0.00  0.00    +0.030 C 
ENDBRANCH  12  13
ENDBRANCH   8  12
ENDBRANCH   3   8
ENDBRANCH   1   6
BRANCH   1  17
ATOM     16  O   UNL     1      33.561 -24.268 -17.445  0.00  0.00    -0.270 OA
ATOM     17  N   UNL     1      32.538 -22.476 -16.399  0.00  0.00    -0.299 N 
ATOM     18  C   UNL     1      33.237 -23.086 -17.398  0.00  0.00    +0.246 C 
ATOM     19  H   UNL     1      32.332 -21.516 -16.464  0.00  0.00    +0.150 HD
BRANCH  18  20
ATOM     20  C   UNL     1      33.644 -22.176 -18.500  0.00  0.00    +0.053 C 
ATOM     21  C   UNL     1      32.688 -21.396 -19.150  0.00  0.00    +0.005 C 
ATOM     22  C   UNL     1      34.983 -22.103 -18.884  0.00  0.00    +0.005 C 
ATOM     23  C   UNL     1      33.070 -20.541 -20.183  0.00  0.00    +0.000 C 
ATOM     24  C   UNL     1      35.365 -21.249 -19.918  0.00  0.00    +0.000 C 
ATOM     25  C   UNL     1      34.409 -20.467 -20.568  0.00  0.00    +0.000 C 
ENDBRANCH  18  20
ENDBRANCH   1  17
BRANCH   1  26
ATOM     26  C   UNL     1      31.167 -24.430 -15.783  0.00  0.00    +0.022 C 
ATOM     27  C   UNL     1      29.932 -23.995 -16.588  0.00  0.00    +0.002 C 
ATOM     28  C   UNL     1      30.713 -25.397 -14.677  0.00  0.00    +0.002 C 
ENDBRANCH   1  26
TORSDOF 8
ENDMDL
MODEL 5
REMARK VINA RESULT:      -9.4      1.493      2.279
REMARK  Name = 46937102
REMARK  8 active torsions:
REMARK  status: ('A' for Active; 'I' for Inactive)
REMARK    1  A    between atoms: C_1  and  C_6
REMARK    2  A    between atoms: C_1  and  N_17
REMARK    3  A    between atoms: C_1  and  C_26
REMARK    4  A    between atoms: N_3  and  C_8
REMARK    5  A    between atoms: C_8  and  C_10
REMARK    6  A    between atoms: C_8  and  C_12
REMARK    7  A    between atoms: C_12  and  C_13
REMARK    8  A    between atoms: C_18  and  C_20
REMARK                            x       y       z     vdW  Elec       q    Type
REMARK                         _______ _______ _______ _____ _____    ______ ____
ROOT
ATOM      1  C   UNL     1      34.471 -17.478 -22.840  0.00  0.00    +0.091 C 
ATOM      2  C   UNL     1      36.003 -17.186 -22.643  0.00  0.00    +0.026 C 
ENDROOT
BRANCH   1   6
ATOM      3  N   UNL     1      32.726 -14.354 -22.501  0.00  0.00    -0.157 NA
ATOM      4  N   UNL     1      32.857 -16.226 -21.448  0.00  0.00    -0.152 NA
ATOM      5  N   UNL     1      32.275 -15.032 -21.432  0.00  0.00    -0.063 NA
ATOM      6  C   UNL     1      33.677 -16.279 -22.540  0.00  0.00    +0.091 C 
ATOM      7  C   UNL     1      33.608 -15.093 -23.227  0.00  0.00    +0.140 C 
BRANCH   3   8
ATOM      8  C   UNL     1      32.256 -12.937 -22.776  0.00  0.00    +0.141 C 
BRANCH   8  10
ATOM      9  O   UNL     1      32.450 -12.406 -20.417  0.00  0.00    -0.295 OA
ATOM     10  C   UNL     1      31.841 -12.245 -21.475  0.00  0.00    +0.167 C 
ATOM     11  C   UNL     1      30.653 -11.317 -21.546  0.00  0.00    +0.074 C 
ENDBRANCH   8  10
BRANCH   8  12
ATOM     12  C   UNL     1      33.309 -12.102 -23.535  0.00  0.00    +0.051 C 
BRANCH  12  13
ATOM     13  C   UNL     1      33.076 -10.622 -23.402  0.00  0.00    -0.029 C 
ATOM     14  C   UNL     1      33.965  -9.691 -23.780  0.00  0.00    -0.030 C 
ATOM     15  C   UNL     1      33.736  -8.222 -23.649  0.00  0.00    +0.030 C 
ENDBRANCH  12  13
ENDBRANCH   8  12
ENDBRANCH   3   8
ENDBRANCH   1   6
BRANCH   1  17
ATOM     16  O   UNL     1      36.214 -18.521 -20.812  0.00  0.00    -0.270 OA
ATOM     17  N   UNL     1      34.202 -18.640 -21.947  0.00  0.00    -0.299 N 
ATOM     18  C   UNL     1      35.120 -19.035 -21.020  0.00  0.00    +0.246 C 
ATOM     19  H   UNL     1      33.351 -19.127 -22.029  0.00  0.00    +0.150 HD
BRANCH  18  20
ATOM     20  C   UNL     1      34.713 -20.224 -20.228  0.00  0.00    +0.053 C 
ATOM     21  C   UNL     1      35.684 -21.039 -19.644  0.00  0.00    +0.005 C 
ATOM     22  C   UNL     1      33.361 -20.527 -20.068  0.00  0.00    +0.005 C 
ATOM     23  C   UNL     1      35.302 -22.154 -18.899  0.00  0.00    +0.000 C 
ATOM     24  C   UNL     1      32.979 -21.642 -19.324  0.00  0.00    +0.000 C 
ATOM     25  C   UNL     1      33.950 -22.456 -18.739  0.00  0.00    +0.000 C 
ENDBRANCH  18  20
ENDBRANCH   1  17
BRANCH   1  26
ATOM     26  C   UNL     1      34.258 -18.021 -24.333  0.00  0.00    +0.022 C 
ATOM     27  C   UNL     1      34.770 -19.445 -24.607  0.00  0.00    +0.002 C 
ATOM     28  C   UNL     1      34.865 -17.075 -25.383  0.00  0.00    +0.002 C 
ENDBRANCH   1  26
TORSDOF 8
ENDMDL
MODEL 6
REMARK VINA RESULT:      -9.1      6.567     11.161
REMARK  Name = 46937102
REMARK  8 active torsions:
REMARK  status: ('A' for Active; 'I' for Inactive)
REMARK    1  A    between atoms: C_1  and  C_6
REMARK    2  A    between atoms: C_1  and  N_17
REMARK    3  A    between atoms: C_1  and  C_26
REMARK    4  A    between atoms: N_3  and  C_8
REMARK    5  A    between atoms: C_8  and  C_10
REMARK    6  A    between atoms: C_8  and  C_12
REMARK    7  A    between atoms: C_12  and  C_13
REMARK    8  A    between atoms: C_18  and  C_20
REMARK                            x       y       z     vdW  Elec       q    Type
REMARK                         _______ _______ _______ _____ _____    ______ ____
ROOT
ATOM      1  C   UNL     1      32.045 -23.249 -15.332  0.00  0.00    +0.091 C 
ATOM      2  C   UNL     1      31.196 -22.245 -14.469  0.00  0.00    +0.026 C 
ENDROOT
BRANCH   1   6
ATOM      3  N   UNL     1      34.973 -24.645 -13.783  0.00  0.00    -0.157 NA
ATOM      4  N   UNL     1      32.991 -24.050 -13.193  0.00  0.00    -0.152 NA
ATOM      5  N   UNL     1      34.130 -24.562 -12.740  0.00  0.00    -0.063 NA
ATOM      6  C   UNL     1      33.138 -23.817 -14.531  0.00  0.00    +0.091 C 
ATOM      7  C   UNL     1      34.398 -24.190 -14.929  0.00  0.00    +0.140 C 
BRANCH   3   8
ATOM      8  C   UNL     1      36.375 -25.200 -13.606  0.00  0.00    +0.141 C 
BRANCH   8  10
ATOM      9  O   UNL     1      35.884 -26.561 -15.552  0.00  0.00    -0.295 OA
ATOM     10  C   UNL     1      36.724 -26.157 -14.747  0.00  0.00    +0.167 C 
ATOM     11  C   UNL     1      38.170 -26.571 -14.871  0.00  0.00    +0.074 C 
ENDBRANCH   8  10
BRANCH   8  12
ATOM     12  C   UNL     1      37.437 -24.088 -13.472  0.00  0.00    +0.051 C 
BRANCH  12  13
ATOM     13  C   UNL     1      37.169 -22.921 -14.382  0.00  0.00    -0.029 C 
ATOM     14  C   UNL     1      37.613 -22.843 -15.645  0.00  0.00    -0.030 C 
ATOM     15  C   UNL     1      37.348 -21.686 -16.549  0.00  0.00    +0.030 C 
ENDBRANCH  12  13
ENDBRANCH   8  12
ENDBRANCH   3   8
ENDBRANCH   1   6
BRANCH   1  17
ATOM     16  O   UNL     1      33.404 -24.218 -17.668  0.00  0.00    -0.270 OA
ATOM     17  N   UNL     1      32.488 -22.442 -16.502  0.00  0.00    -0.299 N 
ATOM     18  C   UNL     1      33.128 -23.028 -17.554  0.00  0.00    +0.246 C 
ATOM     19  H   UNL     1      32.318 -21.473 -16.515  0.00  0.00    +0.150 HD
BRANCH  18  20
ATOM     20  C   UNL     1      33.529 -22.083 -18.627  0.00  0.00    +0.053 C 
ATOM     21  C   UNL     1      34.866 -21.999 -19.019  0.00  0.00    +0.005 C 
ATOM     22  C   UNL     1      32.570 -21.280 -19.244  0.00  0.00    +0.005 C 
ATOM     23  C   UNL     1      35.242 -21.113 -20.029  0.00  0.00    +0.000 C 
ATOM     24  C   UNL     1      32.946 -20.393 -20.252  0.00  0.00    +0.000 C 
ATOM     25  C   UNL     1      34.283 -20.310 -20.645  0.00  0.00    +0.000 C 
ENDBRANCH  18  20
ENDBRANCH   1  17
BRANCH   1  26
ATOM     26  C   UNL     1      31.050 -24.357 -15.923  0.00  0.00    +0.022 C 
ATOM     27  C   UNL     1      29.786 -23.822 -16.615  0.00  0.00    +0.002 C 
ATOM     28  C   UNL     1      30.625 -25.379 -14.854  0.00  0.00    +0.002 C 
ENDBRANCH   1  26
TORSDOF 8
ENDMDL
MODEL 7
REMARK VINA RESULT:      -9.0      6.308     11.576
REMARK  Name = 46937102
REMARK  8 active torsions:
REMARK  status: ('A' for Active; 'I' for Inactive)
REMARK    1  A    between atoms: C_1  and  C_6
REMARK    2  A    between atoms: C_1  and  N_17
REMARK    3  A    between atoms: C_1  and  C_26
REMARK    4  A    between atoms: N_3  and  C_8
REMARK    5  A    between atoms: C_8  and  C_10
REMARK    6  A    between atoms: C_8  and  C_12
REMARK    7  A    between atoms: C_12  and  C_13
REMARK    8  A    between atoms: C_18  and  C_20
REMARK                            x       y       z     vdW  Elec       q    Type
REMARK                         _______ _______ _______ _____ _____    ______ ____
ROOT
ATOM      1  C   UNL     1      33.856 -23.486 -15.589  0.00  0.00    +0.091 C 
ATOM      2  C   UNL     1      33.745 -22.557 -14.326  0.00  0.00    +0.026 C 
ENDROOT
BRANCH   1   6
ATOM      3  N   UNL     1      36.716 -25.546 -14.885  0.00  0.00    -0.157 NA
ATOM      4  N   UNL     1      34.887 -25.694 -16.008  0.00  0.00    -0.152 NA
ATOM      5  N   UNL     1      35.991 -26.355 -15.676  0.00  0.00    -0.063 NA
ATOM      6  C   UNL     1      34.938 -24.465 -15.414  0.00  0.00    +0.091 C 
ATOM      7  C   UNL     1      36.099 -24.349 -14.691  0.00  0.00    +0.140 C 
BRANCH   3   8
ATOM      8  C   UNL     1      38.054 -26.001 -14.331  0.00  0.00    +0.141 C 
BRANCH   8  10
ATOM      9  O   UNL     1      38.971 -24.009 -15.366  0.00  0.00    -0.295 OA
ATOM     10  C   UNL     1      39.183 -25.102 -14.841  0.00  0.00    +0.167 C 
ATOM     11  C   UNL     1      40.593 -25.603 -14.647  0.00  0.00    +0.074 C 
ENDBRANCH   8  10
BRANCH   8  12
ATOM     12  C   UNL     1      38.060 -26.074 -12.789  0.00  0.00    +0.051 C 
BRANCH  12  13
ATOM     13  C   UNL     1      38.018 -24.714 -12.147  0.00  0.00    -0.029 C 
ATOM     14  C   UNL     1      36.918 -24.187 -11.588  0.00  0.00    -0.030 C 
ATOM     15  C   UNL     1      36.874 -22.838 -10.951  0.00  0.00    +0.030 C 
ENDBRANCH  12  13
ENDBRANCH   8  12
ENDBRANCH   3   8
ENDBRANCH   1   6
BRANCH   1  17
ATOM     16  O   UNL     1      33.759 -24.122 -18.388  0.00  0.00    -0.270 OA
ATOM     17  N   UNL     1      34.053 -22.542 -16.723  0.00  0.00    -0.299 N 
ATOM     18  C   UNL     1      33.981 -22.974 -18.014  0.00  0.00    +0.246 C 
ATOM     19  H   UNL     1      34.237 -21.593 -16.538  0.00  0.00    +0.150 HD
BRANCH  18  20
ATOM     20  C   UNL     1      34.227 -21.916 -19.027  0.00  0.00    +0.053 C 
ATOM     21  C   UNL     1      33.154 -21.216 -19.580  0.00  0.00    +0.005 C 
ATOM     22  C   UNL     1      35.531 -21.621 -19.424  0.00  0.00    +0.005 C 
ATOM     23  C   UNL     1      33.386 -20.221 -20.529  0.00  0.00    +0.000 C 
ATOM     24  C   UNL     1      35.763 -20.627 -20.374  0.00  0.00    +0.000 C 
ATOM     25  C   UNL     1      34.690 -19.926 -20.927  0.00  0.00    +0.000 C 
ENDBRANCH  18  20
ENDBRANCH   1  17
BRANCH   1  26
ATOM     26  C   UNL     1      32.423 -24.162 -15.832  0.00  0.00    +0.022 C 
ATOM     27  C   UNL     1      31.303 -23.213 -16.286  0.00  0.00    +0.002 C 
ATOM     28  C   UNL     1      31.934 -24.938 -14.597  0.00  0.00    +0.002 C 
ENDBRANCH   1  26
TORSDOF 8
ENDMDL
MODEL 8
REMARK VINA RESULT:      -8.9      4.973     11.324
REMARK  Name = 46937102
REMARK  8 active torsions:
REMARK  status: ('A' for Active; 'I' for Inactive)
REMARK    1  A    between atoms: C_1  and  C_6
REMARK    2  A    between atoms: C_1  and  N_17
REMARK    3  A    between atoms: C_1  and  C_26
REMARK    4  A    between atoms: N_3  and  C_8
REMARK    5  A    between atoms: C_8  and  C_10
REMARK    6  A    between atoms: C_8  and  C_12
REMARK    7  A    between atoms: C_12  and  C_13
REMARK    8  A    between atoms: C_18  and  C_20
REMARK                            x       y       z     vdW  Elec       q    Type
REMARK                         _______ _______ _______ _____ _____    ______ ____
ROOT
ATOM      1  C   UNL     1      33.180  -8.277 -23.093  0.00  0.00    +0.091 C 
ATOM      2  C   UNL     1      34.412  -7.709 -22.299  0.00  0.00    +0.026 C 
ENDROOT
BRANCH   1   6
ATOM      3  N   UNL     1      33.512 -11.689 -24.175  0.00  0.00    -0.157 NA
ATOM      4  N   UNL     1      34.607  -9.846 -24.364  0.00  0.00    -0.152 NA
ATOM      5  N   UNL     1      34.616 -11.131 -24.700  0.00  0.00    -0.063 NA
ATOM      6  C   UNL     1      33.483  -9.614 -23.623  0.00  0.00    +0.091 C 
ATOM      7  C   UNL     1      32.769 -10.778 -23.490  0.00  0.00    +0.140 C 
BRANCH   3   8
ATOM      8  C   UNL     1      33.221 -13.166 -24.372  0.00  0.00    +0.141 C 
BRANCH   8  10
ATOM      9  O   UNL     1      33.234 -12.651 -26.742  0.00  0.00    -0.295 OA
ATOM     10  C   UNL     1      33.163 -13.510 -25.862  0.00  0.00    +0.167 C 
ATOM     11  C   UNL     1      33.042 -14.971 -26.220  0.00  0.00    +0.074 C 
ENDBRANCH   8  10
BRANCH   8  12
ATOM     12  C   UNL     1      34.232 -14.070 -23.635  0.00  0.00    +0.051 C 
BRANCH  12  13
ATOM     13  C   UNL     1      33.916 -14.216 -22.172  0.00  0.00    -0.029 C 
ATOM     14  C   UNL     1      32.867 -14.907 -21.701  0.00  0.00    -0.030 C 
ATOM     15  C   UNL     1      32.551 -15.052 -20.250  0.00  0.00    +0.030 C 
ENDBRANCH  12  13
ENDBRANCH   8  12
ENDBRANCH   3   8
ENDBRANCH   1   6
BRANCH   1  17
ATOM     16  O   UNL     1      35.121  -6.649 -24.445  0.00  0.00    -0.270 OA
ATOM     17  N   UNL     1      32.907  -7.246 -24.132  0.00  0.00    -0.299 N 
ATOM     18  C   UNL     1      33.925  -6.539 -24.699  0.00  0.00    +0.246 C 
ATOM     19  H   UNL     1      31.980  -7.074 -24.413  0.00  0.00    +0.150 HD
BRANCH  18  20
ATOM     20  C   UNL     1      33.486  -5.530 -25.697  0.00  0.00    +0.053 C 
ATOM     21  C   UNL     1      34.266  -5.281 -26.827  0.00  0.00    +0.005 C 
ATOM     22  C   UNL     1      32.293  -4.833 -25.506  0.00  0.00    +0.005 C 
ATOM     23  C   UNL     1      33.851  -4.336 -27.766  0.00  0.00    +0.000 C 
ATOM     24  C   UNL     1      31.880  -3.887 -26.443  0.00  0.00    +0.000 C 
ATOM     25  C   UNL     1      32.659  -3.638 -27.574  0.00  0.00    +0.000 C 
ENDBRANCH  18  20
ENDBRANCH   1  17
BRANCH   1  26
ATOM     26  C   UNL     1      31.909  -8.255 -22.117  0.00  0.00    +0.022 C 
ATOM     27  C   UNL     1      31.125  -6.934 -22.068  0.00  0.00    +0.002 C 
ATOM     28  C   UNL     1      32.279  -8.656 -20.679  0.00  0.00    +0.002 C 
ENDBRANCH   1  26
TORSDOF 8
ENDMDL
MODEL 9
REMARK VINA RESULT:      -8.8      2.369      8.390
REMARK  Name = 46937102
REMARK  8 active torsions:
REMARK  status: ('A' for Active; 'I' for Inactive)
REMARK    1  A    between atoms: C_1  and  C_6
REMARK    2  A    between atoms: C_1  and  N_17
REMARK    3  A    between atoms: C_1  and  C_26
REMARK    4  A    between atoms: N_3  and  C_8
REMARK    5  A    between atoms: C_8  and  C_10
REMARK    6  A    between atoms: C_8  and  C_12
REMARK    7  A    between atoms: C_12  and  C_13
REMARK    8  A    between atoms: C_18  and  C_20
REMARK                            x       y       z     vdW  Elec       q    Type
REMARK                         _______ _______ _______ _____ _____    ______ ____
ROOT
ATOM      1  C   UNL     1      34.813 -19.122 -21.612  0.00  0.00    +0.091 C 
ATOM      2  C   UNL     1      34.886 -19.817 -23.021  0.00  0.00    +0.026 C 
ENDROOT
BRANCH   1   6
ATOM      3  N   UNL     1      33.375 -21.407 -19.239  0.00  0.00    -0.157 NA
ATOM      4  N   UNL     1      32.736 -19.721 -20.412  0.00  0.00    -0.152 NA
ATOM      5  N   UNL     1      32.323 -20.623 -19.529  0.00  0.00    -0.063 NA
ATOM      6  C   UNL     1      34.057 -19.956 -20.667  0.00  0.00    +0.091 C 
ATOM      7  C   UNL     1      34.487 -21.029 -19.927  0.00  0.00    +0.140 C 
BRANCH   3   8
ATOM      8  C   UNL     1      33.239 -22.555 -18.255  0.00  0.00    +0.141 C 
BRANCH   8  10
ATOM      9  O   UNL     1      35.646 -22.541 -17.957  0.00  0.00    -0.295 OA
ATOM     10  C   UNL     1      34.536 -22.744 -17.465  0.00  0.00    +0.167 C 
ATOM     11  C   UNL     1      34.399 -23.168 -16.023  0.00  0.00    +0.074 C 
ENDBRANCH   8  10
BRANCH   8  12
ATOM     12  C   UNL     1      32.034 -22.379 -17.306  0.00  0.00    +0.051 C 
BRANCH  12  13
ATOM     13  C   UNL     1      31.494 -23.692 -16.809  0.00  0.00    -0.029 C 
ATOM     14  C   UNL     1      30.617 -23.804 -15.800  0.00  0.00    -0.030 C 
ATOM     15  C   UNL     1      30.081 -25.106 -15.306  0.00  0.00    +0.030 C 
ENDBRANCH  12  13
ENDBRANCH   8  12
ENDBRANCH   3   8
ENDBRANCH   1   6
BRANCH   1  17
ATOM     16  O   UNL     1      35.279 -16.685 -20.168  0.00  0.00    -0.270 OA
ATOM     17  N   UNL     1      34.203 -17.793 -21.891  0.00  0.00    -0.299 N 
ATOM     18  C   UNL     1      34.510 -16.708 -21.124  0.00  0.00    +0.246 C 
ATOM     19  H   UNL     1      33.569 -17.697 -22.637  0.00  0.00    +0.150 HD
BRANCH  18  20
ATOM     20  C   UNL     1      33.798 -15.464 -21.514  0.00  0.00    +0.053 C 
ATOM     21  C   UNL     1      33.923 -14.966 -22.811  0.00  0.00    +0.005 C 
ATOM     22  C   UNL     1      33.004 -14.795 -20.583  0.00  0.00    +0.005 C 
ATOM     23  C   UNL     1      33.252 -13.799 -23.177  0.00  0.00    +0.000 C 
ATOM     24  C   UNL     1      32.334 -13.628 -20.949  0.00  0.00    +0.000 C 
ATOM     25  C   UNL     1      32.458 -13.129 -22.246  0.00  0.00    +0.000 C 
ENDBRANCH  18  20
ENDBRANCH   1  17
BRANCH   1  26
ATOM     26  C   UNL     1      36.311 -18.819 -21.132  0.00  0.00    +0.022 C 
ATOM     27  C   UNL     1      37.333 -18.557 -22.251  0.00  0.00    +0.002 C 
ATOM     28  C   UNL     1      36.861 -19.929 -20.220  0.00  0.00    +0.002 C 
ENDBRANCH   1  26
TORSDOF 8
ENDMDL
