MODEL 1
REMARK VINA RESULT:      -7.7      0.000      0.000
REMARK  Name = 2216
REMARK  2 active torsions:
REMARK  status: ('A' for Active; 'I' for Inactive)
REMARK    1  A    between atoms: C_3  and  N_10
REMARK    2  A    between atoms: C_6  and  N_17
REMARK                            x       y       z     vdW  Elec       q    Type
REMARK                         _______ _______ _______ _____ _____    ______ ____
ROOT
ATOM      1 CL   UNL     1      35.024 -19.785 -24.799  0.00  0.00    -0.081 Cl
ATOM      2 CL   UNL     1      34.885 -16.018 -20.850  0.00  0.00    -0.081 Cl
ATOM      3  C   UNL     1      34.916 -17.832 -22.893  0.00  0.00    +0.072 C 
ATOM      4  C   UNL     1      34.699 -18.184 -24.233  0.00  0.00    +0.073 C 
ATOM      5  C   UNL     1      34.633 -16.519 -22.484  0.00  0.00    +0.073 C 
ATOM      6  C   UNL     1      33.933 -15.947 -24.725  0.00  0.00    +0.043 C 
ATOM      7  C   UNL     1      34.210 -17.247 -25.144  0.00  0.00    +0.027 C 
ATOM      8  C   UNL     1      34.145 -15.582 -23.395  0.00  0.00    +0.027 C 
ENDROOT
BRANCH   3  10
ATOM      9  N   UNL     1      35.376 -20.449 -20.371  0.00  0.00    -0.284 N 
ATOM     10  N   UNL     1      35.409 -18.771 -21.980  0.00  0.00    -0.285 N 
ATOM     11  N   UNL     1      33.374 -19.697 -21.130  0.00  0.00    -0.214 NA
ATOM     12  C   UNL     1      34.479 -21.265 -19.610  0.00  0.00    +0.085 C 
ATOM     13  C   UNL     1      33.119 -20.762 -20.114  0.00  0.00    +0.117 C 
ATOM     14  C   UNL     1      34.682 -19.609 -21.189  0.00  0.00    +0.190 C 
ATOM     15  H   UNL     1      36.358 -20.491 -20.311  0.00  0.00    +0.155 HD
ATOM     16  H   UNL     1      36.389 -18.832 -21.900  0.00  0.00    +0.155 HD
ENDBRANCH   3  10
BRANCH   6  17
ATOM     17  N   UNL     1      33.436 -14.999 -25.644  0.00  0.00    -0.357 N 
ATOM     18  H   UNL     1      32.534 -15.106 -26.023  0.00  0.00    +0.142 HD
ATOM     19  H   UNL     1      33.992 -14.230 -25.907  0.00  0.00    +0.142 HD
ENDBRANCH   6  17
TORSDOF 2
ENDMDL
MODEL 2
REMARK VINA RESULT:      -7.7      0.028      2.352
REMARK  Name = 2216
REMARK  2 active torsions:
REMARK  status: ('A' for Active; 'I' for Inactive)
REMARK    1  A    between atoms: C_3  and  N_10
REMARK    2  A    between atoms: C_6  and  N_17
REMARK                            x       y       z     vdW  Elec       q    Type
REMARK                         _______ _______ _______ _____ _____    ______ ____
ROOT
ATOM      1 CL   UNL     1      34.897 -16.005 -20.833  0.00  0.00    -0.081 Cl
ATOM      2 CL   UNL     1      35.043 -19.761 -24.792  0.00  0.00    -0.081 Cl
ATOM      3  C   UNL     1      34.934 -17.811 -22.881  0.00  0.00    +0.072 C 
ATOM      4  C   UNL     1      34.645 -16.502 -22.470  0.00  0.00    +0.073 C 
ATOM      5  C   UNL     1      34.714 -18.163 -24.222  0.00  0.00    +0.073 C 
ATOM      6  C   UNL     1      33.934 -15.928 -24.706  0.00  0.00    +0.043 C 
ATOM      7  C   UNL     1      34.148 -15.565 -23.377  0.00  0.00    +0.027 C 
ATOM      8  C   UNL     1      34.216 -17.227 -25.129  0.00  0.00    +0.027 C 
ENDROOT
BRANCH   3  10
ATOM      9  N   UNL     1      35.403 -20.435 -20.367  0.00  0.00    -0.284 N 
ATOM     10  N   UNL     1      35.430 -18.751 -21.971  0.00  0.00    -0.285 N 
ATOM     11  N   UNL     1      33.398 -19.689 -21.126  0.00  0.00    -0.214 NA
ATOM     12  C   UNL     1      34.508 -21.257 -19.610  0.00  0.00    +0.085 C 
ATOM     13  C   UNL     1      33.147 -20.758 -20.113  0.00  0.00    +0.117 C 
ATOM     14  C   UNL     1      34.705 -19.596 -21.183  0.00  0.00    +0.190 C 
ATOM     15  H   UNL     1      36.384 -20.472 -20.307  0.00  0.00    +0.155 HD
ATOM     16  H   UNL     1      36.410 -18.809 -21.890  0.00  0.00    +0.155 HD
ENDBRANCH   3  10
BRANCH   6  17
ATOM     17  N   UNL     1      33.433 -14.981 -25.624  0.00  0.00    -0.357 N 
ATOM     18  H   UNL     1      32.482 -14.998 -25.879  0.00  0.00    +0.142 HD
ATOM     19  H   UNL     1      34.034 -14.303 -26.009  0.00  0.00    +0.142 HD
ENDBRANCH   6  17
TORSDOF 2
ENDMDL
MODEL 3
REMARK VINA RESULT:      -7.4      1.052      1.209
REMARK  Name = 2216
REMARK  2 active torsions:
REMARK  status: ('A' for Active; 'I' for Inactive)
REMARK    1  A    between atoms: C_3  and  N_10
REMARK    2  A    between atoms: C_6  and  N_17
REMARK                            x       y       z     vdW  Elec       q    Type
REMARK                         _______ _______ _______ _____ _____    ______ ____
ROOT
ATOM      1 CL   UNL     1      34.945 -18.290 -24.683  0.00  0.00    -0.081 Cl
ATOM      2 CL   UNL     1      34.713 -15.436 -20.036  0.00  0.00    -0.081 Cl
ATOM      3  C   UNL     1      34.786 -16.781 -22.412  0.00  0.00    +0.072 C 
ATOM      4  C   UNL     1      34.561 -16.858 -23.794  0.00  0.00    +0.073 C 
ATOM      5  C   UNL     1      34.454 -15.597 -21.736  0.00  0.00    +0.073 C 
ATOM      6  C   UNL     1      33.691 -14.604 -23.803  0.00  0.00    +0.043 C 
ATOM      7  C   UNL     1      34.016 -15.775 -24.486  0.00  0.00    +0.027 C 
ATOM      8  C   UNL     1      33.910 -14.514 -22.428  0.00  0.00    +0.027 C 
ENDROOT
BRANCH   3  10
ATOM      9  N   UNL     1      35.402 -19.842 -20.494  0.00  0.00    -0.284 N 
ATOM     10  N   UNL     1      35.335 -17.866 -21.719  0.00  0.00    -0.285 N 
ATOM     11  N   UNL     1      33.356 -19.041 -21.065  0.00  0.00    -0.214 NA
ATOM     12  C   UNL     1      34.554 -20.839 -19.913  0.00  0.00    +0.085 C 
ATOM     13  C   UNL     1      33.165 -20.304 -20.290  0.00  0.00    +0.117 C 
ATOM     14  C   UNL     1      34.658 -18.883 -21.113  0.00  0.00    +0.190 C 
ATOM     15  H   UNL     1      36.385 -19.850 -20.452  0.00  0.00    +0.155 HD
ATOM     16  H   UNL     1      36.318 -17.898 -21.660  0.00  0.00    +0.155 HD
ENDBRANCH   3  10
BRANCH   6  17
ATOM     17  N   UNL     1      33.138 -13.510 -24.501  0.00  0.00    -0.357 N 
ATOM     18  H   UNL     1      32.875 -13.610 -25.444  0.00  0.00    +0.142 HD
ATOM     19  H   UNL     1      33.015 -12.646 -24.045  0.00  0.00    +0.142 HD
ENDBRANCH   6  17
TORSDOF 2
ENDMDL
MODEL 4
REMARK VINA RESULT:      -7.2      6.537      8.875
REMARK  Name = 2216
REMARK  2 active torsions:
REMARK  status: ('A' for Active; 'I' for Inactive)
REMARK    1  A    between atoms: C_3  and  N_10
REMARK    2  A    between atoms: C_6  and  N_17
REMARK                            x       y       z     vdW  Elec       q    Type
REMARK                         _______ _______ _______ _____ _____    ______ ____
ROOT
ATOM      1 CL   UNL     1      37.291 -22.225 -16.921  0.00  0.00    -0.081 Cl
ATOM      2 CL   UNL     1      32.514 -24.093 -15.053  0.00  0.00    -0.081 Cl
ATOM      3  C   UNL     1      34.856 -23.133 -16.079  0.00  0.00    +0.072 C 
ATOM      4  C   UNL     1      35.599 -22.530 -17.105  0.00  0.00    +0.073 C 
ATOM      5  C   UNL     1      33.486 -23.361 -16.279  0.00  0.00    +0.073 C 
ATOM      6  C   UNL     1      33.625 -22.398 -18.491  0.00  0.00    +0.043 C 
ATOM      7  C   UNL     1      34.987 -22.165 -18.305  0.00  0.00    +0.027 C 
ATOM      8  C   UNL     1      32.874 -22.996 -17.478  0.00  0.00    +0.027 C 
ENDROOT
BRANCH   3  10
ATOM      9  N   UNL     1      36.636 -24.809 -13.350  0.00  0.00    -0.284 N 
ATOM     10  N   UNL     1      35.470 -23.496 -14.875  0.00  0.00    -0.285 N 
ATOM     11  N   UNL     1      36.263 -25.690 -15.408  0.00  0.00    -0.214 NA
ATOM     12  C   UNL     1      37.269 -26.086 -13.213  0.00  0.00    +0.085 C 
ATOM     13  C   UNL     1      37.019 -26.693 -14.600  0.00  0.00    +0.117 C 
ATOM     14  C   UNL     1      36.105 -24.671 -14.597  0.00  0.00    +0.190 C 
ATOM     15  H   UNL     1      36.591 -24.127 -12.642  0.00  0.00    +0.155 HD
ATOM     16  H   UNL     1      35.439 -22.832 -14.148  0.00  0.00    +0.155 HD
ENDBRANCH   3  10
BRANCH   6  17
ATOM     17  N   UNL     1      33.005 -22.031 -19.704  0.00  0.00    -0.357 N 
ATOM     18  H   UNL     1      33.365 -21.284 -20.234  0.00  0.00    +0.142 HD
ATOM     19  H   UNL     1      32.213 -22.523 -20.021  0.00  0.00    +0.142 HD
ENDBRANCH   6  17
TORSDOF 2
ENDMDL
MODEL 5
REMARK VINA RESULT:      -7.2      6.550      8.909
REMARK  Name = 2216
REMARK  2 active torsions:
REMARK  status: ('A' for Active; 'I' for Inactive)
REMARK    1  A    between atoms: C_3  and  N_10
REMARK    2  A    between atoms: C_6  and  N_17
REMARK                            x       y       z     vdW  Elec       q    Type
REMARK                         _______ _______ _______ _____ _____    ______ ____
ROOT
ATOM      1 CL   UNL     1      32.628 -24.123 -14.963  0.00  0.00    -0.081 Cl
ATOM      2 CL   UNL     1      37.316 -22.191 -16.985  0.00  0.00    -0.081 Cl
ATOM      3  C   UNL     1      34.922 -23.129 -16.063  0.00  0.00    +0.072 C 
ATOM      4  C   UNL     1      33.550 -23.376 -16.220  0.00  0.00    +0.073 C 
ATOM      5  C   UNL     1      35.625 -22.517 -17.113  0.00  0.00    +0.073 C 
ATOM      6  C   UNL     1      33.605 -22.414 -18.435  0.00  0.00    +0.043 C 
ATOM      7  C   UNL     1      32.895 -23.021 -17.400  0.00  0.00    +0.027 C 
ATOM      8  C   UNL     1      34.970 -22.162 -18.292  0.00  0.00    +0.027 C 
ENDROOT
BRANCH   3  10
ATOM      9  N   UNL     1      36.777 -24.805 -13.384  0.00  0.00    -0.284 N 
ATOM     10  N   UNL     1      35.580 -23.487 -14.881  0.00  0.00    -0.285 N 
ATOM     11  N   UNL     1      36.286 -25.712 -15.406  0.00  0.00    -0.214 NA
ATOM     12  C   UNL     1      37.380 -26.096 -13.250  0.00  0.00    +0.085 C 
ATOM     13  C   UNL     1      37.051 -26.721 -14.613  0.00  0.00    +0.117 C 
ATOM     14  C   UNL     1      36.194 -24.674 -14.608  0.00  0.00    +0.190 C 
ATOM     15  H   UNL     1      36.784 -24.108 -12.688  0.00  0.00    +0.155 HD
ATOM     16  H   UNL     1      35.601 -22.809 -14.167  0.00  0.00    +0.155 HD
ENDBRANCH   3  10
BRANCH   6  17
ATOM     17  N   UNL     1      32.943 -22.052 -19.627  0.00  0.00    -0.357 N 
ATOM     18  H   UNL     1      31.978 -21.856 -19.615  0.00  0.00    +0.142 HD
ATOM     19  H   UNL     1      33.446 -21.995 -20.472  0.00  0.00    +0.142 HD
ENDBRANCH   6  17
TORSDOF 2
ENDMDL
MODEL 6
REMARK VINA RESULT:      -7.0      2.211      5.765
REMARK  Name = 2216
REMARK  2 active torsions:
REMARK  status: ('A' for Active; 'I' for Inactive)
REMARK    1  A    between atoms: C_3  and  N_10
REMARK    2  A    between atoms: C_6  and  N_17
REMARK                            x       y       z     vdW  Elec       q    Type
REMARK                         _______ _______ _______ _____ _____    ______ ____
ROOT
ATOM      1 CL   UNL     1      34.805 -15.367 -20.270  0.00  0.00    -0.081 Cl
ATOM      2 CL   UNL     1      34.775 -17.108 -25.444  0.00  0.00    -0.081 Cl
ATOM      3  C   UNL     1      34.784 -16.338 -22.824  0.00  0.00    +0.072 C 
ATOM      4  C   UNL     1      34.767 -16.629 -21.451  0.00  0.00    +0.073 C 
ATOM      5  C   UNL     1      34.750 -17.399 -23.742  0.00  0.00    +0.073 C 
ATOM      6  C   UNL     1      34.682 -18.996 -21.929  0.00  0.00    +0.043 C 
ATOM      7  C   UNL     1      34.716 -17.951 -21.007  0.00  0.00    +0.027 C 
ATOM      8  C   UNL     1      34.699 -18.720 -23.297  0.00  0.00    +0.027 C 
ENDROOT
BRANCH   3  10
ATOM      9  N   UNL     1      34.136 -12.830 -23.662  0.00  0.00    -0.284 N 
ATOM     10  N   UNL     1      34.838 -15.012 -23.269  0.00  0.00    -0.285 N 
ATOM     11  N   UNL     1      32.684 -14.215 -22.602  0.00  0.00    -0.214 NA
ATOM     12  C   UNL     1      33.025 -11.950 -23.463  0.00  0.00    +0.085 C 
ATOM     13  C   UNL     1      32.033 -12.878 -22.749  0.00  0.00    +0.117 C 
ATOM     14  C   UNL     1      33.864 -14.065 -23.155  0.00  0.00    +0.190 C 
ATOM     15  H   UNL     1      34.979 -12.577 -24.103  0.00  0.00    +0.155 HD
ATOM     16  H   UNL     1      35.671 -14.733 -23.716  0.00  0.00    +0.155 HD
ENDBRANCH   3  10
BRANCH   6  17
ATOM     17  N   UNL     1      34.628 -20.332 -21.481  0.00  0.00    -0.357 N 
ATOM     18  H   UNL     1      33.762 -20.797 -21.423  0.00  0.00    +0.142 HD
ATOM     19  H   UNL     1      35.456 -20.800 -21.227  0.00  0.00    +0.142 HD
ENDBRANCH   6  17
TORSDOF 2
ENDMDL
MODEL 7
REMARK VINA RESULT:      -7.0      2.203      5.309
REMARK  Name = 2216
REMARK  2 active torsions:
REMARK  status: ('A' for Active; 'I' for Inactive)
REMARK    1  A    between atoms: C_3  and  N_10
REMARK    2  A    between atoms: C_6  and  N_17
REMARK                            x       y       z     vdW  Elec       q    Type
REMARK                         _______ _______ _______ _____ _____    ______ ____
ROOT
ATOM      1 CL   UNL     1      34.847 -17.145 -25.420  0.00  0.00    -0.081 Cl
ATOM      2 CL   UNL     1      34.782 -15.342 -20.268  0.00  0.00    -0.081 Cl
ATOM      3  C   UNL     1      34.813 -16.344 -22.810  0.00  0.00    +0.072 C 
ATOM      4  C   UNL     1      34.805 -17.417 -23.713  0.00  0.00    +0.073 C 
ATOM      5  C   UNL     1      34.780 -16.618 -21.433  0.00  0.00    +0.073 C 
ATOM      6  C   UNL     1      34.732 -18.992 -21.883  0.00  0.00    +0.043 C 
ATOM      7  C   UNL     1      34.764 -18.733 -23.253  0.00  0.00    +0.027 C 
ATOM      8  C   UNL     1      34.740 -17.934 -20.973  0.00  0.00    +0.027 C 
ENDROOT
BRANCH   3  10
ATOM      9  N   UNL     1      34.131 -12.848 -23.668  0.00  0.00    -0.284 N 
ATOM     10  N   UNL     1      34.850 -15.024 -23.272  0.00  0.00    -0.285 N 
ATOM     11  N   UNL     1      32.714 -14.224 -22.550  0.00  0.00    -0.214 NA
ATOM     12  C   UNL     1      33.025 -11.967 -23.446  0.00  0.00    +0.085 C 
ATOM     13  C   UNL     1      32.057 -12.890 -22.693  0.00  0.00    +0.117 C 
ATOM     14  C   UNL     1      33.878 -14.077 -23.139  0.00  0.00    +0.190 C 
ATOM     15  H   UNL     1      34.960 -12.598 -24.136  0.00  0.00    +0.155 HD
ATOM     16  H   UNL     1      35.669 -14.747 -23.745  0.00  0.00    +0.155 HD
ENDBRANCH   3  10
BRANCH   6  17
ATOM     17  N   UNL     1      34.694 -20.322 -21.417  0.00  0.00    -0.357 N 
ATOM     18  H   UNL     1      35.180 -20.571 -20.597  0.00  0.00    +0.142 HD
ATOM     19  H   UNL     1      34.180 -21.002 -21.910  0.00  0.00    +0.142 HD
ENDBRANCH   6  17
TORSDOF 2
ENDMDL
MODEL 8
REMARK VINA RESULT:      -6.8      3.316      6.749
REMARK  Name = 2216
REMARK  2 active torsions:
REMARK  status: ('A' for Active; 'I' for Inactive)
REMARK    1  A    between atoms: C_3  and  N_10
REMARK    2  A    between atoms: C_6  and  N_17
REMARK                            x       y       z     vdW  Elec       q    Type
REMARK                         _______ _______ _______ _____ _____    ______ ____
ROOT
ATOM      1 CL   UNL     1      34.154 -14.687 -20.608  0.00  0.00    -0.081 Cl
ATOM      2 CL   UNL     1      32.691 -14.414 -25.860  0.00  0.00    -0.081 Cl
ATOM      3  C   UNL     1      33.474 -14.641 -23.253  0.00  0.00    +0.072 C 
ATOM      4  C   UNL     1      34.159 -15.303 -22.223  0.00  0.00    +0.073 C 
ATOM      5  C   UNL     1      33.508 -15.184 -24.547  0.00  0.00    +0.073 C 
ATOM      6  C   UNL     1      34.886 -17.011 -23.770  0.00  0.00    +0.043 C 
ATOM      7  C   UNL     1      34.861 -16.482 -22.480  0.00  0.00    +0.027 C 
ATOM      8  C   UNL     1      34.209 -16.362 -24.804  0.00  0.00    +0.027 C 
ENDROOT
BRANCH   3  10
ATOM      9  N   UNL     1      32.291 -11.183 -23.000  0.00  0.00    -0.284 N 
ATOM     10  N   UNL     1      32.773 -13.458 -22.996  0.00  0.00    -0.285 N 
ATOM     11  N   UNL     1      34.211 -11.840 -24.015  0.00  0.00    -0.214 NA
ATOM     12  C   UNL     1      32.799  -9.923 -23.450  0.00  0.00    +0.085 C 
ATOM     13  C   UNL     1      34.103 -10.355 -24.136  0.00  0.00    +0.117 C 
ATOM     14  C   UNL     1      33.133 -12.193 -23.356  0.00  0.00    +0.190 C 
ATOM     15  H   UNL     1      31.449 -11.302 -22.504  0.00  0.00    +0.155 HD
ATOM     16  H   UNL     1      31.927 -13.548 -22.499  0.00  0.00    +0.155 HD
ENDBRANCH   3  10
BRANCH   6  17
ATOM     17  N   UNL     1      35.593 -18.203 -24.031  0.00  0.00    -0.357 N 
ATOM     18  H   UNL     1      36.198 -18.576 -23.349  0.00  0.00    +0.142 HD
ATOM     19  H   UNL     1      35.481 -18.663 -24.894  0.00  0.00    +0.142 HD
ENDBRANCH   6  17
TORSDOF 2
ENDMDL
MODEL 9
REMARK VINA RESULT:      -6.8      3.280      6.442
REMARK  Name = 2216
REMARK  2 active torsions:
REMARK  status: ('A' for Active; 'I' for Inactive)
REMARK    1  A    between atoms: C_3  and  N_10
REMARK    2  A    between atoms: C_6  and  N_17
REMARK                            x       y       z     vdW  Elec       q    Type
REMARK                         _______ _______ _______ _____ _____    ______ ____
ROOT
ATOM      1 CL   UNL     1      32.699 -14.525 -25.829  0.00  0.00    -0.081 Cl
ATOM      2 CL   UNL     1      34.181 -14.680 -20.578  0.00  0.00    -0.081 Cl
ATOM      3  C   UNL     1      33.496 -14.691 -23.222  0.00  0.00    +0.072 C 
ATOM      4  C   UNL     1      33.532 -15.259 -24.504  0.00  0.00    +0.073 C 
ATOM      5  C   UNL     1      34.191 -15.324 -22.181  0.00  0.00    +0.073 C 
ATOM      6  C   UNL     1      34.935 -17.052 -23.698  0.00  0.00    +0.043 C 
ATOM      7  C   UNL     1      34.248 -16.433 -24.741  0.00  0.00    +0.027 C 
ATOM      8  C   UNL     1      34.907 -16.499 -22.417  0.00  0.00    +0.027 C 
ENDROOT
BRANCH   3  10
ATOM      9  N   UNL     1      32.265 -11.246 -23.013  0.00  0.00    -0.284 N 
ATOM     10  N   UNL     1      32.776 -13.514 -22.984  0.00  0.00    -0.285 N 
ATOM     11  N   UNL     1      34.209 -11.887 -23.993  0.00  0.00    -0.214 NA
ATOM     12  C   UNL     1      32.766  -9.982 -23.463  0.00  0.00    +0.085 C 
ATOM     13  C   UNL     1      34.085 -10.404 -24.126  0.00  0.00    +0.117 C 
ATOM     14  C   UNL     1      33.126 -12.248 -23.348  0.00  0.00    +0.190 C 
ATOM     15  H   UNL     1      31.417 -11.372 -22.529  0.00  0.00    +0.155 HD
ATOM     16  H   UNL     1      31.923 -13.612 -22.501  0.00  0.00    +0.155 HD
ENDBRANCH   3  10
BRANCH   6  17
ATOM     17  N   UNL     1      35.660 -18.238 -23.936  0.00  0.00    -0.357 N 
ATOM     18  H   UNL     1      35.189 -19.100 -23.997  0.00  0.00    +0.142 HD
ATOM     19  H   UNL     1      36.639 -18.204 -24.043  0.00  0.00    +0.142 HD
ENDBRANCH   6  17
TORSDOF 2
ENDMDL
