MODEL 1
REMARK VINA RESULT:      -7.6      0.000      0.000
REMARK  Name = 2453
REMARK  1 active torsions:
REMARK  status: ('A' for Active; 'I' for Inactive)
REMARK    1  A    between atoms: C_6  and  O_13
REMARK                            x       y       z     vdW  Elec       q    Type
REMARK                         _______ _______ _______ _____ _____    ______ ____
ROOT
ATOM      1 BR   UNL     1      32.845 -14.104 -20.782  0.00  0.00    -0.049 Br
ATOM      2 BR   UNL     1      32.994 -14.279 -26.389  0.00  0.00    -0.046 Br
ATOM      3  N   UNL     1      35.456 -17.896 -23.491  0.00  0.00    -0.241 NA
ATOM      4  C   UNL     1      34.269 -16.172 -22.297  0.00  0.00    +0.027 C 
ATOM      5  C   UNL     1      34.695 -16.785 -23.493  0.00  0.00    +0.116 C 
ATOM      6  C   UNL     1      34.307 -16.208 -24.699  0.00  0.00    +0.157 C 
ATOM      7  C   UNL     1      33.475 -15.012 -22.338  0.00  0.00    +0.037 C 
ATOM      8  C   UNL     1      34.660 -16.752 -21.083  0.00  0.00    +0.004 C 
ATOM      9  C   UNL     1      33.518 -15.056 -24.741  0.00  0.00    +0.070 C 
ATOM     10  C   UNL     1      33.101 -14.457 -23.558  0.00  0.00    +0.017 C 
ATOM     11  C   UNL     1      35.443 -17.896 -21.077  0.00  0.00    +0.021 C 
ATOM     12  C   UNL     1      35.811 -18.424 -22.297  0.00  0.00    +0.099 C 
ENDROOT
BRANCH   6  13
ATOM     13  O   UNL     1      34.714 -16.794 -25.869  0.00  0.00    -0.504 OA
ATOM     14  H   UNL     1      35.624 -16.966 -26.015  0.00  0.00    +0.292 HD
ENDBRANCH   6  13
TORSDOF 1
ENDMDL
MODEL 2
REMARK VINA RESULT:      -7.1      2.007      3.802
REMARK  Name = 2453
REMARK  1 active torsions:
REMARK  status: ('A' for Active; 'I' for Inactive)
REMARK    1  A    between atoms: C_6  and  O_13
REMARK                            x       y       z     vdW  Elec       q    Type
REMARK                         _______ _______ _______ _____ _____    ______ ____
ROOT
ATOM      1 BR   UNL     1      32.857 -13.928 -20.968  0.00  0.00    -0.049 Br
ATOM      2 BR   UNL     1      35.935 -18.606 -21.322  0.00  0.00    -0.046 Br
ATOM      3  N   UNL     1      34.155 -16.191 -25.628  0.00  0.00    -0.241 NA
ATOM      4  C   UNL     1      33.586 -15.194 -23.510  0.00  0.00    +0.027 C 
ATOM      5  C   UNL     1      34.213 -16.193 -24.283  0.00  0.00    +0.116 C 
ATOM      6  C   UNL     1      34.906 -17.198 -23.615  0.00  0.00    +0.157 C 
ATOM      7  C   UNL     1      33.667 -15.226 -22.107  0.00  0.00    +0.037 C 
ATOM      8  C   UNL     1      32.887 -14.181 -24.182  0.00  0.00    +0.004 C 
ATOM      9  C   UNL     1      34.988 -17.231 -22.221  0.00  0.00    +0.070 C 
ATOM     10  C   UNL     1      34.367 -16.244 -21.466  0.00  0.00    +0.017 C 
ATOM     11  C   UNL     1      32.826 -14.177 -25.567  0.00  0.00    +0.021 C 
ATOM     12  C   UNL     1      33.471 -15.196 -26.237  0.00  0.00    +0.099 C 
ENDROOT
BRANCH   6  13
ATOM     13  O   UNL     1      35.520 -18.175 -24.355  0.00  0.00    -0.504 OA
ATOM     14  H   UNL     1      35.971 -18.874 -23.925  0.00  0.00    +0.292 HD
ENDBRANCH   6  13
TORSDOF 1
ENDMDL
MODEL 3
REMARK VINA RESULT:      -6.9      2.596      3.109
REMARK  Name = 2453
REMARK  1 active torsions:
REMARK  status: ('A' for Active; 'I' for Inactive)
REMARK    1  A    between atoms: C_6  and  O_13
REMARK                            x       y       z     vdW  Elec       q    Type
REMARK                         _______ _______ _______ _____ _____    ______ ____
ROOT
ATOM      1 BR   UNL     1      34.594 -18.641 -24.767  0.00  0.00    -0.049 Br
ATOM      2 BR   UNL     1      33.071 -13.673 -26.883  0.00  0.00    -0.046 Br
ATOM      3  N   UNL     1      34.139 -14.239 -21.776  0.00  0.00    -0.241 NA
ATOM      4  C   UNL     1      34.335 -16.207 -23.152  0.00  0.00    +0.027 C 
ATOM      5  C   UNL     1      34.054 -14.837 -22.980  0.00  0.00    +0.116 C 
ATOM      6  C   UNL     1      33.680 -14.100 -24.100  0.00  0.00    +0.157 C 
ATOM      7  C   UNL     1      34.236 -16.799 -24.423  0.00  0.00    +0.037 C 
ATOM      8  C   UNL     1      34.712 -16.950 -22.024  0.00  0.00    +0.004 C 
ATOM      9  C   UNL     1      33.581 -14.686 -25.364  0.00  0.00    +0.070 C 
ATOM     10  C   UNL     1      33.860 -16.038 -25.526  0.00  0.00    +0.017 C 
ATOM     11  C   UNL     1      34.801 -16.337 -20.783  0.00  0.00    +0.021 C 
ATOM     12  C   UNL     1      34.506 -14.991 -20.714  0.00  0.00    +0.099 C 
ENDROOT
BRANCH   6  13
ATOM     13  O   UNL     1      33.404 -12.766 -23.947  0.00  0.00    -0.504 OA
ATOM     14  H   UNL     1      33.175 -12.429 -23.103  0.00  0.00    +0.292 HD
ENDBRANCH   6  13
TORSDOF 1
ENDMDL
MODEL 4
REMARK VINA RESULT:      -6.9     10.712     12.179
REMARK  Name = 2453
REMARK  1 active torsions:
REMARK  status: ('A' for Active; 'I' for Inactive)
REMARK    1  A    between atoms: C_6  and  O_13
REMARK                            x       y       z     vdW  Elec       q    Type
REMARK                         _______ _______ _______ _____ _____    ______ ____
ROOT
ATOM      1 BR   UNL     1      33.587 -22.783 -18.137  0.00  0.00    -0.049 Br
ATOM      2 BR   UNL     1      36.973 -24.613 -14.055  0.00  0.00    -0.046 Br
ATOM      3  N   UNL     1      31.824 -23.999 -13.244  0.00  0.00    -0.241 NA
ATOM      4  C   UNL     1      32.650 -23.458 -15.442  0.00  0.00    +0.027 C 
ATOM      5  C   UNL     1      32.844 -23.900 -14.118  0.00  0.00    +0.116 C 
ATOM      6  C   UNL     1      34.136 -24.239 -13.724  0.00  0.00    +0.157 C 
ATOM      7  C   UNL     1      33.738 -23.367 -16.327  0.00  0.00    +0.037 C 
ATOM      8  C   UNL     1      31.350 -23.117 -15.840  0.00  0.00    +0.004 C 
ATOM      9  C   UNL     1      35.218 -24.149 -14.602  0.00  0.00    +0.070 C 
ATOM     10  C   UNL     1      35.019 -23.713 -15.906  0.00  0.00    +0.017 C 
ATOM     11  C   UNL     1      30.297 -23.218 -14.943  0.00  0.00    +0.021 C 
ATOM     12  C   UNL     1      30.586 -23.660 -13.668  0.00  0.00    +0.099 C 
ENDROOT
BRANCH   6  13
ATOM     13  O   UNL     1      34.339 -24.670 -12.439  0.00  0.00    -0.504 OA
ATOM     14  H   UNL     1      35.069 -24.351 -11.947  0.00  0.00    +0.292 HD
ENDBRANCH   6  13
TORSDOF 1
ENDMDL
MODEL 5
REMARK VINA RESULT:      -6.9      2.848      4.482
REMARK  Name = 2453
REMARK  1 active torsions:
REMARK  status: ('A' for Active; 'I' for Inactive)
REMARK    1  A    between atoms: C_6  and  O_13
REMARK                            x       y       z     vdW  Elec       q    Type
REMARK                         _______ _______ _______ _____ _____    ______ ____
ROOT
ATOM      1 BR   UNL     1      33.190 -14.920 -25.929  0.00  0.00    -0.049 Br
ATOM      2 BR   UNL     1      36.151 -18.305 -22.573  0.00  0.00    -0.046 Br
ATOM      3  N   UNL     1      33.326 -14.335 -20.622  0.00  0.00    -0.241 NA
ATOM      4  C   UNL     1      33.285 -14.625 -23.013  0.00  0.00    +0.027 C 
ATOM      5  C   UNL     1      33.715 -15.002 -21.725  0.00  0.00    +0.116 C 
ATOM      6  C   UNL     1      34.567 -16.098 -21.614  0.00  0.00    +0.157 C 
ATOM      7  C   UNL     1      33.711 -15.344 -24.143  0.00  0.00    +0.037 C 
ATOM      8  C   UNL     1      32.428 -13.521 -23.126  0.00  0.00    +0.004 C 
ATOM      9  C   UNL     1      34.991 -16.814 -22.736  0.00  0.00    +0.070 C 
ATOM     10  C   UNL     1      34.562 -16.436 -24.003  0.00  0.00    +0.017 C 
ATOM     11  C   UNL     1      32.025 -12.833 -21.992  0.00  0.00    +0.021 C 
ATOM     12  C   UNL     1      32.499 -13.276 -20.774  0.00  0.00    +0.099 C 
ENDROOT
BRANCH   6  13
ATOM     13  O   UNL     1      34.992 -16.475 -20.367  0.00  0.00    -0.504 OA
ATOM     14  H   UNL     1      35.059 -17.383 -20.149  0.00  0.00    +0.292 HD
ENDBRANCH   6  13
TORSDOF 1
ENDMDL
MODEL 6
REMARK VINA RESULT:      -6.7     11.002     12.643
REMARK  Name = 2453
REMARK  1 active torsions:
REMARK  status: ('A' for Active; 'I' for Inactive)
REMARK    1  A    between atoms: C_6  and  O_13
REMARK                            x       y       z     vdW  Elec       q    Type
REMARK                         _______ _______ _______ _____ _____    ______ ____
ROOT
ATOM      1 BR   UNL     1      36.383 -22.164 -16.868  0.00  0.00    -0.049 Br
ATOM      2 BR   UNL     1      37.966 -24.363 -11.954  0.00  0.00    -0.046 Br
ATOM      3  N   UNL     1      32.941 -24.426 -13.468  0.00  0.00    -0.241 NA
ATOM      4  C   UNL     1      34.518 -23.412 -14.981  0.00  0.00    +0.027 C 
ATOM      5  C   UNL     1      34.202 -24.067 -13.773  0.00  0.00    +0.116 C 
ATOM      6  C   UNL     1      35.240 -24.342 -12.886  0.00  0.00    +0.157 C 
ATOM      7  C   UNL     1      35.846 -23.052 -15.267  0.00  0.00    +0.037 C 
ATOM      8  C   UNL     1      33.474 -23.135 -15.874  0.00  0.00    +0.004 C 
ATOM      9  C   UNL     1      36.561 -23.985 -13.170  0.00  0.00    +0.070 C 
ATOM     10  C   UNL     1      36.864 -23.339 -14.362  0.00  0.00    +0.017 C 
ATOM     11  C   UNL     1      32.174 -23.503 -15.562  0.00  0.00    +0.021 C 
ATOM     12  C   UNL     1      31.963 -24.141 -14.357  0.00  0.00    +0.099 C 
ENDROOT
BRANCH   6  13
ATOM     13  O   UNL     1      34.946 -24.978 -11.709  0.00  0.00    -0.504 OA
ATOM     14  H   UNL     1      35.302 -25.827 -11.533  0.00  0.00    +0.292 HD
ENDBRANCH   6  13
TORSDOF 1
ENDMDL
MODEL 7
REMARK VINA RESULT:      -6.7      2.012      3.432
REMARK  Name = 2453
REMARK  1 active torsions:
REMARK  status: ('A' for Active; 'I' for Inactive)
REMARK    1  A    between atoms: C_6  and  O_13
REMARK                            x       y       z     vdW  Elec       q    Type
REMARK                         _______ _______ _______ _____ _____    ______ ____
ROOT
ATOM      1 BR   UNL     1      33.091 -14.524 -26.375  0.00  0.00    -0.049 Br
ATOM      2 BR   UNL     1      31.936 -12.483 -21.278  0.00  0.00    -0.046 Br
ATOM      3  N   UNL     1      34.699 -16.905 -21.873  0.00  0.00    -0.241 NA
ATOM      4  C   UNL     1      33.959 -15.807 -23.886  0.00  0.00    +0.027 C 
ATOM      5  C   UNL     1      34.050 -15.895 -22.482  0.00  0.00    +0.116 C 
ATOM      6  C   UNL     1      33.442 -14.898 -21.723  0.00  0.00    +0.157 C 
ATOM      7  C   UNL     1      33.273 -14.739 -24.488  0.00  0.00    +0.037 C 
ATOM      8  C   UNL     1      34.570 -16.811 -24.651  0.00  0.00    +0.004 C 
ATOM      9  C   UNL     1      32.760 -13.835 -22.321  0.00  0.00    +0.070 C 
ATOM     10  C   UNL     1      32.675 -13.756 -23.705  0.00  0.00    +0.017 C 
ATOM     11  C   UNL     1      35.240 -17.852 -24.026  0.00  0.00    +0.021 C 
ATOM     12  C   UNL     1      35.275 -17.853 -22.647  0.00  0.00    +0.099 C 
ENDROOT
BRANCH   6  13
ATOM     13  O   UNL     1      33.523 -14.971 -20.357  0.00  0.00    -0.504 OA
ATOM     14  H   UNL     1      34.277 -14.638 -19.914  0.00  0.00    +0.292 HD
ENDBRANCH   6  13
TORSDOF 1
ENDMDL
MODEL 8
REMARK VINA RESULT:      -6.7     10.696     11.880
REMARK  Name = 2453
REMARK  1 active torsions:
REMARK  status: ('A' for Active; 'I' for Inactive)
REMARK    1  A    between atoms: C_6  and  O_13
REMARK                            x       y       z     vdW  Elec       q    Type
REMARK                         _______ _______ _______ _____ _____    ______ ____
ROOT
ATOM      1 BR   UNL     1      33.573 -22.821 -18.146  0.00  0.00    -0.049 Br
ATOM      2 BR   UNL     1      28.957 -24.143 -15.243  0.00  0.00    -0.046 Br
ATOM      3  N   UNL     1      33.692 -24.166 -12.978  0.00  0.00    -0.241 NA
ATOM      4  C   UNL     1      33.606 -23.563 -15.309  0.00  0.00    +0.027 C 
ATOM      5  C   UNL     1      32.986 -23.955 -14.105  0.00  0.00    +0.116 C 
ATOM      6  C   UNL     1      31.604 -24.122 -14.105  0.00  0.00    +0.157 C 
ATOM      7  C   UNL     1      32.837 -23.352 -16.467  0.00  0.00    +0.037 C 
ATOM      8  C   UNL     1      34.997 -23.394 -15.311  0.00  0.00    +0.004 C 
ATOM      9  C   UNL     1      30.839 -23.912 -15.255  0.00  0.00    +0.070 C 
ATOM     10  C   UNL     1      31.457 -23.526 -16.438  0.00  0.00    +0.017 C 
ATOM     11  C   UNL     1      35.727 -23.611 -14.152  0.00  0.00    +0.021 C 
ATOM     12  C   UNL     1      35.032 -23.992 -13.022  0.00  0.00    +0.099 C 
ENDROOT
BRANCH   6  13
ATOM     13  O   UNL     1      30.989 -24.503 -12.941  0.00  0.00    -0.504 OA
ATOM     14  H   UNL     1      31.230 -25.307 -12.525  0.00  0.00    +0.292 HD
ENDBRANCH   6  13
TORSDOF 1
ENDMDL
MODEL 9
REMARK VINA RESULT:      -6.7     11.103     12.431
REMARK  Name = 2453
REMARK  1 active torsions:
REMARK  status: ('A' for Active; 'I' for Inactive)
REMARK    1  A    between atoms: C_6  and  O_13
REMARK                            x       y       z     vdW  Elec       q    Type
REMARK                         _______ _______ _______ _____ _____    ______ ____
ROOT
ATOM      1 BR   UNL     1      37.148 -22.370 -16.094  0.00  0.00    -0.049 Br
ATOM      2 BR   UNL     1      31.653 -23.501 -16.006  0.00  0.00    -0.046 Br
ATOM      3  N   UNL     1      34.722 -24.609 -11.895  0.00  0.00    -0.241 NA
ATOM      4  C   UNL     1      35.788 -23.598 -13.805  0.00  0.00    +0.027 C 
ATOM      5  C   UNL     1      34.651 -24.102 -13.140  0.00  0.00    +0.116 C 
ATOM      6  C   UNL     1      33.431 -24.065 -13.810  0.00  0.00    +0.157 C 
ATOM      7  C   UNL     1      35.677 -23.076 -15.105  0.00  0.00    +0.037 C 
ATOM      8  C   UNL     1      37.016 -23.635 -13.131  0.00  0.00    +0.004 C 
ATOM      9  C   UNL     1      33.320 -23.547 -15.103  0.00  0.00    +0.070 C 
ATOM     10  C   UNL     1      34.445 -23.052 -15.751  0.00  0.00    +0.017 C 
ATOM     11  C   UNL     1      37.092 -24.156 -11.848  0.00  0.00    +0.021 C 
ATOM     12  C   UNL     1      35.926 -24.626 -11.280  0.00  0.00    +0.099 C 
ENDROOT
BRANCH   6  13
ATOM     13  O   UNL     1      32.318 -24.552 -13.176  0.00  0.00    -0.504 OA
ATOM     14  H   UNL     1      32.165 -25.475 -13.141  0.00  0.00    +0.292 HD
ENDBRANCH   6  13
TORSDOF 1
ENDMDL
