MODEL 1
REMARK VINA RESULT:      -9.6      0.000      0.000
REMARK  Name = 25215
REMARK  1 active torsions:
REMARK  status: ('A' for Active; 'I' for Inactive)
REMARK    1  A    between atoms: C_5  and  C_18
REMARK                            x       y       z     vdW  Elec       q    Type
REMARK                         _______ _______ _______ _____ _____    ______ ____
ROOT
ATOM      1 CL   UNL     1      31.139 -11.573 -20.438  0.00  0.00    -0.082 Cl
ATOM      2  O   UNL     1      34.473 -16.495 -25.944  0.00  0.00    -0.272 OA
ATOM      3  N   UNL     1      33.986 -15.579 -23.857  0.00  0.00    -0.255 N 
ATOM      4  N   UNL     1      33.367 -13.496 -25.979  0.00  0.00    -0.261 NA
ATOM      5  C   UNL     1      33.454 -12.814 -24.886  0.00  0.00    +0.073 C 
ATOM      6  C   UNL     1      33.019 -13.286 -23.544  0.00  0.00    +0.031 C 
ATOM      7  C   UNL     1      33.331 -14.576 -23.061  0.00  0.00    +0.055 C 
ATOM      8  C   UNL     1      32.796 -14.822 -25.886  0.00  0.00    +0.210 C 
ATOM      9  C   UNL     1      32.328 -12.371 -22.729  0.00  0.00    +0.014 C 
ATOM     10  C   UNL     1      33.841 -15.698 -25.245  0.00  0.00    +0.254 C 
ATOM     11  C   UNL     1      32.991 -14.872 -21.726  0.00  0.00    +0.016 C 
ATOM     12  C   UNL     1      34.809 -16.573 -23.169  0.00  0.00    +0.120 C 
ATOM     13  C   UNL     1      31.978 -12.704 -21.424  0.00  0.00    +0.058 C 
ATOM     14  C   UNL     1      32.321 -13.950 -20.918  0.00  0.00    +0.013 C 
ENDROOT
BRANCH   5  18
ATOM     15  C   UNL     1      34.593  -9.268 -23.859  0.00  0.00    +0.005 C 
ATOM     16  C   UNL     1      33.637 -10.464 -23.926  0.00  0.00    +0.028 C 
ATOM     17  C   UNL     1      34.985  -8.797 -25.257  0.00  0.00    +0.005 C 
ATOM     18  C   UNL     1      34.058 -11.480 -24.943  0.00  0.00    -0.009 C 
ATOM     19  C   UNL     1      35.650  -9.919 -26.060  0.00  0.00    +0.026 C 
ATOM     20  C   UNL     1      34.971 -11.249 -25.897  0.00  0.00    -0.029 C 
ENDBRANCH   5  18
TORSDOF 1
ENDMDL
MODEL 2
REMARK VINA RESULT:      -9.5     11.317     14.146
REMARK  Name = 25215
REMARK  1 active torsions:
REMARK  status: ('A' for Active; 'I' for Inactive)
REMARK    1  A    between atoms: C_5  and  C_18
REMARK                            x       y       z     vdW  Elec       q    Type
REMARK                         _______ _______ _______ _____ _____    ______ ____
ROOT
ATOM      1 CL   UNL     1      31.543 -23.749 -13.541  0.00  0.00    -0.082 Cl
ATOM      2  O   UNL     1      36.856 -21.675 -19.298  0.00  0.00    -0.272 OA
ATOM      3  N   UNL     1      34.920 -22.548 -18.337  0.00  0.00    -0.255 N 
ATOM      4  N   UNL     1      37.070 -22.416 -16.195  0.00  0.00    -0.261 NA
ATOM      5  C   UNL     1      36.201 -23.243 -15.717  0.00  0.00    +0.073 C 
ATOM      6  C   UNL     1      34.729 -23.146 -15.909  0.00  0.00    +0.031 C 
ATOM      7  C   UNL     1      34.149 -22.871 -17.167  0.00  0.00    +0.055 C 
ATOM      8  C   UNL     1      36.565 -21.306 -16.976  0.00  0.00    +0.210 C 
ATOM      9  C   UNL     1      33.913 -23.401 -14.792  0.00  0.00    +0.014 C 
ATOM     10  C   UNL     1      36.146 -21.870 -18.308  0.00  0.00    +0.254 C 
ATOM     11  C   UNL     1      32.745 -22.938 -17.266  0.00  0.00    +0.016 C 
ATOM     12  C   UNL     1      34.364 -22.897 -19.645  0.00  0.00    +0.120 C 
ATOM     13  C   UNL     1      32.527 -23.430 -14.914  0.00  0.00    +0.058 C 
ATOM     14  C   UNL     1      31.944 -23.211 -16.154  0.00  0.00    +0.013 C 
ENDROOT
BRANCH   5  18
ATOM     15  C   UNL     1      37.029 -26.880 -14.712  0.00  0.00    +0.005 C 
ATOM     16  C   UNL     1      36.182 -25.757 -15.320  0.00  0.00    +0.028 C 
ATOM     17  C   UNL     1      37.368 -26.588 -13.254  0.00  0.00    +0.005 C 
ATOM     18  C   UNL     1      36.684 -24.395 -14.951  0.00  0.00    -0.009 C 
ATOM     19  C   UNL     1      38.124 -25.263 -13.110  0.00  0.00    +0.026 C 
ATOM     20  C   UNL     1      37.566 -24.165 -13.968  0.00  0.00    -0.029 C 
ENDBRANCH   5  18
TORSDOF 1
ENDMDL
MODEL 3
REMARK VINA RESULT:      -9.1      4.510      6.199
REMARK  Name = 25215
REMARK  1 active torsions:
REMARK  status: ('A' for Active; 'I' for Inactive)
REMARK    1  A    between atoms: C_5  and  C_18
REMARK                            x       y       z     vdW  Elec       q    Type
REMARK                         _______ _______ _______ _____ _____    ______ ____
ROOT
ATOM      1 CL   UNL     1      35.644 -10.410 -26.116  0.00  0.00    -0.082 Cl
ATOM      2  O   UNL     1      31.053  -9.221 -19.545  0.00  0.00    -0.272 OA
ATOM      3  N   UNL     1      31.821 -10.206 -21.513  0.00  0.00    -0.255 N 
ATOM      4  N   UNL     1      32.813  -7.337 -21.436  0.00  0.00    -0.261 NA
ATOM      5  C   UNL     1      32.928  -7.675 -22.676  0.00  0.00    +0.073 C 
ATOM      6  C   UNL     1      33.298  -9.031 -23.164  0.00  0.00    +0.031 C 
ATOM      7  C   UNL     1      32.719 -10.206 -22.636  0.00  0.00    +0.055 C 
ATOM      8  C   UNL     1      33.069  -8.361 -20.445  0.00  0.00    +0.210 C 
ATOM      9  C   UNL     1      34.212  -9.108 -24.230  0.00  0.00    +0.014 C 
ATOM     10  C   UNL     1      31.878  -9.284 -20.461  0.00  0.00    +0.254 C 
ATOM     11  C   UNL     1      33.036 -11.428 -23.263  0.00  0.00    +0.016 C 
ATOM     12  C   UNL     1      30.820 -11.272 -21.433  0.00  0.00    +0.120 C 
ATOM     13  C   UNL     1      34.529 -10.333 -24.810  0.00  0.00    +0.058 C 
ATOM     14  C   UNL     1      33.931 -11.492 -24.334  0.00  0.00    +0.013 C 
ENDROOT
BRANCH   5  18
ATOM     15  C   UNL     1      33.221  -5.530 -25.876  0.00  0.00    +0.005 C 
ATOM     16  C   UNL     1      33.740  -6.286 -24.648  0.00  0.00    +0.028 C 
ATOM     17  C   UNL     1      32.186  -4.481 -25.481  0.00  0.00    +0.005 C 
ATOM     18  C   UNL     1      32.643  -6.669 -23.702  0.00  0.00    -0.009 C 
ATOM     19  C   UNL     1      30.999  -5.114 -24.749  0.00  0.00    +0.026 C 
ATOM     20  C   UNL     1      31.404  -6.158 -23.749  0.00  0.00    -0.029 C 
ENDBRANCH   5  18
TORSDOF 1
ENDMDL
MODEL 4
REMARK VINA RESULT:      -9.1      2.981      5.662
REMARK  Name = 25215
REMARK  1 active torsions:
REMARK  status: ('A' for Active; 'I' for Inactive)
REMARK    1  A    between atoms: C_5  and  C_18
REMARK                            x       y       z     vdW  Elec       q    Type
REMARK                         _______ _______ _______ _____ _____    ______ ____
ROOT
ATOM      1 CL   UNL     1      32.268 -15.915 -26.933  0.00  0.00    -0.082 Cl
ATOM      2  O   UNL     1      34.260  -8.845 -23.508  0.00  0.00    -0.272 OA
ATOM      3  N   UNL     1      34.374 -10.671 -24.953  0.00  0.00    -0.255 N 
ATOM      4  N   UNL     1      32.753 -11.484 -22.516  0.00  0.00    -0.261 NA
ATOM      5  C   UNL     1      33.099 -12.607 -23.052  0.00  0.00    +0.073 C 
ATOM      6  C   UNL     1      33.225 -12.856 -24.513  0.00  0.00    +0.031 C 
ATOM      7  C   UNL     1      33.880 -11.953 -25.379  0.00  0.00    +0.055 C 
ATOM      8  C   UNL     1      32.462 -10.386 -23.413  0.00  0.00    +0.210 C 
ATOM      9  C   UNL     1      32.718 -14.071 -25.008  0.00  0.00    +0.014 C 
ATOM     10  C   UNL     1      33.787  -9.899 -23.942  0.00  0.00    +0.254 C 
ATOM     11  C   UNL     1      34.065 -12.350 -26.718  0.00  0.00    +0.016 C 
ATOM     12  C   UNL     1      35.527 -10.110 -25.658  0.00  0.00    +0.120 C 
ATOM     13  C   UNL     1      32.889 -14.423 -26.344  0.00  0.00    +0.058 C 
ATOM     14  C   UNL     1      33.574 -13.568 -27.196  0.00  0.00    +0.013 C 
ENDROOT
BRANCH   5  18
ATOM     15  C   UNL     1      32.830 -15.275 -20.271  0.00  0.00    +0.005 C 
ATOM     16  C   UNL     1      32.651 -13.889 -20.899  0.00  0.00    +0.028 C 
ATOM     17  C   UNL     1      34.293 -15.709 -20.301  0.00  0.00    +0.005 C 
ATOM     18  C   UNL     1      33.430 -13.727 -22.169  0.00  0.00    -0.009 C 
ATOM     19  C   UNL     1      34.839 -15.738 -21.731  0.00  0.00    +0.026 C 
ATOM     20  C   UNL     1      34.406 -14.561 -22.557  0.00  0.00    -0.029 C 
ENDBRANCH   5  18
TORSDOF 1
ENDMDL
MODEL 5
REMARK VINA RESULT:      -9.0     13.346     15.063
REMARK  Name = 25215
REMARK  1 active torsions:
REMARK  status: ('A' for Active; 'I' for Inactive)
REMARK    1  A    between atoms: C_5  and  C_18
REMARK                            x       y       z     vdW  Elec       q    Type
REMARK                         _______ _______ _______ _____ _____    ______ ____
ROOT
ATOM      1 CL   UNL     1      37.166 -20.728 -17.421  0.00  0.00    -0.082 Cl
ATOM      2  O   UNL     1      36.534 -26.243 -11.517  0.00  0.00    -0.272 OA
ATOM      3  N   UNL     1      37.189 -25.286 -13.539  0.00  0.00    -0.255 N 
ATOM      4  N   UNL     1      34.699 -23.845 -12.568  0.00  0.00    -0.261 NA
ATOM      5  C   UNL     1      34.763 -23.549 -13.823  0.00  0.00    +0.073 C 
ATOM      6  C   UNL     1      36.019 -23.332 -14.589  0.00  0.00    +0.031 C 
ATOM      7  C   UNL     1      37.129 -24.199 -14.479  0.00  0.00    +0.055 C 
ATOM      8  C   UNL     1      35.952 -23.971 -11.854  0.00  0.00    +0.210 C 
ATOM      9  C   UNL     1      36.048 -22.254 -15.492  0.00  0.00    +0.014 C 
ATOM     10  C   UNL     1      36.565 -25.277 -12.285  0.00  0.00    +0.254 C 
ATOM     11  C   UNL     1      38.215 -23.982 -15.350  0.00  0.00    +0.016 C 
ATOM     12  C   UNL     1      38.001 -26.452 -13.889  0.00  0.00    +0.120 C 
ATOM     13  C   UNL     1      37.148 -22.047 -16.319  0.00  0.00    +0.058 C 
ATOM     14  C   UNL     1      38.226 -22.919 -16.257  0.00  0.00    +0.013 C 
ENDROOT
BRANCH   5  18
ATOM     15  C   UNL     1      31.064 -22.857 -14.699  0.00  0.00    +0.005 C 
ATOM     16  C   UNL     1      32.227 -23.328 -13.818  0.00  0.00    +0.028 C 
ATOM     17  C   UNL     1      31.063 -23.579 -16.043  0.00  0.00    +0.005 C 
ATOM     18  C   UNL     1      33.512 -23.448 -14.579  0.00  0.00    -0.009 C 
ATOM     19  C   UNL     1      32.377 -23.359 -16.798  0.00  0.00    +0.026 C 
ATOM     20  C   UNL     1      33.590 -23.449 -15.918  0.00  0.00    -0.029 C 
ENDBRANCH   5  18
TORSDOF 1
ENDMDL
MODEL 6
REMARK VINA RESULT:      -8.3     11.209     13.778
REMARK  Name = 25215
REMARK  1 active torsions:
REMARK  status: ('A' for Active; 'I' for Inactive)
REMARK    1  A    between atoms: C_5  and  C_18
REMARK                            x       y       z     vdW  Elec       q    Type
REMARK                         _______ _______ _______ _____ _____    ______ ____
ROOT
ATOM      1 CL   UNL     1      29.893 -22.919 -15.899  0.00  0.00    -0.082 Cl
ATOM      2  O   UNL     1      37.095 -25.250 -13.006  0.00  0.00    -0.272 OA
ATOM      3  N   UNL     1      35.034 -24.166 -13.094  0.00  0.00    -0.255 N 
ATOM      4  N   UNL     1      35.850 -24.889 -15.929  0.00  0.00    -0.261 NA
ATOM      5  C   UNL     1      34.946 -23.981 -16.085  0.00  0.00    +0.073 C 
ATOM      6  C   UNL     1      33.749 -23.804 -15.218  0.00  0.00    +0.031 C 
ATOM      7  C   UNL     1      33.828 -23.841 -13.808  0.00  0.00    +0.055 C 
ATOM      8  C   UNL     1      35.680 -25.808 -14.823  0.00  0.00    +0.210 C 
ATOM      9  C   UNL     1      32.524 -23.533 -15.853  0.00  0.00    +0.014 C 
ATOM     10  C   UNL     1      36.017 -25.042 -13.570  0.00  0.00    +0.254 C 
ATOM     11  C   UNL     1      32.662 -23.525 -13.082  0.00  0.00    +0.016 C 
ATOM     12  C   UNL     1      35.219 -23.591 -11.761  0.00  0.00    +0.120 C 
ATOM     13  C   UNL     1      31.382 -23.254 -15.108  0.00  0.00    +0.058 C 
ATOM     14  C   UNL     1      31.455 -23.238 -13.722  0.00  0.00    +0.013 C 
ENDROOT
BRANCH   5  18
ATOM     15  C   UNL     1      34.128 -21.630 -19.039  0.00  0.00    +0.005 C 
ATOM     16  C   UNL     1      34.016 -22.904 -18.195  0.00  0.00    +0.028 C 
ATOM     17  C   UNL     1      35.571 -21.379 -19.470  0.00  0.00    +0.005 C 
ATOM     18  C   UNL     1      35.108 -23.016 -17.175  0.00  0.00    -0.009 C 
ATOM     19  C   UNL     1      36.502 -21.257 -18.261  0.00  0.00    +0.026 C 
ATOM     20  C   UNL     1      36.222 -22.270 -17.189  0.00  0.00    -0.029 C 
ENDBRANCH   5  18
TORSDOF 1
ENDMDL
MODEL 7
REMARK VINA RESULT:      -8.0     11.119     13.512
REMARK  Name = 25215
REMARK  1 active torsions:
REMARK  status: ('A' for Active; 'I' for Inactive)
REMARK    1  A    between atoms: C_5  and  C_18
REMARK                            x       y       z     vdW  Elec       q    Type
REMARK                         _______ _______ _______ _____ _____    ______ ____
ROOT
ATOM      1 CL   UNL     1      36.525 -26.088 -13.597  0.00  0.00    -0.082 Cl
ATOM      2  O   UNL     1      35.507 -20.701 -19.565  0.00  0.00    -0.272 OA
ATOM      3  N   UNL     1      36.354 -21.648 -17.610  0.00  0.00    -0.255 N 
ATOM      4  N   UNL     1      33.664 -22.930 -18.202  0.00  0.00    -0.261 NA
ATOM      5  C   UNL     1      33.871 -23.196 -16.956  0.00  0.00    +0.073 C 
ATOM      6  C   UNL     1      35.199 -23.483 -16.350  0.00  0.00    +0.031 C 
ATOM      7  C   UNL     1      36.342 -22.703 -16.633  0.00  0.00    +0.055 C 
ATOM      8  C   UNL     1      34.819 -22.915 -19.075  0.00  0.00    +0.210 C 
ATOM      9  C   UNL     1      35.272 -24.537 -15.420  0.00  0.00    +0.014 C 
ATOM     10  C   UNL     1      35.572 -21.645 -18.773  0.00  0.00    +0.254 C 
ATOM     11  C   UNL     1      37.515 -22.975 -15.900  0.00  0.00    +0.016 C 
ATOM     12  C   UNL     1      37.282 -20.536 -17.409  0.00  0.00    +0.120 C 
ATOM     13  C   UNL     1      36.454 -24.801 -14.734  0.00  0.00    +0.058 C 
ATOM     14  C   UNL     1      37.572 -24.012 -14.965  0.00  0.00    +0.013 C 
ENDROOT
BRANCH   5  18
ATOM     15  C   UNL     1      31.774 -22.917 -13.724  0.00  0.00    +0.005 C 
ATOM     16  C   UNL     1      32.987 -23.314 -14.572  0.00  0.00    +0.028 C 
ATOM     17  C   UNL     1      30.485 -23.497 -14.298  0.00  0.00    +0.005 C 
ATOM     18  C   UNL     1      32.726 -23.187 -16.042  0.00  0.00    -0.009 C 
ATOM     19  C   UNL     1      30.256 -23.031 -15.739  0.00  0.00    +0.026 C 
ATOM     20  C   UNL     1      31.504 -23.046 -16.574  0.00  0.00    -0.029 C 
ENDBRANCH   5  18
TORSDOF 1
ENDMDL
MODEL 8
REMARK VINA RESULT:      -7.9      3.253      6.005
REMARK  Name = 25215
REMARK  1 active torsions:
REMARK  status: ('A' for Active; 'I' for Inactive)
REMARK    1  A    between atoms: C_5  and  C_18
REMARK                            x       y       z     vdW  Elec       q    Type
REMARK                         _______ _______ _______ _____ _____    ______ ____
ROOT
ATOM      1 CL   UNL     1      33.777 -14.038 -27.400  0.00  0.00    -0.082 Cl
ATOM      2  O   UNL     1      31.978  -9.512 -20.922  0.00  0.00    -0.272 OA
ATOM      3  N   UNL     1      33.035 -10.163 -22.896  0.00  0.00    -0.255 N 
ATOM      4  N   UNL     1      31.821 -12.631 -21.607  0.00  0.00    -0.261 NA
ATOM      5  C   UNL     1      32.689 -13.105 -22.436  0.00  0.00    +0.073 C 
ATOM      6  C   UNL     1      33.018 -12.516 -23.762  0.00  0.00    +0.031 C 
ATOM      7  C   UNL     1      33.231 -11.132 -23.941  0.00  0.00    +0.055 C 
ATOM      8  C   UNL     1      31.112 -11.433 -22.005  0.00  0.00    +0.210 C 
ATOM      9  C   UNL     1      33.175 -13.403 -24.843  0.00  0.00    +0.014 C 
ATOM     10  C   UNL     1      32.086 -10.291 -21.873  0.00  0.00    +0.254 C 
ATOM     11  C   UNL     1      33.673 -10.698 -25.207  0.00  0.00    +0.016 C 
ATOM     12  C   UNL     1      33.836  -8.939 -22.934  0.00  0.00    +0.120 C 
ATOM     13  C   UNL     1      33.584 -12.940 -26.090  0.00  0.00    +0.058 C 
ATOM     14  C   UNL     1      33.844 -11.589 -26.269  0.00  0.00    +0.013 C 
ENDROOT
BRANCH   5  18
ATOM     15  C   UNL     1      34.909 -16.260 -22.652  0.00  0.00    +0.005 C 
ATOM     16  C   UNL     1      33.824 -15.281 -23.113  0.00  0.00    +0.028 C 
ATOM     17  C   UNL     1      34.628 -16.771 -21.241  0.00  0.00    +0.005 C 
ATOM     18  C   UNL     1      33.445 -14.298 -22.047  0.00  0.00    -0.009 C 
ATOM     19  C   UNL     1      34.539 -15.618 -20.236  0.00  0.00    +0.026 C 
ATOM     20  C   UNL     1      33.774 -14.434 -20.754  0.00  0.00    -0.029 C 
ENDBRANCH   5  18
TORSDOF 1
ENDMDL
MODEL 9
REMARK VINA RESULT:      -7.8      2.925      5.024
REMARK  Name = 25215
REMARK  1 active torsions:
REMARK  status: ('A' for Active; 'I' for Inactive)
REMARK    1  A    between atoms: C_5  and  C_18
REMARK                            x       y       z     vdW  Elec       q    Type
REMARK                         _______ _______ _______ _____ _____    ______ ____
ROOT
ATOM      1 CL   UNL     1      32.308 -14.427 -20.180  0.00  0.00    -0.082 Cl
ATOM      2  O   UNL     1      33.128  -7.579 -24.435  0.00  0.00    -0.272 OA
ATOM      3  N   UNL     1      32.131  -9.191 -23.078  0.00  0.00    -0.255 N 
ATOM      4  N   UNL     1      34.396 -10.508 -24.612  0.00  0.00    -0.261 NA
ATOM      5  C   UNL     1      33.671 -11.499 -24.212  0.00  0.00    +0.073 C 
ATOM      6  C   UNL     1      32.942 -11.558 -22.916  0.00  0.00    +0.031 C 
ATOM      7  C   UNL     1      32.178 -10.474 -22.431  0.00  0.00    +0.055 C 
ATOM      8  C   UNL     1      34.508  -9.370 -23.726  0.00  0.00    +0.210 C 
ATOM      9  C   UNL     1      32.987 -12.770 -22.204  0.00  0.00    +0.014 C 
ATOM     10  C   UNL     1      33.195  -8.635 -23.799  0.00  0.00    +0.254 C 
ATOM     11  C   UNL     1      31.417 -10.684 -21.263  0.00  0.00    +0.016 C 
ATOM     12  C   UNL     1      30.917  -8.388 -22.925  0.00  0.00    +0.120 C 
ATOM     13  C   UNL     1      32.248 -12.937 -21.037  0.00  0.00    +0.058 C 
ATOM     14  C   UNL     1      31.453 -11.898 -20.573  0.00  0.00    +0.013 C 
ENDROOT
BRANCH   5  18
ATOM     15  C   UNL     1      33.511 -13.650 -27.416  0.00  0.00    +0.005 C 
ATOM     16  C   UNL     1      33.285 -12.399 -26.561  0.00  0.00    +0.028 C 
ATOM     17  C   UNL     1      32.880 -14.881 -26.772  0.00  0.00    +0.005 C 
ATOM     18  C   UNL     1      33.513 -12.651 -25.102  0.00  0.00    -0.009 C 
ATOM     19  C   UNL     1      33.445 -15.130 -25.370  0.00  0.00    +0.026 C 
ATOM     20  C   UNL     1      33.600 -13.875 -24.560  0.00  0.00    -0.029 C 
ENDBRANCH   5  18
TORSDOF 1
ENDMDL
