MODEL 1
REMARK VINA RESULT:      -3.6      0.000      0.000
REMARK  Name = 450349
REMARK  1 active torsions:
REMARK  status: ('A' for Active; 'I' for Inactive)
REMARK    1  A    between atoms: C_3  and  O_4
REMARK                            x       y       z     vdW  Elec       q    Type
REMARK                         _______ _______ _______ _____ _____    ______ ____
ROOT
ATOM      1  O   UNL     1      41.267 -26.692 -14.079  0.00  0.00    -0.250 OA
ATOM      2  C   UNL     1      39.282 -25.320 -14.014  0.00  0.00    +0.121 C 
ATOM      3  C   UNL     1      40.418 -26.040 -14.668  0.00  0.00    +0.314 C 
ENDROOT
BRANCH   3   4
ATOM      4  O   UNL     1      40.382 -25.870 -16.012  0.00  0.00    -0.480 OA
ATOM      5  H   UNL     1      39.765 -25.278 -16.393  0.00  0.00    +0.295 HD
ENDBRANCH   3   4
TORSDOF 1
ENDMDL
MODEL 2
REMARK VINA RESULT:      -3.3     12.832     13.301
REMARK  Name = 450349
REMARK  1 active torsions:
REMARK  status: ('A' for Active; 'I' for Inactive)
REMARK    1  A    between atoms: C_3  and  O_4
REMARK                            x       y       z     vdW  Elec       q    Type
REMARK                         _______ _______ _______ _____ _____    ______ ____
ROOT
ATOM      1  O   UNL     1      27.630 -23.655 -17.672  0.00  0.00    -0.250 OA
ATOM      2  C   UNL     1      28.553 -22.520 -15.752  0.00  0.00    +0.121 C 
ATOM      3  C   UNL     1      27.747 -22.637 -17.006  0.00  0.00    +0.314 C 
ENDROOT
BRANCH   3   4
ATOM      4  O   UNL     1      27.161 -21.453 -17.310  0.00  0.00    -0.480 OA
ATOM      5  H   UNL     1      27.688 -20.698 -17.477  0.00  0.00    +0.295 HD
ENDBRANCH   3   4
TORSDOF 1
ENDMDL
MODEL 3
REMARK VINA RESULT:      -3.2     10.118     10.419
REMARK  Name = 450349
REMARK  1 active torsions:
REMARK  status: ('A' for Active; 'I' for Inactive)
REMARK    1  A    between atoms: C_3  and  O_4
REMARK                            x       y       z     vdW  Elec       q    Type
REMARK                         _______ _______ _______ _____ _____    ______ ____
ROOT
ATOM      1  O   UNL     1      42.275 -16.558 -15.636  0.00  0.00    -0.250 OA
ATOM      2  C   UNL     1      41.227 -14.664 -16.705  0.00  0.00    +0.121 C 
ATOM      3  C   UNL     1      41.294 -15.848 -15.793  0.00  0.00    +0.314 C 
ENDROOT
BRANCH   3   4
ATOM      4  O   UNL     1      40.108 -16.032 -15.161  0.00  0.00    -0.480 OA
ATOM      5  H   UNL     1      40.065 -16.562 -14.391  0.00  0.00    +0.295 HD
ENDBRANCH   3   4
TORSDOF 1
ENDMDL
MODEL 4
REMARK VINA RESULT:      -3.2     12.625     13.229
REMARK  Name = 450349
REMARK  1 active torsions:
REMARK  status: ('A' for Active; 'I' for Inactive)
REMARK    1  A    between atoms: C_3  and  O_4
REMARK                            x       y       z     vdW  Elec       q    Type
REMARK                         _______ _______ _______ _____ _____    ______ ____
ROOT
ATOM      1  O   UNL     1      42.623 -21.336 -25.393  0.00  0.00    -0.250 OA
ATOM      2  C   UNL     1      43.566 -20.219 -27.314  0.00  0.00    +0.121 C 
ATOM      3  C   UNL     1      42.476 -20.619 -26.371  0.00  0.00    +0.314 C 
ENDROOT
BRANCH   3   4
ATOM      4  O   UNL     1      41.292 -20.077 -26.750  0.00  0.00    -0.480 OA
ATOM      5  H   UNL     1      40.517 -20.252 -26.256  0.00  0.00    +0.295 HD
ENDBRANCH   3   4
TORSDOF 1
ENDMDL
MODEL 5
REMARK VINA RESULT:      -3.2      3.283      3.474
REMARK  Name = 450349
REMARK  1 active torsions:
REMARK  status: ('A' for Active; 'I' for Inactive)
REMARK    1  A    between atoms: C_3  and  O_4
REMARK                            x       y       z     vdW  Elec       q    Type
REMARK                         _______ _______ _______ _____ _____    ______ ____
ROOT
ATOM      1  O   UNL     1      38.079 -27.120 -14.590  0.00  0.00    -0.250 OA
ATOM      2  C   UNL     1      36.229 -25.606 -14.929  0.00  0.00    +0.121 C 
ATOM      3  C   UNL     1      37.123 -26.759 -15.259  0.00  0.00    +0.314 C 
ENDROOT
BRANCH   3   4
ATOM      4  O   UNL     1      36.729 -27.354 -16.412  0.00  0.00    -0.480 OA
ATOM      5  H   UNL     1      35.861 -27.223 -16.735  0.00  0.00    +0.295 HD
ENDBRANCH   3   4
TORSDOF 1
ENDMDL
MODEL 6
REMARK VINA RESULT:      -3.1      3.313      3.807
REMARK  Name = 450349
REMARK  1 active torsions:
REMARK  status: ('A' for Active; 'I' for Inactive)
REMARK    1  A    between atoms: C_3  and  O_4
REMARK                            x       y       z     vdW  Elec       q    Type
REMARK                         _______ _______ _______ _____ _____    ______ ____
ROOT
ATOM      1  O   UNL     1      36.634 -27.416 -16.328  0.00  0.00    -0.250 OA
ATOM      2  C   UNL     1      36.335 -25.567 -14.805  0.00  0.00    +0.121 C 
ATOM      3  C   UNL     1      37.003 -26.791 -15.346  0.00  0.00    +0.314 C 
ENDROOT
BRANCH   3   4
ATOM      4  O   UNL     1      38.081 -27.118 -14.592  0.00  0.00    -0.480 OA
ATOM      5  H   UNL     1      38.322 -28.017 -14.483  0.00  0.00    +0.295 HD
ENDBRANCH   3   4
TORSDOF 1
ENDMDL
MODEL 7
REMARK VINA RESULT:      -3.1     13.876     14.568
REMARK  Name = 450349
REMARK  1 active torsions:
REMARK  status: ('A' for Active; 'I' for Inactive)
REMARK    1  A    between atoms: C_3  and  O_4
REMARK                            x       y       z     vdW  Elec       q    Type
REMARK                         _______ _______ _______ _____ _____    ______ ____
ROOT
ATOM      1  O   UNL     1      34.595 -16.590 -25.855  0.00  0.00    -0.250 OA
ATOM      2  C   UNL     1      34.743 -18.392 -24.256  0.00  0.00    +0.121 C 
ATOM      3  C   UNL     1      34.951 -17.000 -24.761  0.00  0.00    +0.314 C 
ENDROOT
BRANCH   3   4
ATOM      4  O   UNL     1      35.596 -16.247 -23.836  0.00  0.00    -0.480 OA
ATOM      5  H   UNL     1      36.343 -16.591 -23.389  0.00  0.00    +0.295 HD
ENDBRANCH   3   4
TORSDOF 1
ENDMDL
MODEL 8
REMARK VINA RESULT:      -3.0      6.075      6.281
REMARK  Name = 450349
REMARK  1 active torsions:
REMARK  status: ('A' for Active; 'I' for Inactive)
REMARK    1  A    between atoms: C_3  and  O_4
REMARK                            x       y       z     vdW  Elec       q    Type
REMARK                         _______ _______ _______ _____ _____    ______ ____
ROOT
ATOM      1  O   UNL     1      35.349 -25.080 -10.492  0.00  0.00    -0.250 OA
ATOM      2  C   UNL     1      36.892 -23.559 -11.557  0.00  0.00    +0.121 C 
ATOM      3  C   UNL     1      35.558 -24.182 -11.293  0.00  0.00    +0.314 C 
ENDROOT
BRANCH   3   4
ATOM      4  O   UNL     1      34.603 -23.613 -12.070  0.00  0.00    -0.480 OA
ATOM      5  H   UNL     1      34.670 -22.711 -12.312  0.00  0.00    +0.295 HD
ENDBRANCH   3   4
TORSDOF 1
ENDMDL
MODEL 9
REMARK VINA RESULT:      -3.0      5.188      5.525
REMARK  Name = 450349
REMARK  1 active torsions:
REMARK  status: ('A' for Active; 'I' for Inactive)
REMARK    1  A    between atoms: C_3  and  O_4
REMARK                            x       y       z     vdW  Elec       q    Type
REMARK                         _______ _______ _______ _____ _____    ______ ____
ROOT
ATOM      1  O   UNL     1      38.290 -22.654 -11.617  0.00  0.00    -0.250 OA
ATOM      2  C   UNL     1      36.260 -23.389 -12.698  0.00  0.00    +0.121 C 
ATOM      3  C   UNL     1      37.217 -23.235 -11.558  0.00  0.00    +0.314 C 
ENDROOT
BRANCH   3   4
ATOM      4  O   UNL     1      36.732 -23.834 -10.443  0.00  0.00    -0.480 OA
ATOM      5  H   UNL     1      36.669 -24.768 -10.402  0.00  0.00    +0.295 HD
ENDBRANCH   3   4
TORSDOF 1
ENDMDL
