MODEL 1
REMARK VINA RESULT:      -4.9      0.000      0.000
REMARK  Name = 118458
REMARK  0 active torsions:
REMARK  status: ('A' for Active; 'I' for Inactive)
REMARK                            x       y       z     vdW  Elec       q    Type
REMARK                         _______ _______ _______ _____ _____    ______ ____
ROOT
ATOM      1 CL   UNL     1      36.499 -21.714 -18.905  0.00  0.00    -0.046 Cl
ATOM      2  N   UNL     1      35.318 -19.940 -20.389  0.00  0.00    -0.377 NA
ATOM      3  N   UNL     1      32.762 -21.044 -20.050  0.00  0.00    -0.256 NA
ATOM      4  C   UNL     1      34.226 -19.402 -20.969  0.00  0.00    +0.180 C 
ATOM      5  C   UNL     1      32.971 -19.945 -20.802  0.00  0.00    +0.199 C 
ATOM      6  C   UNL     1      35.109 -21.038 -19.637  0.00  0.00    +0.209 C 
ATOM      7  C   UNL     1      33.854 -21.580 -19.471  0.00  0.00    +0.138 C 
ATOM      8  N   UNL     1      34.357 -18.249 -21.773  0.00  0.00    -0.335 N 
ATOM      9  H   UNL     1      35.242 -17.841 -21.909  0.00  0.00    +0.144 HD
ATOM     10  H   UNL     1      33.562 -17.853 -22.199  0.00  0.00    +0.144 HD
ENDROOT
TORSDOF 0
ENDMDL
MODEL 2
REMARK VINA RESULT:      -4.8      4.401      5.271
REMARK  Name = 118458
REMARK  0 active torsions:
REMARK  status: ('A' for Active; 'I' for Inactive)
REMARK                            x       y       z     vdW  Elec       q    Type
REMARK                         _______ _______ _______ _____ _____    ______ ____
ROOT
ATOM      1 CL   UNL     1      35.366 -18.318 -23.596  0.00  0.00    -0.046 Cl
ATOM      2  N   UNL     1      34.757 -15.808 -23.323  0.00  0.00    -0.377 NA
ATOM      3  N   UNL     1      34.789 -15.884 -20.519  0.00  0.00    -0.256 NA
ATOM      4  C   UNL     1      34.495 -14.716 -22.577  0.00  0.00    +0.180 C 
ATOM      5  C   UNL     1      34.511 -14.754 -21.199  0.00  0.00    +0.199 C 
ATOM      6  C   UNL     1      35.035 -16.937 -22.642  0.00  0.00    +0.209 C 
ATOM      7  C   UNL     1      35.051 -16.974 -21.265  0.00  0.00    +0.138 C 
ATOM      8  N   UNL     1      34.194 -13.491 -23.211  0.00  0.00    -0.335 N 
ATOM      9  H   UNL     1      34.176 -13.436 -24.193  0.00  0.00    +0.144 HD
ATOM     10  H   UNL     1      34.002 -12.691 -22.670  0.00  0.00    +0.144 HD
ENDROOT
TORSDOF 0
ENDMDL
MODEL 3
REMARK VINA RESULT:      -4.8      2.003      2.969
REMARK  Name = 118458
REMARK  0 active torsions:
REMARK  status: ('A' for Active; 'I' for Inactive)
REMARK                            x       y       z     vdW  Elec       q    Type
REMARK                         _______ _______ _______ _____ _____    ______ ____
ROOT
ATOM      1 CL   UNL     1      34.564 -18.382 -22.166  0.00  0.00    -0.046 Cl
ATOM      2  N   UNL     1      35.333 -20.158 -20.433  0.00  0.00    -0.377 NA
ATOM      3  N   UNL     1      32.734 -21.061 -19.885  0.00  0.00    -0.256 NA
ATOM      4  C   UNL     1      35.093 -21.144 -19.546  0.00  0.00    +0.180 C 
ATOM      5  C   UNL     1      33.816 -21.588 -19.277  0.00  0.00    +0.199 C 
ATOM      6  C   UNL     1      34.251 -19.632 -21.041  0.00  0.00    +0.209 C 
ATOM      7  C   UNL     1      32.975 -20.076 -20.772  0.00  0.00    +0.138 C 
ATOM      8  N   UNL     1      36.170 -21.750 -18.864  0.00  0.00    -0.335 N 
ATOM      9  H   UNL     1      37.093 -21.453 -19.037  0.00  0.00    +0.144 HD
ATOM     10  H   UNL     1      36.000 -22.471 -18.215  0.00  0.00    +0.144 HD
ENDROOT
TORSDOF 0
ENDMDL
MODEL 4
REMARK VINA RESULT:      -4.8      8.879      9.306
REMARK  Name = 118458
REMARK  0 active torsions:
REMARK  status: ('A' for Active; 'I' for Inactive)
REMARK                            x       y       z     vdW  Elec       q    Type
REMARK                         _______ _______ _______ _____ _____    ______ ____
ROOT
ATOM      1 CL   UNL     1      40.858 -26.174 -14.225  0.00  0.00    -0.046 Cl
ATOM      2  N   UNL     1      38.345 -26.575 -14.744  0.00  0.00    -0.377 NA
ATOM      3  N   UNL     1      37.437 -24.674 -12.892  0.00  0.00    -0.256 NA
ATOM      4  C   UNL     1      37.033 -26.329 -14.561  0.00  0.00    +0.180 C 
ATOM      5  C   UNL     1      36.587 -25.394 -13.651  0.00  0.00    +0.199 C 
ATOM      6  C   UNL     1      39.195 -25.855 -13.986  0.00  0.00    +0.209 C 
ATOM      7  C   UNL     1      38.749 -24.921 -13.077  0.00  0.00    +0.138 C 
ATOM      8  N   UNL     1      36.074 -27.040 -15.315  0.00  0.00    -0.335 N 
ATOM      9  H   UNL     1      36.364 -27.713 -15.972  0.00  0.00    +0.144 HD
ATOM     10  H   UNL     1      35.114 -26.863 -15.184  0.00  0.00    +0.144 HD
ENDROOT
TORSDOF 0
ENDMDL
MODEL 5
REMARK VINA RESULT:      -4.8      3.650      4.665
REMARK  Name = 118458
REMARK  0 active torsions:
REMARK  status: ('A' for Active; 'I' for Inactive)
REMARK                            x       y       z     vdW  Elec       q    Type
REMARK                         _______ _______ _______ _____ _____    ______ ____
ROOT
ATOM      1 CL   UNL     1      34.514 -14.903 -20.634  0.00  0.00    -0.046 Cl
ATOM      2  N   UNL     1      35.282 -17.384 -20.691  0.00  0.00    -0.377 NA
ATOM      3  N   UNL     1      35.144 -17.587 -23.485  0.00  0.00    -0.256 NA
ATOM      4  C   UNL     1      35.591 -18.525 -21.339  0.00  0.00    +0.180 C 
ATOM      5  C   UNL     1      35.523 -18.624 -22.712  0.00  0.00    +0.199 C 
ATOM      6  C   UNL     1      34.904 -16.347 -21.464  0.00  0.00    +0.209 C 
ATOM      7  C   UNL     1      34.836 -16.447 -22.836  0.00  0.00    +0.138 C 
ATOM      8  N   UNL     1      35.997 -19.660 -20.604  0.00  0.00    -0.335 N 
ATOM      9  H   UNL     1      36.054 -19.617 -19.622  0.00  0.00    +0.144 HD
ATOM     10  H   UNL     1      36.223 -20.496 -21.073  0.00  0.00    +0.144 HD
ENDROOT
TORSDOF 0
ENDMDL
MODEL 6
REMARK VINA RESULT:      -4.8      5.936      6.961
REMARK  Name = 118458
REMARK  0 active torsions:
REMARK  status: ('A' for Active; 'I' for Inactive)
REMARK                            x       y       z     vdW  Elec       q    Type
REMARK                         _______ _______ _______ _____ _____    ______ ____
ROOT
ATOM      1 CL   UNL     1      33.342 -13.156 -23.339  0.00  0.00    -0.046 Cl
ATOM      2  N   UNL     1      34.610 -15.423 -23.356  0.00  0.00    -0.377 NA
ATOM      3  N   UNL     1      33.783 -16.111 -25.947  0.00  0.00    -0.256 NA
ATOM      4  C   UNL     1      34.986 -16.577 -23.942  0.00  0.00    +0.180 C 
ATOM      5  C   UNL     1      34.580 -16.915 -25.215  0.00  0.00    +0.199 C 
ATOM      6  C   UNL     1      33.814 -14.619 -24.088  0.00  0.00    +0.209 C 
ATOM      7  C   UNL     1      33.408 -14.957 -25.360  0.00  0.00    +0.138 C 
ATOM      8  N   UNL     1      35.820 -17.478 -23.244  0.00  0.00    -0.335 N 
ATOM      9  H   UNL     1      36.125 -17.262 -22.333  0.00  0.00    +0.144 HD
ATOM     10  H   UNL     1      36.098 -18.322 -23.667  0.00  0.00    +0.144 HD
ENDROOT
TORSDOF 0
ENDMDL
MODEL 7
REMARK VINA RESULT:      -4.7      5.082      5.850
REMARK  Name = 118458
REMARK  0 active torsions:
REMARK  status: ('A' for Active; 'I' for Inactive)
REMARK                            x       y       z     vdW  Elec       q    Type
REMARK                         _______ _______ _______ _____ _____    ______ ____
ROOT
ATOM      1 CL   UNL     1      34.036 -13.391 -23.346  0.00  0.00    -0.046 Cl
ATOM      2  N   UNL     1      34.992 -15.804 -23.237  0.00  0.00    -0.377 NA
ATOM      3  N   UNL     1      34.756 -16.002 -20.449  0.00  0.00    -0.256 NA
ATOM      4  C   UNL     1      35.362 -16.913 -22.567  0.00  0.00    +0.180 C 
ATOM      5  C   UNL     1      35.246 -17.011 -21.197  0.00  0.00    +0.199 C 
ATOM      6  C   UNL     1      34.503 -14.796 -22.489  0.00  0.00    +0.209 C 
ATOM      7  C   UNL     1      34.387 -14.893 -21.120  0.00  0.00    +0.138 C 
ATOM      8  N   UNL     1      35.885 -18.017 -23.275  0.00  0.00    -0.335 N 
ATOM      9  H   UNL     1      35.979 -17.975 -24.254  0.00  0.00    +0.144 HD
ATOM     10  H   UNL     1      36.156 -18.830 -22.790  0.00  0.00    +0.144 HD
ENDROOT
TORSDOF 0
ENDMDL
MODEL 8
REMARK VINA RESULT:      -4.7      2.395      3.455
REMARK  Name = 118458
REMARK  0 active torsions:
REMARK  status: ('A' for Active; 'I' for Inactive)
REMARK                            x       y       z     vdW  Elec       q    Type
REMARK                         _______ _______ _______ _____ _____    ______ ____
ROOT
ATOM      1 CL   UNL     1      35.249 -17.118 -22.553  0.00  0.00    -0.046 Cl
ATOM      2  N   UNL     1      33.987 -19.061 -21.378  0.00  0.00    -0.377 NA
ATOM      3  N   UNL     1      36.295 -20.128 -20.193  0.00  0.00    -0.256 NA
ATOM      4  C   UNL     1      33.945 -20.157 -20.595  0.00  0.00    +0.180 C 
ATOM      5  C   UNL     1      35.079 -20.681 -20.013  0.00  0.00    +0.199 C 
ATOM      6  C   UNL     1      35.203 -18.508 -21.558  0.00  0.00    +0.209 C 
ATOM      7  C   UNL     1      36.336 -19.033 -20.976  0.00  0.00    +0.138 C 
ATOM      8  N   UNL     1      32.710 -20.798 -20.355  0.00  0.00    -0.335 N 
ATOM      9  H   UNL     1      31.885 -20.445 -20.758  0.00  0.00    +0.144 HD
ATOM     10  H   UNL     1      32.674 -21.600 -19.783  0.00  0.00    +0.144 HD
ENDROOT
TORSDOF 0
ENDMDL
MODEL 9
REMARK VINA RESULT:      -4.7      1.939      2.589
REMARK  Name = 118458
REMARK  0 active torsions:
REMARK  status: ('A' for Active; 'I' for Inactive)
REMARK                            x       y       z     vdW  Elec       q    Type
REMARK                         _______ _______ _______ _____ _____    ______ ____
ROOT
ATOM      1 CL   UNL     1      33.435 -23.552 -17.578  0.00  0.00    -0.046 Cl
ATOM      2  N   UNL     1      32.946 -21.695 -19.327  0.00  0.00    -0.377 NA
ATOM      3  N   UNL     1      35.639 -20.971 -19.629  0.00  0.00    -0.256 NA
ATOM      4  C   UNL     1      33.331 -20.713 -20.167  0.00  0.00    +0.180 C 
ATOM      5  C   UNL     1      34.654 -20.358 -20.315  0.00  0.00    +0.199 C 
ATOM      6  C   UNL     1      33.931 -22.308 -18.642  0.00  0.00    +0.209 C 
ATOM      7  C   UNL     1      35.253 -21.953 -18.790  0.00  0.00    +0.138 C 
ATOM      8  N   UNL     1      32.361 -20.019 -20.923  0.00  0.00    -0.335 N 
ATOM      9  H   UNL     1      31.409 -20.252 -20.837  0.00  0.00    +0.144 HD
ATOM     10  H   UNL     1      32.638 -19.301 -21.538  0.00  0.00    +0.144 HD
ENDROOT
TORSDOF 0
ENDMDL
