MODEL 1
REMARK VINA RESULT:     -10.4      0.000      0.000
REMARK  Name = 10073773
REMARK  5 active torsions:
REMARK  status: ('A' for Active; 'I' for Inactive)
REMARK    1  A    between atoms: N_1  and  S_10
REMARK    2  A    between atoms: C_2  and  C_22
REMARK    3  A    between atoms: C_8  and  O_20
REMARK    4  A    between atoms: S_10  and  C_14
REMARK    5  A    between atoms: C_22  and  N_23
REMARK                            x       y       z     vdW  Elec       q    Type
REMARK                         _______ _______ _______ _____ _____    ______ ____
ROOT
ATOM      1  N   UNL     1      34.214 -23.389 -15.067  0.00  0.00    -0.168 N 
ATOM      2  C   UNL     1      33.549 -23.163 -17.145  0.00  0.00    -0.025 C 
ATOM      3  C   UNL     1      32.397 -23.150 -16.339  0.00  0.00    +0.014 C 
ATOM      4  C   UNL     1      32.842 -23.294 -15.023  0.00  0.00    +0.074 C 
ATOM      5  C   UNL     1      34.652 -23.309 -16.362  0.00  0.00    +0.083 C 
ATOM      6  C   UNL     1      31.013 -23.030 -16.579  0.00  0.00    +0.038 C 
ATOM      7  C   UNL     1      31.968 -23.325 -13.929  0.00  0.00    +0.020 C 
ATOM      8  C   UNL     1      30.128 -23.059 -15.495  0.00  0.00    +0.139 C 
ATOM      9  C   UNL     1      30.600 -23.205 -14.192  0.00  0.00    +0.038 C 
ENDROOT
BRANCH   1  10
ATOM     10  S   UNL     1      35.222 -23.572 -13.753  0.00  0.00    +0.081 S 
ATOM     11  O   UNL     1      34.350 -23.950 -12.643  0.00  0.00    -0.149 OA
ATOM     12  O   UNL     1      36.081 -22.388 -13.660  0.00  0.00    -0.149 OA
BRANCH  10  14
ATOM     13 BR   UNL     1      38.025 -24.014 -11.976  0.00  0.00    -0.048 Br
ATOM     14  C   UNL     1      36.299 -24.936 -14.109  0.00  0.00    +0.132 C 
ATOM     15  C   UNL     1      37.465 -25.146 -13.393  0.00  0.00    +0.053 C 
ATOM     16  C   UNL     1      35.918 -25.782 -15.138  0.00  0.00    +0.021 C 
ATOM     17  C   UNL     1      38.275 -26.235 -13.716  0.00  0.00    +0.008 C 
ATOM     18  C   UNL     1      36.728 -26.869 -15.460  0.00  0.00    +0.001 C 
ATOM     19  C   UNL     1      37.907 -27.097 -14.750  0.00  0.00    +0.001 C 
ENDBRANCH  10  14
ENDBRANCH   1  10
BRANCH   8  20
ATOM     20  O   UNL     1      28.789 -22.944 -15.719  0.00  0.00    -0.471 OA
ATOM     21  C   UNL     1      28.265 -23.613 -16.864  0.00  0.00    +0.252 C 
ENDBRANCH   8  20
BRANCH   2  22
ATOM     22  C   UNL     1      33.572 -23.037 -18.645  0.00  0.00    -0.049 C 
BRANCH  22  23
ATOM     23  N   UNL     1      34.159 -21.763 -19.056  0.00  0.00    +0.387 N 
ATOM     24  N   UNL     1      35.299 -19.962 -21.009  0.00  0.00    +0.383 N 
ATOM     25  C   UNL     1      35.521 -21.957 -19.567  0.00  0.00    -0.100 C 
ATOM     26  C   UNL     1      33.322 -21.105 -20.066  0.00  0.00    -0.100 C 
ATOM     27  C   UNL     1      36.137 -20.621 -20.001  0.00  0.00    -0.101 C 
ATOM     28  C   UNL     1      33.936 -19.770 -20.498  0.00  0.00    -0.101 C 
ATOM     29  C   UNL     1      35.885 -18.688 -21.418  0.00  0.00    -0.101 C 
ATOM     30  H   UNL     1      34.207 -21.159 -18.235  0.00  0.00    -0.079 HD
ATOM     31  H   UNL     1      35.251 -20.565 -21.831  0.00  0.00    -0.080 HD
ENDBRANCH  22  23
ENDBRANCH   2  22
TORSDOF 5
ENDMDL
MODEL 2
REMARK VINA RESULT:     -10.1      1.442      1.720
REMARK  Name = 10073773
REMARK  5 active torsions:
REMARK  status: ('A' for Active; 'I' for Inactive)
REMARK    1  A    between atoms: N_1  and  S_10
REMARK    2  A    between atoms: C_2  and  C_22
REMARK    3  A    between atoms: C_8  and  O_20
REMARK    4  A    between atoms: S_10  and  C_14
REMARK    5  A    between atoms: C_22  and  N_23
REMARK                            x       y       z     vdW  Elec       q    Type
REMARK                         _______ _______ _______ _____ _____    ______ ____
ROOT
ATOM      1  N   UNL     1      35.623 -22.859 -16.171  0.00  0.00    -0.168 N 
ATOM      2  C   UNL     1      34.377 -22.600 -17.956  0.00  0.00    -0.025 C 
ATOM      3  C   UNL     1      33.529 -23.027 -16.919  0.00  0.00    +0.014 C 
ATOM      4  C   UNL     1      34.341 -23.185 -15.793  0.00  0.00    +0.074 C 
ATOM      5  C   UNL     1      35.651 -22.500 -17.491  0.00  0.00    +0.083 C 
ATOM      6  C   UNL     1      32.151 -23.299 -16.804  0.00  0.00    +0.038 C 
ATOM      7  C   UNL     1      33.842 -23.605 -14.554  0.00  0.00    +0.020 C 
ATOM      8  C   UNL     1      31.638 -23.719 -15.571  0.00  0.00    +0.139 C 
ATOM      9  C   UNL     1      32.473 -23.869 -14.465  0.00  0.00    +0.038 C 
ENDROOT
BRANCH   1  10
ATOM     10  S   UNL     1      36.967 -22.886 -15.185  0.00  0.00    +0.081 S 
ATOM     11  O   UNL     1      36.695 -21.912 -14.129  0.00  0.00    -0.149 OA
ATOM     12  O   UNL     1      38.161 -22.763 -16.026  0.00  0.00    -0.149 OA
BRANCH  10  14
ATOM     13 BR   UNL     1      37.475 -23.220 -11.893  0.00  0.00    -0.048 Br
ATOM     14  C   UNL     1      37.044 -24.499 -14.453  0.00  0.00    +0.132 C 
ATOM     15  C   UNL     1      37.253 -24.672 -13.096  0.00  0.00    +0.053 C 
ATOM     16  C   UNL     1      36.886 -25.581 -15.304  0.00  0.00    +0.021 C 
ATOM     17  C   UNL     1      37.305 -25.964 -12.573  0.00  0.00    +0.008 C 
ATOM     18  C   UNL     1      36.938 -26.872 -14.782  0.00  0.00    +0.001 C 
ATOM     19  C   UNL     1      37.148 -27.065 -13.416  0.00  0.00    +0.001 C 
ENDBRANCH  10  14
ENDBRANCH   1  10
BRANCH   8  20
ATOM     20  O   UNL     1      30.307 -23.985 -15.453  0.00  0.00    -0.471 OA
ATOM     21  C   UNL     1      29.946 -25.274 -14.960  0.00  0.00    +0.252 C 
ENDBRANCH   8  20
BRANCH   2  22
ATOM     22  C   UNL     1      33.951 -22.297 -19.367  0.00  0.00    -0.049 C 
BRANCH  22  23
ATOM     23  N   UNL     1      34.298 -20.927 -19.739  0.00  0.00    +0.387 N 
ATOM     24  N   UNL     1      34.870 -18.844 -21.660  0.00  0.00    +0.383 N 
ATOM     25  C   UNL     1      35.573 -20.890 -20.464  0.00  0.00    -0.100 C 
ATOM     26  C   UNL     1      33.232 -20.319 -20.544  0.00  0.00    -0.100 C 
ATOM     27  C   UNL     1      35.937 -19.452 -20.855  0.00  0.00    -0.101 C 
ATOM     28  C   UNL     1      33.595 -18.883 -20.934  0.00  0.00    -0.101 C 
ATOM     29  C   UNL     1      35.217 -17.473 -22.029  0.00  0.00    -0.101 C 
ATOM     30  H   UNL     1      34.401 -20.385 -18.880  0.00  0.00    -0.079 HD
ATOM     31  H   UNL     1      34.767 -19.384 -22.519  0.00  0.00    -0.080 HD
ENDBRANCH  22  23
ENDBRANCH   2  22
TORSDOF 5
ENDMDL
MODEL 3
REMARK VINA RESULT:     -10.1      3.369      6.756
REMARK  Name = 10073773
REMARK  5 active torsions:
REMARK  status: ('A' for Active; 'I' for Inactive)
REMARK    1  A    between atoms: N_1  and  S_10
REMARK    2  A    between atoms: C_2  and  C_22
REMARK    3  A    between atoms: C_8  and  O_20
REMARK    4  A    between atoms: S_10  and  C_14
REMARK    5  A    between atoms: C_22  and  N_23
REMARK                            x       y       z     vdW  Elec       q    Type
REMARK                         _______ _______ _______ _____ _____    ______ ____
ROOT
ATOM      1  N   UNL     1      34.340 -22.763 -17.434  0.00  0.00    -0.168 N 
ATOM      2  C   UNL     1      35.526 -22.821 -15.590  0.00  0.00    -0.025 C 
ATOM      3  C   UNL     1      34.216 -23.206 -15.252  0.00  0.00    +0.014 C 
ATOM      4  C   UNL     1      33.479 -23.163 -16.438  0.00  0.00    +0.074 C 
ATOM      5  C   UNL     1      35.592 -22.553 -16.922  0.00  0.00    +0.083 C 
ATOM      6  C   UNL     1      33.565 -23.591 -14.062  0.00  0.00    +0.038 C 
ATOM      7  C   UNL     1      32.118 -23.485 -16.494  0.00  0.00    +0.020 C 
ATOM      8  C   UNL     1      32.205 -23.917 -14.104  0.00  0.00    +0.139 C 
ATOM      9  C   UNL     1      31.494 -23.864 -15.302  0.00  0.00    +0.038 C 
ENDROOT
BRANCH   1  10
ATOM     10  S   UNL     1      33.944 -22.557 -19.040  0.00  0.00    +0.081 S 
ATOM     11  O   UNL     1      32.584 -22.024 -19.041  0.00  0.00    -0.149 OA
ATOM     12  O   UNL     1      34.264 -23.794 -19.758  0.00  0.00    -0.149 OA
BRANCH  10  14
ATOM     13 BR   UNL     1      32.707 -19.958 -20.750  0.00  0.00    -0.048 Br
ATOM     14  C   UNL     1      35.032 -21.316 -19.689  0.00  0.00    +0.132 C 
ATOM     15  C   UNL     1      34.553 -20.230 -20.401  0.00  0.00    +0.053 C 
ATOM     16  C   UNL     1      36.387 -21.485 -19.451  0.00  0.00    +0.021 C 
ATOM     17  C   UNL     1      35.454 -19.284 -20.889  0.00  0.00    +0.008 C 
ATOM     18  C   UNL     1      37.287 -20.539 -19.939  0.00  0.00    +0.001 C 
ATOM     19  C   UNL     1      36.822 -19.438 -20.659  0.00  0.00    +0.001 C 
ENDBRANCH  10  14
ENDBRANCH   1  10
BRANCH   8  20
ATOM     20  O   UNL     1      31.568 -24.290 -12.958  0.00  0.00    -0.471 OA
ATOM     21  C   UNL     1      30.302 -24.931 -13.101  0.00  0.00    +0.252 C 
ENDBRANCH   8  20
BRANCH   2  22
ATOM     22  C   UNL     1      36.684 -22.718 -14.635  0.00  0.00    -0.049 C 
BRANCH  22  23
ATOM     23  N   UNL     1      37.497 -23.932 -14.660  0.00  0.00    +0.387 N 
ATOM     24  N   UNL     1      39.912 -25.427 -14.127  0.00  0.00    +0.383 N 
ATOM     25  C   UNL     1      38.709 -23.732 -15.463  0.00  0.00    -0.100 C 
ATOM     26  C   UNL     1      37.847 -24.354 -13.299  0.00  0.00    -0.100 C 
ATOM     27  C   UNL     1      39.563 -25.005 -15.489  0.00  0.00    -0.101 C 
ATOM     28  C   UNL     1      38.700 -25.626 -13.325  0.00  0.00    -0.101 C 
ATOM     29  C   UNL     1      40.724 -26.643 -14.154  0.00  0.00    -0.101 C 
ATOM     30  H   UNL     1      36.943 -24.672 -15.093  0.00  0.00    -0.079 HD
ATOM     31  H   UNL     1      40.467 -24.689 -13.694  0.00  0.00    -0.080 HD
ENDBRANCH  22  23
ENDBRANCH   2  22
TORSDOF 5
ENDMDL
MODEL 4
REMARK VINA RESULT:      -9.7      2.476      4.882
REMARK  Name = 10073773
REMARK  5 active torsions:
REMARK  status: ('A' for Active; 'I' for Inactive)
REMARK    1  A    between atoms: N_1  and  S_10
REMARK    2  A    between atoms: C_2  and  C_22
REMARK    3  A    between atoms: C_8  and  O_20
REMARK    4  A    between atoms: S_10  and  C_14
REMARK    5  A    between atoms: C_22  and  N_23
REMARK                            x       y       z     vdW  Elec       q    Type
REMARK                         _______ _______ _______ _____ _____    ______ ____
ROOT
ATOM      1  N   UNL     1      33.959 -24.117 -13.882  0.00  0.00    -0.168 N 
ATOM      2  C   UNL     1      31.902 -24.383 -14.595  0.00  0.00    -0.025 C 
ATOM      3  C   UNL     1      32.628 -23.786 -15.641  0.00  0.00    +0.014 C 
ATOM      4  C   UNL     1      33.932 -23.626 -15.167  0.00  0.00    +0.074 C 
ATOM      5  C   UNL     1      32.721 -24.581 -13.527  0.00  0.00    +0.083 C 
ATOM      6  C   UNL     1      32.325 -23.358 -16.949  0.00  0.00    +0.038 C 
ATOM      7  C   UNL     1      34.952 -23.057 -15.938  0.00  0.00    +0.020 C 
ATOM      8  C   UNL     1      33.335 -22.788 -17.732  0.00  0.00    +0.139 C 
ATOM      9  C   UNL     1      34.628 -22.641 -17.233  0.00  0.00    +0.038 C 
ENDROOT
BRANCH   1  10
ATOM     10  S   UNL     1      35.290 -24.156 -12.880  0.00  0.00    +0.081 S 
ATOM     11  O   UNL     1      34.845 -24.838 -11.666  0.00  0.00    -0.149 OA
ATOM     12  O   UNL     1      35.859 -22.807 -12.814  0.00  0.00    -0.149 OA
BRANCH  10  14
ATOM     13 BR   UNL     1      38.499 -23.972 -11.943  0.00  0.00    -0.048 Br
ATOM     14  C   UNL     1      36.511 -25.167 -13.674  0.00  0.00    +0.132 C 
ATOM     15  C   UNL     1      37.846 -25.115 -13.311  0.00  0.00    +0.053 C 
ATOM     16  C   UNL     1      36.066 -26.013 -14.677  0.00  0.00    +0.021 C 
ATOM     17  C   UNL     1      38.763 -25.933 -13.969  0.00  0.00    +0.008 C 
ATOM     18  C   UNL     1      36.984 -26.831 -15.335  0.00  0.00    +0.001 C 
ATOM     19  C   UNL     1      38.333 -26.791 -14.982  0.00  0.00    +0.001 C 
ENDBRANCH  10  14
ENDBRANCH   1  10
BRANCH   8  20
ATOM     20  O   UNL     1      33.049 -22.372 -18.998  0.00  0.00    -0.471 OA
ATOM     21  C   UNL     1      33.936 -21.420 -19.581  0.00  0.00    +0.252 C 
ENDBRANCH   8  20
BRANCH   2  22
ATOM     22  C   UNL     1      30.443 -24.751 -14.638  0.00  0.00    -0.049 C 
BRANCH  22  23
ATOM     23  N   UNL     1      29.701 -23.854 -15.521  0.00  0.00    +0.387 N 
ATOM     24  N   UNL     1      27.274 -22.617 -16.489  0.00  0.00    +0.383 N 
ATOM     25  C   UNL     1      28.736 -24.603 -16.335  0.00  0.00    -0.100 C 
ATOM     26  C   UNL     1      29.018 -22.809 -14.749  0.00  0.00    -0.100 C 
ATOM     27  C   UNL     1      27.956 -23.662 -17.261  0.00  0.00    -0.101 C 
ATOM     28  C   UNL     1      28.239 -21.869 -15.674  0.00  0.00    -0.101 C 
ATOM     29  C   UNL     1      26.533 -21.719 -17.373  0.00  0.00    -0.101 C 
ATOM     30  H   UNL     1      30.370 -23.405 -16.148  0.00  0.00    -0.079 HD
ATOM     31  H   UNL     1      26.604 -23.065 -15.863  0.00  0.00    -0.080 HD
ENDBRANCH  22  23
ENDBRANCH   2  22
TORSDOF 5
ENDMDL
MODEL 5
REMARK VINA RESULT:      -9.0      2.462      5.831
REMARK  Name = 10073773
REMARK  5 active torsions:
REMARK  status: ('A' for Active; 'I' for Inactive)
REMARK    1  A    between atoms: N_1  and  S_10
REMARK    2  A    between atoms: C_2  and  C_22
REMARK    3  A    between atoms: C_8  and  O_20
REMARK    4  A    between atoms: S_10  and  C_14
REMARK    5  A    between atoms: C_22  and  N_23
REMARK                            x       y       z     vdW  Elec       q    Type
REMARK                         _______ _______ _______ _____ _____    ______ ____
ROOT
ATOM      1  N   UNL     1      32.568 -23.454 -15.313  0.00  0.00    -0.168 N 
ATOM      2  C   UNL     1      33.633 -23.297 -17.224  0.00  0.00    -0.025 C 
ATOM      3  C   UNL     1      34.607 -23.357 -16.212  0.00  0.00    +0.014 C 
ATOM      4  C   UNL     1      33.910 -23.457 -15.006  0.00  0.00    +0.074 C 
ATOM      5  C   UNL     1      32.393 -23.357 -16.667  0.00  0.00    +0.083 C 
ATOM      6  C   UNL     1      36.016 -23.339 -16.181  0.00  0.00    +0.038 C 
ATOM      7  C   UNL     1      34.553 -23.539 -13.766  0.00  0.00    +0.020 C 
ATOM      8  C   UNL     1      36.673 -23.421 -14.949  0.00  0.00    +0.139 C 
ATOM      9  C   UNL     1      35.951 -23.519 -13.760  0.00  0.00    +0.038 C 
ENDROOT
BRANCH   1  10
ATOM     10  S   UNL     1      31.317 -23.555 -14.217  0.00  0.00    +0.081 S 
ATOM     11  O   UNL     1      31.486 -22.409 -13.325  0.00  0.00    -0.149 OA
ATOM     12  O   UNL     1      31.278 -24.919 -13.683  0.00  0.00    -0.149 OA
BRANCH  10  14
ATOM     13 BR   UNL     1      30.045 -26.088 -15.999  0.00  0.00    -0.048 Br
ATOM     14  C   UNL     1      29.810 -23.338 -15.126  0.00  0.00    +0.132 C 
ATOM     15  C   UNL     1      29.258 -24.365 -15.873  0.00  0.00    +0.053 C 
ATOM     16  C   UNL     1      29.209 -22.092 -15.055  0.00  0.00    +0.021 C 
ATOM     17  C   UNL     1      28.070 -24.139 -16.569  0.00  0.00    +0.008 C 
ATOM     18  C   UNL     1      28.022 -21.867 -15.751  0.00  0.00    +0.001 C 
ATOM     19  C   UNL     1      27.452 -22.890 -16.508  0.00  0.00    +0.001 C 
ENDBRANCH  10  14
ENDBRANCH   1  10
BRANCH   8  20
ATOM     20  O   UNL     1      38.035 -23.403 -14.911  0.00  0.00    -0.471 OA
ATOM     21  C   UNL     1      38.693 -24.656 -14.727  0.00  0.00    +0.252 C 
ENDBRANCH   8  20
BRANCH   2  22
ATOM     22  C   UNL     1      33.906 -23.183 -18.700  0.00  0.00    -0.049 C 
BRANCH  22  23
ATOM     23  N   UNL     1      34.308 -21.825 -19.057  0.00  0.00    +0.387 N 
ATOM     24  N   UNL     1      35.171 -19.802 -20.933  0.00  0.00    +0.383 N 
ATOM     25  C   UNL     1      35.679 -21.806 -19.580  0.00  0.00    -0.100 C 
ATOM     26  C   UNL     1      33.379 -21.245 -20.034  0.00  0.00    -0.100 C 
ATOM     27  C   UNL     1      36.101 -20.381 -19.957  0.00  0.00    -0.101 C 
ATOM     28  C   UNL     1      33.800 -19.821 -20.410  0.00  0.00    -0.101 C 
ATOM     29  C   UNL     1      35.573 -18.442 -21.288  0.00  0.00    -0.101 C 
ATOM     30  H   UNL     1      34.280 -21.256 -18.210  0.00  0.00    -0.079 HD
ATOM     31  H   UNL     1      35.199 -20.369 -21.780  0.00  0.00    -0.080 HD
ENDBRANCH  22  23
ENDBRANCH   2  22
TORSDOF 5
ENDMDL
MODEL 6
REMARK VINA RESULT:      -9.0      6.971     10.661
REMARK  Name = 10073773
REMARK  5 active torsions:
REMARK  status: ('A' for Active; 'I' for Inactive)
REMARK    1  A    between atoms: N_1  and  S_10
REMARK    2  A    between atoms: C_2  and  C_22
REMARK    3  A    between atoms: C_8  and  O_20
REMARK    4  A    between atoms: S_10  and  C_14
REMARK    5  A    between atoms: C_22  and  N_23
REMARK                            x       y       z     vdW  Elec       q    Type
REMARK                         _______ _______ _______ _____ _____    ______ ____
ROOT
ATOM      1  N   UNL     1      34.683 -17.123 -22.491  0.00  0.00    -0.168 N 
ATOM      2  C   UNL     1      33.660 -15.277 -21.895  0.00  0.00    -0.025 C 
ATOM      3  C   UNL     1      33.574 -15.363 -23.296  0.00  0.00    +0.014 C 
ATOM      4  C   UNL     1      34.230 -16.543 -23.654  0.00  0.00    +0.074 C 
ATOM      5  C   UNL     1      34.337 -16.354 -21.413  0.00  0.00    +0.083 C 
ATOM      6  C   UNL     1      33.008 -14.567 -24.312  0.00  0.00    +0.038 C 
ATOM      7  C   UNL     1      34.350 -16.968 -24.983  0.00  0.00    +0.020 C 
ATOM      8  C   UNL     1      33.120 -14.979 -25.644  0.00  0.00    +0.139 C 
ATOM      9  C   UNL     1      33.781 -16.161 -25.973  0.00  0.00    +0.038 C 
ENDROOT
BRANCH   1  10
ATOM     10  S   UNL     1      35.531 -18.554 -22.381  0.00  0.00    +0.081 S 
ATOM     11  O   UNL     1      36.818 -18.199 -21.785  0.00  0.00    -0.149 OA
ATOM     12  O   UNL     1      35.469 -19.230 -23.680  0.00  0.00    -0.149 OA
BRANCH  10  14
ATOM     13 BR   UNL     1      37.206 -20.642 -20.370  0.00  0.00    -0.048 Br
ATOM     14  C   UNL     1      34.654 -19.592 -21.243  0.00  0.00    +0.132 C 
ATOM     15  C   UNL     1      35.316 -20.467 -20.398  0.00  0.00    +0.053 C 
ATOM     16  C   UNL     1      33.272 -19.489 -21.238  0.00  0.00    +0.021 C 
ATOM     17  C   UNL     1      34.575 -21.260 -19.522  0.00  0.00    +0.008 C 
ATOM     18  C   UNL     1      32.532 -20.283 -20.363  0.00  0.00    +0.001 C 
ATOM     19  C   UNL     1      33.183 -21.169 -19.504  0.00  0.00    +0.001 C 
ENDBRANCH  10  14
ENDBRANCH   1  10
BRANCH   8  20
ATOM     20  O   UNL     1      32.575 -14.214 -26.632  0.00  0.00    -0.471 OA
ATOM     21  C   UNL     1      33.337 -13.092 -27.075  0.00  0.00    +0.252 C 
ENDBRANCH   8  20
BRANCH   2  22
ATOM     22  C   UNL     1      33.094 -14.170 -21.048  0.00  0.00    -0.049 C 
BRANCH  22  23
ATOM     23  N   UNL     1      32.566 -13.089 -21.878  0.00  0.00    +0.387 N 
ATOM     24  N   UNL     1      32.153 -10.302 -22.524  0.00  0.00    +0.383 N 
ATOM     25  C   UNL     1      31.617 -12.265 -21.121  0.00  0.00    -0.100 C 
ATOM     26  C   UNL     1      33.655 -12.260 -22.409  0.00  0.00    -0.100 C 
ATOM     27  C   UNL     1      31.064 -11.130 -21.992  0.00  0.00    -0.101 C 
ATOM     28  C   UNL     1      33.103 -11.127 -23.280  0.00  0.00    -0.101 C 
ATOM     29  C   UNL     1      31.624  -9.223 -23.356  0.00  0.00    -0.101 C 
ATOM     30  H   UNL     1      32.071 -13.511 -22.664  0.00  0.00    -0.079 HD
ATOM     31  H   UNL     1      32.649  -9.880 -21.738  0.00  0.00    -0.080 HD
ENDBRANCH  22  23
ENDBRANCH   2  22
TORSDOF 5
ENDMDL
MODEL 7
REMARK VINA RESULT:      -8.7      2.562      5.182
REMARK  Name = 10073773
REMARK  5 active torsions:
REMARK  status: ('A' for Active; 'I' for Inactive)
REMARK    1  A    between atoms: N_1  and  S_10
REMARK    2  A    between atoms: C_2  and  C_22
REMARK    3  A    between atoms: C_8  and  O_20
REMARK    4  A    between atoms: S_10  and  C_14
REMARK    5  A    between atoms: C_22  and  N_23
REMARK                            x       y       z     vdW  Elec       q    Type
REMARK                         _______ _______ _______ _____ _____    ______ ____
ROOT
ATOM      1  N   UNL     1      35.531 -23.320 -15.748  0.00  0.00    -0.168 N 
ATOM      2  C   UNL     1      33.412 -23.882 -15.731  0.00  0.00    -0.025 C 
ATOM      3  C   UNL     1      33.640 -23.168 -16.921  0.00  0.00    +0.014 C 
ATOM      4  C   UNL     1      34.993 -22.820 -16.912  0.00  0.00    +0.074 C 
ATOM      5  C   UNL     1      34.569 -23.970 -15.023  0.00  0.00    +0.083 C 
ATOM      6  C   UNL     1      32.846 -22.773 -18.016  0.00  0.00    +0.038 C 
ATOM      7  C   UNL     1      35.594 -22.095 -17.947  0.00  0.00    +0.020 C 
ATOM      8  C   UNL     1      33.433 -22.047 -19.059  0.00  0.00    +0.139 C 
ATOM      9  C   UNL     1      34.786 -21.714 -19.023  0.00  0.00    +0.038 C 
ENDROOT
BRANCH   1  10
ATOM     10  S   UNL     1      37.120 -23.172 -15.266  0.00  0.00    +0.081 S 
ATOM     11  O   UNL     1      37.337 -21.740 -15.071  0.00  0.00    -0.149 OA
ATOM     12  O   UNL     1      37.958 -23.936 -16.194  0.00  0.00    -0.149 OA
BRANCH  10  14
ATOM     13 BR   UNL     1      37.232 -26.514 -15.091  0.00  0.00    -0.048 Br
ATOM     14  C   UNL     1      37.264 -23.979 -13.694  0.00  0.00    +0.132 C 
ATOM     15  C   UNL     1      37.313 -25.359 -13.587  0.00  0.00    +0.053 C 
ATOM     16  C   UNL     1      37.326 -23.164 -12.575  0.00  0.00    +0.021 C 
ATOM     17  C   UNL     1      37.427 -25.941 -12.325  0.00  0.00    +0.008 C 
ATOM     18  C   UNL     1      37.439 -23.747 -11.313  0.00  0.00    +0.001 C 
ATOM     19  C   UNL     1      37.490 -25.135 -11.187  0.00  0.00    +0.001 C 
ENDBRANCH  10  14
ENDBRANCH   1  10
BRANCH   8  20
ATOM     20  O   UNL     1      32.671 -21.661 -20.121  0.00  0.00    -0.471 OA
ATOM     21  C   UNL     1      32.854 -20.330 -20.598  0.00  0.00    +0.252 C 
ENDBRANCH   8  20
BRANCH   2  22
ATOM     22  C   UNL     1      32.093 -24.464 -15.298  0.00  0.00    -0.049 C 
BRANCH  22  23
ATOM     23  N   UNL     1      30.976 -23.659 -15.787  0.00  0.00    +0.387 N 
ATOM     24  N   UNL     1      28.203 -22.844 -15.811  0.00  0.00    +0.383 N 
ATOM     25  C   UNL     1      29.937 -24.513 -16.375  0.00  0.00    -0.100 C 
ATOM     26  C   UNL     1      30.415 -22.835 -14.711  0.00  0.00    -0.100 C 
ATOM     27  C   UNL     1      28.764 -23.669 -16.888  0.00  0.00    -0.101 C 
ATOM     28  C   UNL     1      29.244 -21.992 -15.223  0.00  0.00    -0.101 C 
ATOM     29  C   UNL     1      27.087 -22.038 -16.303  0.00  0.00    -0.101 C 
ATOM     30  H   UNL     1      31.332 -23.039 -16.515  0.00  0.00    -0.079 HD
ATOM     31  H   UNL     1      27.847 -23.464 -15.084  0.00  0.00    -0.080 HD
ENDBRANCH  22  23
ENDBRANCH   2  22
TORSDOF 5
ENDMDL
MODEL 8
REMARK VINA RESULT:      -8.4     11.739     16.171
REMARK  Name = 10073773
REMARK  5 active torsions:
REMARK  status: ('A' for Active; 'I' for Inactive)
REMARK    1  A    between atoms: N_1  and  S_10
REMARK    2  A    between atoms: C_2  and  C_22
REMARK    3  A    between atoms: C_8  and  O_20
REMARK    4  A    between atoms: S_10  and  C_14
REMARK    5  A    between atoms: C_22  and  N_23
REMARK                            x       y       z     vdW  Elec       q    Type
REMARK                         _______ _______ _______ _____ _____    ______ ____
ROOT
ATOM      1  N   UNL     1      33.516  -9.357 -23.447  0.00  0.00    -0.168 N 
ATOM      2  C   UNL     1      32.730 -11.398 -23.288  0.00  0.00    -0.025 C 
ATOM      3  C   UNL     1      32.333 -10.711 -22.127  0.00  0.00    +0.014 C 
ATOM      4  C   UNL     1      32.842  -9.415 -22.249  0.00  0.00    +0.074 C 
ATOM      5  C   UNL     1      33.450 -10.565 -24.086  0.00  0.00    +0.083 C 
ATOM      6  C   UNL     1      31.590 -11.042 -20.976  0.00  0.00    +0.038 C 
ATOM      7  C   UNL     1      32.646  -8.432 -21.272  0.00  0.00    +0.020 C 
ATOM      8  C   UNL     1      31.386 -10.069 -19.991  0.00  0.00    +0.139 C 
ATOM      9  C   UNL     1      31.907  -8.784 -20.139  0.00  0.00    +0.038 C 
ENDROOT
BRANCH   1  10
ATOM     10  S   UNL     1      34.304  -8.022 -24.058  0.00  0.00    +0.081 S 
ATOM     11  O   UNL     1      34.873  -8.454 -25.333  0.00  0.00    -0.149 OA
ATOM     12  O   UNL     1      35.162  -7.469 -23.005  0.00  0.00    -0.149 OA
BRANCH  10  14
ATOM     13 BR   UNL     1      34.878  -5.614 -26.312  0.00  0.00    -0.048 Br
ATOM     14  C   UNL     1      33.070  -6.791 -24.384  0.00  0.00    +0.132 C 
ATOM     15  C   UNL     1      33.276  -5.783 -25.309  0.00  0.00    +0.053 C 
ATOM     16  C   UNL     1      31.887  -6.886 -23.668  0.00  0.00    +0.021 C 
ATOM     17  C   UNL     1      32.270  -4.841 -25.526  0.00  0.00    +0.008 C 
ATOM     18  C   UNL     1      30.883  -5.944 -23.884  0.00  0.00    +0.001 C 
ATOM     19  C   UNL     1      31.073  -4.921 -24.814  0.00  0.00    +0.001 C 
ENDBRANCH  10  14
ENDBRANCH   1  10
BRANCH   8  20
ATOM     20  O   UNL     1      30.670 -10.382 -18.875  0.00  0.00    -0.471 OA
ATOM     21  C   UNL     1      31.348 -11.116 -17.857  0.00  0.00    +0.252 C 
ENDBRANCH   8  20
BRANCH   2  22
ATOM     22  C   UNL     1      32.414 -12.834 -23.608  0.00  0.00    -0.049 C 
BRANCH  22  23
ATOM     23  N   UNL     1      33.286 -13.743 -22.867  0.00  0.00    +0.387 N 
ATOM     24  N   UNL     1      34.087 -16.360 -21.937  0.00  0.00    +0.383 N 
ATOM     25  C   UNL     1      32.540 -14.437 -21.811  0.00  0.00    -0.100 C 
ATOM     26  C   UNL     1      33.918 -14.712 -23.770  0.00  0.00    -0.100 C 
ATOM     27  C   UNL     1      33.454 -15.392 -21.034  0.00  0.00    -0.101 C 
ATOM     28  C   UNL     1      34.832 -15.665 -22.994  0.00  0.00    -0.101 C 
ATOM     29  C   UNL     1      34.961 -17.267 -21.195  0.00  0.00    -0.101 C 
ATOM     30  H   UNL     1      34.020 -13.186 -22.429  0.00  0.00    -0.079 HD
ATOM     31  H   UNL     1      33.354 -16.918 -22.376  0.00  0.00    -0.080 HD
ENDBRANCH  22  23
ENDBRANCH   2  22
TORSDOF 5
ENDMDL
MODEL 9
REMARK VINA RESULT:      -8.4      3.330      7.113
REMARK  Name = 10073773
REMARK  5 active torsions:
REMARK  status: ('A' for Active; 'I' for Inactive)
REMARK    1  A    between atoms: N_1  and  S_10
REMARK    2  A    between atoms: C_2  and  C_22
REMARK    3  A    between atoms: C_8  and  O_20
REMARK    4  A    between atoms: S_10  and  C_14
REMARK    5  A    between atoms: C_22  and  N_23
REMARK                            x       y       z     vdW  Elec       q    Type
REMARK                         _______ _______ _______ _____ _____    ______ ____
ROOT
ATOM      1  N   UNL     1      34.390 -22.559 -17.828  0.00  0.00    -0.168 N 
ATOM      2  C   UNL     1      35.658 -22.688 -16.043  0.00  0.00    -0.025 C 
ATOM      3  C   UNL     1      34.366 -23.093 -15.663  0.00  0.00    +0.014 C 
ATOM      4  C   UNL     1      33.576 -23.004 -16.812  0.00  0.00    +0.074 C 
ATOM      5  C   UNL     1      35.663 -22.365 -17.364  0.00  0.00    +0.083 C 
ATOM      6  C   UNL     1      33.770 -23.530 -14.462  0.00  0.00    +0.038 C 
ATOM      7  C   UNL     1      32.215 -23.331 -16.820  0.00  0.00    +0.020 C 
ATOM      8  C   UNL     1      32.410 -23.860 -14.456  0.00  0.00    +0.139 C 
ATOM      9  C   UNL     1      31.647 -23.761 -15.618  0.00  0.00    +0.038 C 
ENDROOT
BRANCH   1  10
ATOM     10  S   UNL     1      33.922 -22.289 -19.405  0.00  0.00    +0.081 S 
ATOM     11  O   UNL     1      32.547 -21.802 -19.325  0.00  0.00    -0.149 OA
ATOM     12  O   UNL     1      34.250 -23.479 -20.195  0.00  0.00    -0.149 OA
BRANCH  10  14
ATOM     13 BR   UNL     1      32.532 -19.625 -20.881  0.00  0.00    -0.048 Br
ATOM     14  C   UNL     1      34.944 -20.983 -20.035  0.00  0.00    +0.132 C 
ATOM     15  C   UNL     1      34.401 -19.869 -20.650  0.00  0.00    +0.053 C 
ATOM     16  C   UNL     1      36.313 -21.131 -19.882  0.00  0.00    +0.021 C 
ATOM     17  C   UNL     1      35.251 -18.872 -21.128  0.00  0.00    +0.008 C 
ATOM     18  C   UNL     1      37.162 -20.134 -20.360  0.00  0.00    +0.001 C 
ATOM     19  C   UNL     1      36.632 -19.004 -20.983  0.00  0.00    +0.001 C 
ENDBRANCH  10  14
ENDBRANCH   1  10
BRANCH   8  20
ATOM     20  O   UNL     1      31.827 -24.283 -13.299  0.00  0.00    -0.471 OA
ATOM     21  C   UNL     1      30.406 -24.409 -13.300  0.00  0.00    +0.252 C 
ENDBRANCH   8  20
BRANCH   2  22
ATOM     22  C   UNL     1      36.858 -22.619 -15.137  0.00  0.00    -0.049 C 
BRANCH  22  23
ATOM     23  N   UNL     1      36.826 -23.686 -14.140  0.00  0.00    +0.387 N 
ATOM     24  N   UNL     1      38.079 -25.573 -12.343  0.00  0.00    +0.383 N 
ATOM     25  C   UNL     1      37.491 -24.893 -14.646  0.00  0.00    -0.100 C 
ATOM     26  C   UNL     1      37.447 -23.247 -12.885  0.00  0.00    -0.100 C 
ATOM     27  C   UNL     1      37.459 -26.013 -13.598  0.00  0.00    -0.101 C 
ATOM     28  C   UNL     1      37.415 -24.365 -11.839  0.00  0.00    -0.101 C 
ATOM     29  C   UNL     1      38.045 -26.640 -11.346  0.00  0.00    -0.101 C 
ATOM     30  H   UNL     1      35.849 -23.912 -13.953  0.00  0.00    -0.079 HD
ATOM     31  H   UNL     1      39.057 -25.347 -12.529  0.00  0.00    -0.080 HD
ENDBRANCH  22  23
ENDBRANCH   2  22
TORSDOF 5
ENDMDL
