MODEL 1
REMARK VINA RESULT:      -6.9      0.000      0.000
REMARK  Name = 65108
REMARK  8 active torsions:
REMARK  status: ('A' for Active; 'I' for Inactive)
REMARK    1  A    between atoms: C_3  and  O_7
REMARK    2  A    between atoms: C_4  and  O_12
REMARK    3  A    between atoms: O_7  and  C_8
REMARK    4  A    between atoms: C_8  and  C_9
REMARK    5  A    between atoms: C_9  and  C_10
REMARK    6  A    between atoms: O_12  and  C_13
REMARK    7  A    between atoms: C_13  and  C_14
REMARK    8  A    between atoms: C_14  and  C_15
REMARK                            x       y       z     vdW  Elec       q    Type
REMARK                         _______ _______ _______ _____ _____    ______ ____
ROOT
ATOM      1  O   UNL     1      34.544 -18.960 -25.106  0.00  0.00    -0.280 OA
ATOM      2  O   UNL     1      34.007 -16.111 -26.075  0.00  0.00    -0.280 OA
ATOM      3  C   UNL     1      35.082 -17.319 -23.284  0.00  0.00    +0.218 C 
ATOM      4  C   UNL     1      34.848 -16.058 -23.706  0.00  0.00    +0.218 C 
ATOM      5  C   UNL     1      34.669 -17.900 -24.551  0.00  0.00    +0.274 C 
ATOM      6  C   UNL     1      34.409 -16.524 -25.020  0.00  0.00    +0.274 C 
ENDROOT
BRANCH   3   7
ATOM      7  O   UNL     1      35.510 -17.833 -22.183  0.00  0.00    -0.469 OA
BRANCH   7   8
ATOM      8  C   UNL     1      34.430 -18.142 -21.313  0.00  0.00    +0.206 C 
BRANCH   8   9
ATOM      9  C   UNL     1      34.123 -19.628 -21.421  0.00  0.00    +0.047 C 
BRANCH   9  10
ATOM     10  C   UNL     1      32.940 -20.025 -20.541  0.00  0.00    +0.004 C 
ATOM     11  C   UNL     1      33.305 -21.156 -19.594  0.00  0.00    +0.000 C 
ENDBRANCH   9  10
ENDBRANCH   8   9
ENDBRANCH   7   8
ENDBRANCH   3   7
BRANCH   4  12
ATOM     12  O   UNL     1      34.958 -14.899 -23.181  0.00  0.00    -0.469 OA
BRANCH  12  13
ATOM     13  C   UNL     1      33.699 -14.409 -22.732  0.00  0.00    +0.206 C 
BRANCH  13  14
ATOM     14  C   UNL     1      33.640 -14.521 -21.215  0.00  0.00    +0.047 C 
BRANCH  14  15
ATOM     15  C   UNL     1      32.489 -13.703 -20.634  0.00  0.00    +0.004 C 
ATOM     16  C   UNL     1      31.961 -12.693 -21.640  0.00  0.00    +0.000 C 
ENDBRANCH  14  15
ENDBRANCH  13  14
ENDBRANCH  12  13
ENDBRANCH   4  12
TORSDOF 8
ENDMDL
MODEL 2
REMARK VINA RESULT:      -6.9      1.007      4.483
REMARK  Name = 65108
REMARK  8 active torsions:
REMARK  status: ('A' for Active; 'I' for Inactive)
REMARK    1  A    between atoms: C_3  and  O_7
REMARK    2  A    between atoms: C_4  and  O_12
REMARK    3  A    between atoms: O_7  and  C_8
REMARK    4  A    between atoms: C_8  and  C_9
REMARK    5  A    between atoms: C_9  and  C_10
REMARK    6  A    between atoms: O_12  and  C_13
REMARK    7  A    between atoms: C_13  and  C_14
REMARK    8  A    between atoms: C_14  and  C_15
REMARK                            x       y       z     vdW  Elec       q    Type
REMARK                         _______ _______ _______ _____ _____    ______ ____
ROOT
ATOM      1  O   UNL     1      33.544 -15.490 -26.465  0.00  0.00    -0.280 OA
ATOM      2  O   UNL     1      34.503 -18.272 -25.636  0.00  0.00    -0.280 OA
ATOM      3  C   UNL     1      34.170 -15.493 -24.034  0.00  0.00    +0.218 C 
ATOM      4  C   UNL     1      34.593 -16.720 -23.661  0.00  0.00    +0.218 C 
ATOM      5  C   UNL     1      33.930 -15.910 -25.406  0.00  0.00    +0.274 C 
ATOM      6  C   UNL     1      34.393 -17.254 -25.006  0.00  0.00    +0.274 C 
ENDROOT
BRANCH   3   7
ATOM      7  O   UNL     1      34.025 -14.369 -23.422  0.00  0.00    -0.469 OA
BRANCH   7   8
ATOM      8  C   UNL     1      32.665 -14.149 -23.074  0.00  0.00    +0.206 C 
BRANCH   8   9
ATOM      9  C   UNL     1      32.604 -13.579 -21.665  0.00  0.00    +0.047 C 
BRANCH   9  10
ATOM     10  C   UNL     1      33.074 -14.594 -20.626  0.00  0.00    +0.004 C 
ATOM     11  C   UNL     1      32.295 -15.896 -20.727  0.00  0.00    +0.000 C 
ENDBRANCH   9  10
ENDBRANCH   8   9
ENDBRANCH   7   8
ENDBRANCH   3   7
BRANCH   4  12
ATOM     12  O   UNL     1      35.010 -17.233 -22.569  0.00  0.00    -0.469 OA
BRANCH  12  13
ATOM     13  C   UNL     1      34.833 -18.646 -22.557  0.00  0.00    +0.206 C 
BRANCH  13  14
ATOM     14  C   UNL     1      34.633 -19.105 -21.119  0.00  0.00    +0.047 C 
BRANCH  14  15
ATOM     15  C   UNL     1      33.239 -19.691 -20.903  0.00  0.00    +0.004 C 
ATOM     16  C   UNL     1      33.258 -20.805 -19.869  0.00  0.00    +0.000 C 
ENDBRANCH  14  15
ENDBRANCH  13  14
ENDBRANCH  12  13
ENDBRANCH   4  12
TORSDOF 8
ENDMDL
MODEL 3
REMARK VINA RESULT:      -6.9      0.721      4.699
REMARK  Name = 65108
REMARK  8 active torsions:
REMARK  status: ('A' for Active; 'I' for Inactive)
REMARK    1  A    between atoms: C_3  and  O_7
REMARK    2  A    between atoms: C_4  and  O_12
REMARK    3  A    between atoms: O_7  and  C_8
REMARK    4  A    between atoms: C_8  and  C_9
REMARK    5  A    between atoms: C_9  and  C_10
REMARK    6  A    between atoms: O_12  and  C_13
REMARK    7  A    between atoms: C_13  and  C_14
REMARK    8  A    between atoms: C_14  and  C_15
REMARK                            x       y       z     vdW  Elec       q    Type
REMARK                         _______ _______ _______ _____ _____    ______ ____
ROOT
ATOM      1  O   UNL     1      34.048 -16.905 -25.930  0.00  0.00    -0.280 OA
ATOM      2  O   UNL     1      34.685 -19.665 -24.780  0.00  0.00    -0.280 OA
ATOM      3  C   UNL     1      35.122 -16.667 -23.674  0.00  0.00    +0.218 C 
ATOM      4  C   UNL     1      35.405 -17.883 -23.159  0.00  0.00    +0.218 C 
ATOM      5  C   UNL     1      34.558 -17.229 -24.890  0.00  0.00    +0.274 C 
ATOM      6  C   UNL     1      34.865 -18.563 -24.335  0.00  0.00    +0.274 C 
ENDROOT
BRANCH   3   7
ATOM      7  O   UNL     1      35.283 -15.458 -23.259  0.00  0.00    -0.469 OA
BRANCH   7   8
ATOM      8  C   UNL     1      34.091 -14.961 -22.667  0.00  0.00    +0.206 C 
BRANCH   8   9
ATOM      9  C   UNL     1      34.269 -14.930 -21.156  0.00  0.00    +0.047 C 
BRANCH   9  10
ATOM     10  C   UNL     1      32.934 -14.770 -20.435  0.00  0.00    +0.004 C 
ATOM     11  C   UNL     1      32.300 -13.420 -20.729  0.00  0.00    +0.000 C 
ENDBRANCH   9  10
ENDBRANCH   8   9
ENDBRANCH   7   8
ENDBRANCH   3   7
BRANCH   4  12
ATOM     12  O   UNL     1      35.936 -18.300 -22.075  0.00  0.00    -0.469 OA
BRANCH  12  13
ATOM     13  C   UNL     1      34.961 -18.472 -21.051  0.00  0.00    +0.206 C 
BRANCH  13  14
ATOM     14  C   UNL     1      34.748 -19.962 -20.821  0.00  0.00    +0.047 C 
BRANCH  14  15
ATOM     15  C   UNL     1      33.307 -20.270 -20.422  0.00  0.00    +0.004 C 
ATOM     16  C   UNL     1      33.233 -21.454 -19.471  0.00  0.00    +0.000 C 
ENDBRANCH  14  15
ENDBRANCH  13  14
ENDBRANCH  12  13
ENDBRANCH   4  12
TORSDOF 8
ENDMDL
MODEL 4
REMARK VINA RESULT:      -6.9      1.073      1.439
REMARK  Name = 65108
REMARK  8 active torsions:
REMARK  status: ('A' for Active; 'I' for Inactive)
REMARK    1  A    between atoms: C_3  and  O_7
REMARK    2  A    between atoms: C_4  and  O_12
REMARK    3  A    between atoms: O_7  and  C_8
REMARK    4  A    between atoms: C_8  and  C_9
REMARK    5  A    between atoms: C_9  and  C_10
REMARK    6  A    between atoms: O_12  and  C_13
REMARK    7  A    between atoms: C_13  and  C_14
REMARK    8  A    between atoms: C_14  and  C_15
REMARK                            x       y       z     vdW  Elec       q    Type
REMARK                         _______ _______ _______ _____ _____    ______ ____
ROOT
ATOM      1  O   UNL     1      34.549 -18.904 -25.022  0.00  0.00    -0.280 OA
ATOM      2  O   UNL     1      33.976 -16.108 -26.118  0.00  0.00    -0.280 OA
ATOM      3  C   UNL     1      35.033 -17.178 -23.265  0.00  0.00    +0.218 C 
ATOM      4  C   UNL     1      34.783 -15.940 -23.743  0.00  0.00    +0.218 C 
ATOM      5  C   UNL     1      34.648 -17.819 -24.511  0.00  0.00    +0.274 C 
ATOM      6  C   UNL     1      34.371 -16.469 -25.041  0.00  0.00    +0.274 C 
ENDROOT
BRANCH   3   7
ATOM      7  O   UNL     1      35.454 -17.636 -22.137  0.00  0.00    -0.469 OA
BRANCH   7   8
ATOM      8  C   UNL     1      34.368 -18.030 -21.311  0.00  0.00    +0.206 C 
BRANCH   8   9
ATOM      9  C   UNL     1      34.385 -19.545 -21.165  0.00  0.00    +0.047 C 
BRANCH   9  10
ATOM     10  C   UNL     1      33.081 -20.069 -20.569  0.00  0.00    +0.004 C 
ATOM     11  C   UNL     1      33.327 -21.245 -19.638  0.00  0.00    +0.000 C 
ENDBRANCH   9  10
ENDBRANCH   8   9
ENDBRANCH   7   8
ENDBRANCH   3   7
BRANCH   4  12
ATOM     12  O   UNL     1      34.867 -14.758 -23.266  0.00  0.00    -0.469 OA
BRANCH  12  13
ATOM     13  C   UNL     1      33.690 -14.403 -22.546  0.00  0.00    +0.206 C 
BRANCH  13  14
ATOM     14  C   UNL     1      32.858 -13.456 -23.399  0.00  0.00    +0.047 C 
BRANCH  14  15
ATOM     15  C   UNL     1      33.737 -12.553 -24.261  0.00  0.00    +0.004 C 
ATOM     16  C   UNL     1      33.548 -11.088 -23.904  0.00  0.00    +0.000 C 
ENDBRANCH  14  15
ENDBRANCH  13  14
ENDBRANCH  12  13
ENDBRANCH   4  12
TORSDOF 8
ENDMDL
MODEL 5
REMARK VINA RESULT:      -6.8      1.231      1.629
REMARK  Name = 65108
REMARK  8 active torsions:
REMARK  status: ('A' for Active; 'I' for Inactive)
REMARK    1  A    between atoms: C_3  and  O_7
REMARK    2  A    between atoms: C_4  and  O_12
REMARK    3  A    between atoms: O_7  and  C_8
REMARK    4  A    between atoms: C_8  and  C_9
REMARK    5  A    between atoms: C_9  and  C_10
REMARK    6  A    between atoms: O_12  and  C_13
REMARK    7  A    between atoms: C_13  and  C_14
REMARK    8  A    between atoms: C_14  and  C_15
REMARK                            x       y       z     vdW  Elec       q    Type
REMARK                         _______ _______ _______ _____ _____    ______ ____
ROOT
ATOM      1  O   UNL     1      34.520 -17.099 -25.822  0.00  0.00    -0.280 OA
ATOM      2  O   UNL     1      32.903 -14.505 -25.765  0.00  0.00    -0.280 OA
ATOM      3  C   UNL     1      34.656 -16.053 -23.544  0.00  0.00    +0.218 C 
ATOM      4  C   UNL     1      33.944 -14.906 -23.512  0.00  0.00    +0.218 C 
ATOM      5  C   UNL     1      34.328 -16.306 -24.937  0.00  0.00    +0.274 C 
ATOM      6  C   UNL     1      33.547 -15.053 -24.910  0.00  0.00    +0.274 C 
ENDROOT
BRANCH   3   7
ATOM      7  O   UNL     1      35.363 -16.695 -22.679  0.00  0.00    -0.469 OA
BRANCH   7   8
ATOM      8  C   UNL     1      34.533 -17.387 -21.756  0.00  0.00    +0.206 C 
BRANCH   8   9
ATOM      9  C   UNL     1      34.471 -18.854 -22.157  0.00  0.00    +0.047 C 
BRANCH   9  10
ATOM     10  C   UNL     1      34.382 -19.768 -20.938  0.00  0.00    +0.004 C 
ATOM     11  C   UNL     1      32.939 -20.109 -20.602  0.00  0.00    +0.000 C 
ENDBRANCH   9  10
ENDBRANCH   8   9
ENDBRANCH   7   8
ENDBRANCH   3   7
BRANCH   4  12
ATOM     12  O   UNL     1      33.700 -14.023 -22.622  0.00  0.00    -0.469 OA
BRANCH  12  13
ATOM     13  C   UNL     1      32.522 -14.339 -21.885  0.00  0.00    +0.206 C 
BRANCH  13  14
ATOM     14  C   UNL     1      32.457 -13.445 -20.655  0.00  0.00    +0.047 C 
BRANCH  14  15
ATOM     15  C   UNL     1      31.738 -12.131 -20.950  0.00  0.00    +0.004 C 
ATOM     16  C   UNL     1      31.549 -11.304 -19.688  0.00  0.00    +0.000 C 
ENDBRANCH  14  15
ENDBRANCH  13  14
ENDBRANCH  12  13
ENDBRANCH   4  12
TORSDOF 8
ENDMDL
MODEL 6
REMARK VINA RESULT:      -6.7      1.712      4.085
REMARK  Name = 65108
REMARK  8 active torsions:
REMARK  status: ('A' for Active; 'I' for Inactive)
REMARK    1  A    between atoms: C_3  and  O_7
REMARK    2  A    between atoms: C_4  and  O_12
REMARK    3  A    between atoms: O_7  and  C_8
REMARK    4  A    between atoms: C_8  and  C_9
REMARK    5  A    between atoms: C_9  and  C_10
REMARK    6  A    between atoms: O_12  and  C_13
REMARK    7  A    between atoms: C_13  and  C_14
REMARK    8  A    between atoms: C_14  and  C_15
REMARK                            x       y       z     vdW  Elec       q    Type
REMARK                         _______ _______ _______ _____ _____    ______ ____
ROOT
ATOM      1  O   UNL     1      32.401 -15.014 -19.685  0.00  0.00    -0.280 OA
ATOM      2  O   UNL     1      32.237 -13.777 -22.475  0.00  0.00    -0.280 OA
ATOM      3  C   UNL     1      34.337 -15.790 -21.083  0.00  0.00    +0.218 C 
ATOM      4  C   UNL     1      34.269 -15.248 -22.318  0.00  0.00    +0.218 C 
ATOM      5  C   UNL     1      33.121 -15.125 -20.642  0.00  0.00    +0.274 C 
ATOM      6  C   UNL     1      33.041 -14.528 -21.991  0.00  0.00    +0.274 C 
ENDROOT
BRANCH   3   7
ATOM      7  O   UNL     1      35.157 -16.593 -20.499  0.00  0.00    -0.469 OA
BRANCH   7   8
ATOM      8  C   UNL     1      35.352 -17.771 -21.269  0.00  0.00    +0.206 C 
BRANCH   8   9
ATOM      9  C   UNL     1      34.096 -18.626 -21.185  0.00  0.00    +0.047 C 
BRANCH   9  10
ATOM     10  C   UNL     1      34.400 -20.023 -20.653  0.00  0.00    +0.004 C 
ATOM     11  C   UNL     1      33.166 -20.669 -20.044  0.00  0.00    +0.000 C 
ENDBRANCH   9  10
ENDBRANCH   8   9
ENDBRANCH   7   8
ENDBRANCH   3   7
BRANCH   4  12
ATOM     12  O   UNL     1      34.986 -15.321 -23.372  0.00  0.00    -0.469 OA
BRANCH  12  13
ATOM     13  C   UNL     1      34.247 -15.854 -24.467  0.00  0.00    +0.206 C 
BRANCH  13  14
ATOM     14  C   UNL     1      34.991 -17.062 -25.021  0.00  0.00    +0.047 C 
BRANCH  14  15
ATOM     15  C   UNL     1      34.101 -18.301 -25.063  0.00  0.00    +0.004 C 
ATOM     16  C   UNL     1      34.849 -19.540 -24.595  0.00  0.00    +0.000 C 
ENDBRANCH  14  15
ENDBRANCH  13  14
ENDBRANCH  12  13
ENDBRANCH   4  12
TORSDOF 8
ENDMDL
MODEL 7
REMARK VINA RESULT:      -6.7      2.402      3.100
REMARK  Name = 65108
REMARK  8 active torsions:
REMARK  status: ('A' for Active; 'I' for Inactive)
REMARK    1  A    between atoms: C_3  and  O_7
REMARK    2  A    between atoms: C_4  and  O_12
REMARK    3  A    between atoms: O_7  and  C_8
REMARK    4  A    between atoms: C_8  and  C_9
REMARK    5  A    between atoms: C_9  and  C_10
REMARK    6  A    between atoms: O_12  and  C_13
REMARK    7  A    between atoms: C_13  and  C_14
REMARK    8  A    between atoms: C_14  and  C_15
REMARK                            x       y       z     vdW  Elec       q    Type
REMARK                         _______ _______ _______ _____ _____    ______ ____
ROOT
ATOM      1  O   UNL     1      34.810 -17.540 -25.623  0.00  0.00    -0.280 OA
ATOM      2  O   UNL     1      32.693 -15.617 -26.700  0.00  0.00    -0.280 OA
ATOM      3  C   UNL     1      34.465 -15.651 -24.006  0.00  0.00    +0.218 C 
ATOM      4  C   UNL     1      33.531 -14.797 -24.477  0.00  0.00    +0.218 C 
ATOM      5  C   UNL     1      34.358 -16.524 -25.163  0.00  0.00    +0.274 C 
ATOM      6  C   UNL     1      33.335 -15.596 -25.684  0.00  0.00    +0.274 C 
ENDROOT
BRANCH   3   7
ATOM      7  O   UNL     1      35.187 -15.692 -22.940  0.00  0.00    -0.469 OA
BRANCH   7   8
ATOM      8  C   UNL     1      34.409 -16.067 -21.812  0.00  0.00    +0.206 C 
BRANCH   8   9
ATOM      9  C   UNL     1      35.066 -17.262 -21.137  0.00  0.00    +0.047 C 
BRANCH   9  10
ATOM     10  C   UNL     1      34.273 -18.545 -21.365  0.00  0.00    +0.004 C 
ATOM     11  C   UNL     1      34.780 -19.305 -22.580  0.00  0.00    +0.000 C 
ENDBRANCH   9  10
ENDBRANCH   8   9
ENDBRANCH   7   8
ENDBRANCH   3   7
BRANCH   4  12
ATOM     12  O   UNL     1      33.009 -13.711 -24.051  0.00  0.00    -0.469 OA
BRANCH  12  13
ATOM     13  C   UNL     1      33.984 -12.683 -23.913  0.00  0.00    +0.206 C 
BRANCH  13  14
ATOM     14  C   UNL     1      33.622 -11.533 -24.842  0.00  0.00    +0.047 C 
BRANCH  14  15
ATOM     15  C   UNL     1      34.592 -10.363 -24.696  0.00  0.00    +0.004 C 
ATOM     16  C   UNL     1      35.587 -10.319 -25.845  0.00  0.00    +0.000 C 
ENDBRANCH  14  15
ENDBRANCH  13  14
ENDBRANCH  12  13
ENDBRANCH   4  12
TORSDOF 8
ENDMDL
MODEL 8
REMARK VINA RESULT:      -6.7      2.371      3.686
REMARK  Name = 65108
REMARK  8 active torsions:
REMARK  status: ('A' for Active; 'I' for Inactive)
REMARK    1  A    between atoms: C_3  and  O_7
REMARK    2  A    between atoms: C_4  and  O_12
REMARK    3  A    between atoms: O_7  and  C_8
REMARK    4  A    between atoms: C_8  and  C_9
REMARK    5  A    between atoms: C_9  and  C_10
REMARK    6  A    between atoms: O_12  and  C_13
REMARK    7  A    between atoms: C_13  and  C_14
REMARK    8  A    between atoms: C_14  and  C_15
REMARK                            x       y       z     vdW  Elec       q    Type
REMARK                         _______ _______ _______ _____ _____    ______ ____
ROOT
ATOM      1  O   UNL     1      34.723 -17.537 -25.696  0.00  0.00    -0.280 OA
ATOM      2  O   UNL     1      32.610 -15.599 -26.755  0.00  0.00    -0.280 OA
ATOM      3  C   UNL     1      34.444 -15.617 -24.102  0.00  0.00    +0.218 C 
ATOM      4  C   UNL     1      33.513 -14.756 -24.564  0.00  0.00    +0.218 C 
ATOM      5  C   UNL     1      34.297 -16.507 -25.242  0.00  0.00    +0.274 C 
ATOM      6  C   UNL     1      33.276 -15.571 -25.754  0.00  0.00    +0.274 C 
ENDROOT
BRANCH   3   7
ATOM      7  O   UNL     1      35.191 -15.653 -23.053  0.00  0.00    -0.469 OA
BRANCH   7   8
ATOM      8  C   UNL     1      34.503 -16.245 -21.959  0.00  0.00    +0.206 C 
BRANCH   8   9
ATOM      9  C   UNL     1      34.349 -15.207 -20.856  0.00  0.00    +0.047 C 
BRANCH   9  10
ATOM     10  C   UNL     1      32.885 -14.994 -20.483  0.00  0.00    +0.004 C 
ATOM     11  C   UNL     1      32.447 -13.562 -20.739  0.00  0.00    +0.000 C 
ENDBRANCH   9  10
ENDBRANCH   8   9
ENDBRANCH   7   8
ENDBRANCH   3   7
BRANCH   4  12
ATOM     12  O   UNL     1      33.017 -13.657 -24.145  0.00  0.00    -0.469 OA
BRANCH  12  13
ATOM     13  C   UNL     1      33.880 -12.558 -24.418  0.00  0.00    +0.206 C 
BRANCH  13  14
ATOM     14  C   UNL     1      33.419 -11.356 -23.606  0.00  0.00    +0.047 C 
BRANCH  14  15
ATOM     15  C   UNL     1      33.975 -10.050 -24.169  0.00  0.00    +0.004 C 
ATOM     16  C   UNL     1      35.144 -10.300 -25.107  0.00  0.00    +0.000 C 
ENDBRANCH  14  15
ENDBRANCH  13  14
ENDBRANCH  12  13
ENDBRANCH   4  12
TORSDOF 8
ENDMDL
MODEL 9
REMARK VINA RESULT:      -6.6      2.456      5.948
REMARK  Name = 65108
REMARK  8 active torsions:
REMARK  status: ('A' for Active; 'I' for Inactive)
REMARK    1  A    between atoms: C_3  and  O_7
REMARK    2  A    between atoms: C_4  and  O_12
REMARK    3  A    between atoms: O_7  and  C_8
REMARK    4  A    between atoms: C_8  and  C_9
REMARK    5  A    between atoms: C_9  and  C_10
REMARK    6  A    between atoms: O_12  and  C_13
REMARK    7  A    between atoms: C_13  and  C_14
REMARK    8  A    between atoms: C_14  and  C_15
REMARK                            x       y       z     vdW  Elec       q    Type
REMARK                         _______ _______ _______ _____ _____    ______ ____
ROOT
ATOM      1  O   UNL     1      32.704 -15.247 -26.595  0.00  0.00    -0.280 OA
ATOM      2  O   UNL     1      34.455 -17.558 -25.627  0.00  0.00    -0.280 OA
ATOM      3  C   UNL     1      33.834 -14.623 -24.442  0.00  0.00    +0.218 C 
ATOM      4  C   UNL     1      34.609 -15.640 -24.009  0.00  0.00    +0.218 C 
ATOM      5  C   UNL     1      33.403 -15.355 -25.622  0.00  0.00    +0.274 C 
ATOM      6  C   UNL     1      34.249 -16.472 -25.155  0.00  0.00    +0.274 C 
ENDROOT
BRANCH   3   7
ATOM      7  O   UNL     1      33.566 -13.445 -23.995  0.00  0.00    -0.469 OA
BRANCH   7   8
ATOM      8  C   UNL     1      33.800 -12.458 -24.989  0.00  0.00    +0.206 C 
BRANCH   8   9
ATOM      9  C   UNL     1      33.604 -11.081 -24.370  0.00  0.00    +0.047 C 
BRANCH   9  10
ATOM     10  C   UNL     1      34.856 -10.219 -24.508  0.00  0.00    +0.004 C 
ATOM     11  C   UNL     1      35.499 -10.385 -25.874  0.00  0.00    +0.000 C 
ENDBRANCH   9  10
ENDBRANCH   8   9
ENDBRANCH   7   8
ENDBRANCH   3   7
BRANCH   4  12
ATOM     12  O   UNL     1      35.367 -15.826 -22.998  0.00  0.00    -0.469 OA
BRANCH  12  13
ATOM     13  C   UNL     1      34.612 -15.956 -21.797  0.00  0.00    +0.206 C 
BRANCH  13  14
ATOM     14  C   UNL     1      35.046 -17.225 -21.078  0.00  0.00    +0.047 C 
BRANCH  14  15
ATOM     15  C   UNL     1      34.201 -18.426 -21.496  0.00  0.00    +0.004 C 
ATOM     16  C   UNL     1      34.946 -19.317 -22.477  0.00  0.00    +0.000 C 
ENDBRANCH  14  15
ENDBRANCH  13  14
ENDBRANCH  12  13
ENDBRANCH   4  12
TORSDOF 8
ENDMDL
