MODEL 1
REMARK VINA RESULT:     -11.0      0.000      0.000
REMARK  Name = 4470790
REMARK  5 active torsions:
REMARK  status: ('A' for Active; 'I' for Inactive)
REMARK    1  A    between atoms: C_4  and  C_16
REMARK    2  A    between atoms: C_12  and  O_14
REMARK    3  A    between atoms: C_16  and  O_17
REMARK    4  A    between atoms: O_17  and  C_18
REMARK    5  A    between atoms: C_23  and  N_26
REMARK                            x       y       z     vdW  Elec       q    Type
REMARK                         _______ _______ _______ _____ _____    ______ ____
ROOT
ATOM      1  O   UNL     1      38.110 -23.242 -15.429  0.00  0.00    -0.283 OA
ATOM      2  O   UNL     1      34.624 -24.981 -11.685  0.00  0.00    -0.285 OA
ATOM      3  N   UNL     1      33.711 -23.857 -14.301  0.00  0.00    -0.326 N 
ATOM      4  C   UNL     1      35.093 -23.124 -15.886  0.00  0.00    +0.038 A 
ATOM      5  C   UNL     1      35.865 -23.584 -14.790  0.00  0.00    +0.062 A 
ATOM      6  C   UNL     1      34.984 -24.030 -13.826  0.00  0.00    +0.102 A 
ATOM      7  C   UNL     1      33.767 -23.305 -15.557  0.00  0.00    +0.037 A 
ATOM      8  C   UNL     1      37.297 -23.628 -14.598  0.00  0.00    +0.231 C 
ATOM      9  C   UNL     1      35.383 -24.575 -12.559  0.00  0.00    +0.215 C 
ATOM     10  C   UNL     1      32.545 -23.001 -16.332  0.00  0.00    +0.050 C 
ATOM     11  C   UNL     1      32.491 -24.198 -13.602  0.00  0.00    +0.130 C 
ATOM     12  C   UNL     1      37.727 -24.197 -13.276  0.00  0.00    +0.181 C 
ATOM     13  C   UNL     1      36.860 -24.629 -12.346  0.00  0.00    +0.084 C 
ENDROOT
BRANCH  12  14
ATOM     14  O   UNL     1      39.086 -24.269 -13.032  0.00  0.00    -0.468 OA
ATOM     15  C   UNL     1      39.632 -25.446 -13.591  0.00  0.00    +0.253 C 
ENDBRANCH  12  14
BRANCH   4  16
ATOM     16  C   UNL     1      35.604 -22.556 -17.150  0.00  0.00    +0.233 C 
BRANCH  16  17
ATOM     17  O   UNL     1      34.715 -22.780 -18.247  0.00  0.00    -0.471 OA
BRANCH  17  18
ATOM     18  C   UNL     1      34.631 -21.782 -19.178  0.00  0.00    +0.139 C 
ATOM     19  C   UNL     1      35.794 -21.246 -19.723  0.00  0.00    +0.039 C 
ATOM     20  C   UNL     1      33.384 -21.310 -19.575  0.00  0.00    +0.039 C 
ATOM     21  C   UNL     1      35.709 -20.228 -20.673  0.00  0.00    +0.027 C 
ATOM     22  C   UNL     1      33.298 -20.291 -20.524  0.00  0.00    +0.027 C 
ATOM     23  C   UNL     1      34.461 -19.751 -21.074  0.00  0.00    +0.143 C 
BRANCH  23  26
ATOM     24  O   UNL     1      34.549 -18.997 -23.251  0.00  0.00    -0.126 OA
ATOM     25  O   UNL     1      34.124 -17.546 -21.660  0.00  0.00    -0.126 OA
ATOM     26  N   UNL     1      34.374 -18.715 -22.041  0.00  0.00    +0.058 N 
ENDBRANCH  23  26
ENDBRANCH  17  18
ENDBRANCH  16  17
ENDBRANCH   4  16
TORSDOF 5
ENDMDL
MODEL 2
REMARK VINA RESULT:     -10.9      1.249      1.634
REMARK  Name = 4470790
REMARK  5 active torsions:
REMARK  status: ('A' for Active; 'I' for Inactive)
REMARK    1  A    between atoms: C_4  and  C_16
REMARK    2  A    between atoms: C_12  and  O_14
REMARK    3  A    between atoms: C_16  and  O_17
REMARK    4  A    between atoms: O_17  and  C_18
REMARK    5  A    between atoms: C_23  and  N_26
REMARK                            x       y       z     vdW  Elec       q    Type
REMARK                         _______ _______ _______ _____ _____    ______ ____
ROOT
ATOM      1  O   UNL     1      36.431 -23.080 -17.025  0.00  0.00    -0.283 OA
ATOM      2  O   UNL     1      34.192 -23.865 -12.170  0.00  0.00    -0.285 OA
ATOM      3  N   UNL     1      32.546 -23.608 -14.653  0.00  0.00    -0.326 N 
ATOM      4  C   UNL     1      33.404 -23.285 -16.682  0.00  0.00    +0.038 A 
ATOM      5  C   UNL     1      34.467 -23.358 -15.748  0.00  0.00    +0.062 A 
ATOM      6  C   UNL     1      33.906 -23.558 -14.503  0.00  0.00    +0.102 A 
ATOM      7  C   UNL     1      32.229 -23.443 -15.979  0.00  0.00    +0.037 A 
ATOM      8  C   UNL     1      35.897 -23.258 -15.937  0.00  0.00    +0.231 C 
ATOM      9  C   UNL     1      34.662 -23.686 -13.289  0.00  0.00    +0.215 C 
ATOM     10  C   UNL     1      30.830 -23.452 -16.455  0.00  0.00    +0.050 C 
ATOM     11  C   UNL     1      31.582 -23.805 -13.591  0.00  0.00    +0.130 C 
ATOM     12  C   UNL     1      36.698 -23.390 -14.674  0.00  0.00    +0.181 C 
ATOM     13  C   UNL     1      36.141 -23.586 -13.467  0.00  0.00    +0.084 C 
ENDROOT
BRANCH  12  14
ATOM     14  O   UNL     1      38.074 -23.304 -14.788  0.00  0.00    -0.468 OA
ATOM     15  C   UNL     1      38.656 -24.592 -14.790  0.00  0.00    +0.253 C 
ENDBRANCH  12  14
BRANCH   4  16
ATOM     16  C   UNL     1      33.521 -23.079 -18.140  0.00  0.00    +0.233 C 
BRANCH  16  17
ATOM     17  O   UNL     1      32.864 -21.886 -18.576  0.00  0.00    -0.471 OA
BRANCH  17  18
ATOM     18  C   UNL     1      33.528 -21.127 -19.500  0.00  0.00    +0.139 C 
ATOM     19  C   UNL     1      34.905 -21.266 -19.648  0.00  0.00    +0.039 C 
ATOM     20  C   UNL     1      32.823 -20.222 -20.286  0.00  0.00    +0.039 C 
ATOM     21  C   UNL     1      35.583 -20.492 -20.590  0.00  0.00    +0.027 C 
ATOM     22  C   UNL     1      33.500 -19.447 -21.228  0.00  0.00    +0.027 C 
ATOM     23  C   UNL     1      34.880 -19.582 -21.380  0.00  0.00    +0.143 C 
BRANCH  23  26
ATOM     24  O   UNL     1      35.034 -18.593 -23.457  0.00  0.00    -0.126 OA
ATOM     25  O   UNL     1      36.693 -18.321 -22.044  0.00  0.00    -0.126 OA
ATOM     26  N   UNL     1      35.569 -18.794 -22.339  0.00  0.00    +0.058 N 
ENDBRANCH  23  26
ENDBRANCH  17  18
ENDBRANCH  16  17
ENDBRANCH   4  16
TORSDOF 5
ENDMDL
MODEL 3
REMARK VINA RESULT:     -10.7      4.734     10.755
REMARK  Name = 4470790
REMARK  5 active torsions:
REMARK  status: ('A' for Active; 'I' for Inactive)
REMARK    1  A    between atoms: C_4  and  C_16
REMARK    2  A    between atoms: C_12  and  O_14
REMARK    3  A    between atoms: C_16  and  O_17
REMARK    4  A    between atoms: O_17  and  C_18
REMARK    5  A    between atoms: C_23  and  N_26
REMARK                            x       y       z     vdW  Elec       q    Type
REMARK                         _______ _______ _______ _____ _____    ______ ____
ROOT
ATOM      1  O   UNL     1      33.712 -14.953 -19.988  0.00  0.00    -0.283 OA
ATOM      2  O   UNL     1      32.480 -13.835 -25.129  0.00  0.00    -0.285 OA
ATOM      3  N   UNL     1      34.084 -16.242 -24.370  0.00  0.00    -0.326 N 
ATOM      4  C   UNL     1      34.625 -16.761 -22.273  0.00  0.00    +0.038 A 
ATOM      5  C   UNL     1      33.867 -15.563 -22.262  0.00  0.00    +0.062 A 
ATOM      6  C   UNL     1      33.547 -15.267 -23.571  0.00  0.00    +0.102 A 
ATOM      7  C   UNL     1      34.743 -17.158 -23.588  0.00  0.00    +0.037 A 
ATOM      8  C   UNL     1      33.447 -14.724 -21.162  0.00  0.00    +0.231 C 
ATOM      9  C   UNL     1      32.780 -14.122 -23.975  0.00  0.00    +0.215 C 
ATOM     10  C   UNL     1      35.427 -18.333 -24.169  0.00  0.00    +0.050 C 
ATOM     11  C   UNL     1      33.979 -16.308 -25.812  0.00  0.00    +0.130 C 
ATOM     12  C   UNL     1      32.644 -13.523 -21.572  0.00  0.00    +0.181 C 
ATOM     13  C   UNL     1      32.338 -13.246 -22.850  0.00  0.00    +0.084 C 
ENDROOT
BRANCH  12  14
ATOM     14  O   UNL     1      32.210 -12.681 -20.565  0.00  0.00    -0.468 OA
ATOM     15  C   UNL     1      31.364 -11.675 -21.085  0.00  0.00    +0.253 C 
ENDBRANCH  12  14
BRANCH   4  16
ATOM     16  C   UNL     1      35.188 -17.462 -21.102  0.00  0.00    +0.233 C 
BRANCH  16  17
ATOM     17  O   UNL     1      35.619 -18.788 -21.416  0.00  0.00    -0.471 OA
BRANCH  17  18
ATOM     18  C   UNL     1      35.044 -19.802 -20.702  0.00  0.00    +0.139 C 
ATOM     19  C   UNL     1      33.658 -19.894 -20.625  0.00  0.00    +0.039 C 
ATOM     20  C   UNL     1      35.849 -20.737 -20.057  0.00  0.00    +0.039 C 
ATOM     21  C   UNL     1      33.070 -20.928 -19.896  0.00  0.00    +0.027 C 
ATOM     22  C   UNL     1      35.262 -21.771 -19.328  0.00  0.00    +0.027 C 
ATOM     23  C   UNL     1      33.873 -21.867 -19.248  0.00  0.00    +0.143 C 
BRANCH  23  26
ATOM     24  O   UNL     1      33.788 -24.065 -18.557  0.00  0.00    -0.126 OA
ATOM     25  O   UNL     1      32.253 -22.679 -17.821  0.00  0.00    -0.126 OA
ATOM     26  N   UNL     1      33.276 -22.921 -18.506  0.00  0.00    +0.058 N 
ENDBRANCH  23  26
ENDBRANCH  17  18
ENDBRANCH  16  17
ENDBRANCH   4  16
TORSDOF 5
ENDMDL
MODEL 4
REMARK VINA RESULT:     -10.6      3.193      6.501
REMARK  Name = 4470790
REMARK  5 active torsions:
REMARK  status: ('A' for Active; 'I' for Inactive)
REMARK    1  A    between atoms: C_4  and  C_16
REMARK    2  A    between atoms: C_12  and  O_14
REMARK    3  A    between atoms: C_16  and  O_17
REMARK    4  A    between atoms: O_17  and  C_18
REMARK    5  A    between atoms: C_23  and  N_26
REMARK                            x       y       z     vdW  Elec       q    Type
REMARK                         _______ _______ _______ _____ _____    ______ ____
ROOT
ATOM      1  O   UNL     1      32.985 -23.849 -16.737  0.00  0.00    -0.283 OA
ATOM      2  O   UNL     1      37.937 -22.004 -15.610  0.00  0.00    -0.285 OA
ATOM      3  N   UNL     1      36.288 -23.460 -13.584  0.00  0.00    -0.326 N 
ATOM      4  C   UNL     1      34.243 -24.247 -13.984  0.00  0.00    +0.038 A 
ATOM      5  C   UNL     1      34.723 -23.617 -15.159  0.00  0.00    +0.062 A 
ATOM      6  C   UNL     1      35.988 -23.140 -14.882  0.00  0.00    +0.102 A 
ATOM      7  C   UNL     1      35.230 -24.136 -13.028  0.00  0.00    +0.037 A 
ATOM      8  C   UNL     1      34.105 -23.442 -16.454  0.00  0.00    +0.231 C 
ATOM      9  C   UNL     1      36.810 -22.437 -15.827  0.00  0.00    +0.215 C 
ATOM     10  C   UNL     1      35.258 -24.616 -11.630  0.00  0.00    +0.050 C 
ATOM     11  C   UNL     1      37.521 -23.144 -12.897  0.00  0.00    +0.130 C 
ATOM     12  C   UNL     1      34.955 -22.707 -17.451  0.00  0.00    +0.181 C 
ATOM     13  C   UNL     1      36.186 -22.249 -17.170  0.00  0.00    +0.084 C 
ENDROOT
BRANCH  12  14
ATOM     14  O   UNL     1      34.421 -22.509 -18.711  0.00  0.00    -0.468 OA
ATOM     15  C   UNL     1      35.287 -21.722 -19.502  0.00  0.00    +0.253 C 
ENDBRANCH  12  14
BRANCH   4  16
ATOM     16  C   UNL     1      32.932 -24.904 -13.805  0.00  0.00    +0.233 C 
BRANCH  16  17
ATOM     17  O   UNL     1      31.940 -24.010 -13.295  0.00  0.00    -0.471 OA
BRANCH  17  18
ATOM     18  C   UNL     1      30.854 -23.783 -14.094  0.00  0.00    +0.139 C 
ATOM     19  C   UNL     1      30.597 -22.497 -14.562  0.00  0.00    +0.039 C 
ATOM     20  C   UNL     1      30.014 -24.838 -14.436  0.00  0.00    +0.039 C 
ATOM     21  C   UNL     1      29.489 -22.265 -15.377  0.00  0.00    +0.027 C 
ATOM     22  C   UNL     1      28.906 -24.606 -15.251  0.00  0.00    +0.027 C 
ATOM     23  C   UNL     1      28.644 -23.319 -15.722  0.00  0.00    +0.143 C 
BRANCH  23  26
ATOM     24  O   UNL     1      26.547 -22.435 -16.090  0.00  0.00    -0.126 OA
ATOM     25  O   UNL     1      27.520 -23.531 -17.725  0.00  0.00    -0.126 OA
ATOM     26  N   UNL     1      27.516 -23.084 -16.552  0.00  0.00    +0.058 N 
ENDBRANCH  23  26
ENDBRANCH  17  18
ENDBRANCH  16  17
ENDBRANCH   4  16
TORSDOF 5
ENDMDL
MODEL 5
REMARK VINA RESULT:     -10.6      3.192      6.498
REMARK  Name = 4470790
REMARK  5 active torsions:
REMARK  status: ('A' for Active; 'I' for Inactive)
REMARK    1  A    between atoms: C_4  and  C_16
REMARK    2  A    between atoms: C_12  and  O_14
REMARK    3  A    between atoms: C_16  and  O_17
REMARK    4  A    between atoms: O_17  and  C_18
REMARK    5  A    between atoms: C_23  and  N_26
REMARK                            x       y       z     vdW  Elec       q    Type
REMARK                         _______ _______ _______ _____ _____    ______ ____
ROOT
ATOM      1  O   UNL     1      32.980 -23.858 -16.714  0.00  0.00    -0.283 OA
ATOM      2  O   UNL     1      37.931 -21.997 -15.608  0.00  0.00    -0.285 OA
ATOM      3  N   UNL     1      36.291 -23.449 -13.572  0.00  0.00    -0.326 N 
ATOM      4  C   UNL     1      34.247 -24.242 -13.963  0.00  0.00    +0.038 A 
ATOM      5  C   UNL     1      34.723 -23.615 -15.142  0.00  0.00    +0.062 A 
ATOM      6  C   UNL     1      35.987 -23.135 -14.870  0.00  0.00    +0.102 A 
ATOM      7  C   UNL     1      35.237 -24.125 -13.010  0.00  0.00    +0.037 A 
ATOM      8  C   UNL     1      34.100 -23.447 -16.436  0.00  0.00    +0.231 C 
ATOM      9  C   UNL     1      36.804 -22.434 -15.820  0.00  0.00    +0.215 C 
ATOM     10  C   UNL     1      35.270 -24.599 -11.610  0.00  0.00    +0.050 C 
ATOM     11  C   UNL     1      37.526 -23.127 -12.889  0.00  0.00    +0.130 C 
ATOM     12  C   UNL     1      34.946 -22.714 -17.438  0.00  0.00    +0.181 C 
ATOM     13  C   UNL     1      36.177 -22.253 -17.162  0.00  0.00    +0.084 C 
ENDROOT
BRANCH  12  14
ATOM     14  O   UNL     1      34.407 -22.522 -18.697  0.00  0.00    -0.468 OA
ATOM     15  C   UNL     1      35.230 -21.669 -19.467  0.00  0.00    +0.253 C 
ENDBRANCH  12  14
BRANCH   4  16
ATOM     16  C   UNL     1      32.939 -24.901 -13.778  0.00  0.00    +0.233 C 
BRANCH  16  17
ATOM     17  O   UNL     1      31.945 -24.006 -13.272  0.00  0.00    -0.471 OA
BRANCH  17  18
ATOM     18  C   UNL     1      30.860 -23.784 -14.074  0.00  0.00    +0.139 C 
ATOM     19  C   UNL     1      30.060 -24.853 -14.468  0.00  0.00    +0.039 C 
ATOM     20  C   UNL     1      30.561 -22.490 -14.490  0.00  0.00    +0.039 C 
ATOM     21  C   UNL     1      28.954 -24.626 -15.287  0.00  0.00    +0.027 C 
ATOM     22  C   UNL     1      29.455 -22.262 -15.308  0.00  0.00    +0.027 C 
ATOM     23  C   UNL     1      28.650 -23.331 -15.706  0.00  0.00    +0.143 C 
BRANCH  23  26
ATOM     24  O   UNL     1      27.526 -23.560 -17.706  0.00  0.00    -0.126 OA
ATOM     25  O   UNL     1      26.557 -22.440 -16.085  0.00  0.00    -0.126 OA
ATOM     26  N   UNL     1      27.524 -23.099 -16.539  0.00  0.00    +0.058 N 
ENDBRANCH  23  26
ENDBRANCH  17  18
ENDBRANCH  16  17
ENDBRANCH   4  16
TORSDOF 5
ENDMDL
MODEL 6
REMARK VINA RESULT:     -10.5      2.980      7.093
REMARK  Name = 4470790
REMARK  5 active torsions:
REMARK  status: ('A' for Active; 'I' for Inactive)
REMARK    1  A    between atoms: C_4  and  C_16
REMARK    2  A    between atoms: C_12  and  O_14
REMARK    3  A    between atoms: C_16  and  O_17
REMARK    4  A    between atoms: O_17  and  C_18
REMARK    5  A    between atoms: C_23  and  N_26
REMARK                            x       y       z     vdW  Elec       q    Type
REMARK                         _______ _______ _______ _____ _____    ______ ____
ROOT
ATOM      1  O   UNL     1      36.688 -22.734 -15.191  0.00  0.00    -0.283 OA
ATOM      2  O   UNL     1      32.320 -22.900 -18.368  0.00  0.00    -0.285 OA
ATOM      3  N   UNL     1      32.236 -23.771 -15.509  0.00  0.00    -0.326 N 
ATOM      4  C   UNL     1      33.996 -23.727 -14.146  0.00  0.00    +0.038 A 
ATOM      5  C   UNL     1      34.397 -23.248 -15.419  0.00  0.00    +0.062 A 
ATOM      6  C   UNL     1      33.288 -23.287 -16.239  0.00  0.00    +0.102 A 
ATOM      7  C   UNL     1      32.657 -24.042 -14.231  0.00  0.00    +0.037 A 
ATOM      8  C   UNL     1      35.682 -22.782 -15.889  0.00  0.00    +0.231 C 
ATOM      9  C   UNL     1      33.289 -22.878 -17.616  0.00  0.00    +0.215 C 
ATOM     10  C   UNL     1      31.740 -24.578 -13.202  0.00  0.00    +0.050 C 
ATOM     11  C   UNL     1      30.887 -23.969 -15.994  0.00  0.00    +0.130 C 
ATOM     12  C   UNL     1      35.695 -22.352 -17.328  0.00  0.00    +0.181 C 
ATOM     13  C   UNL     1      34.609 -22.393 -18.116  0.00  0.00    +0.084 C 
ENDROOT
BRANCH  12  14
ATOM     14  O   UNL     1      36.896 -21.893 -17.838  0.00  0.00    -0.468 OA
ATOM     15  C   UNL     1      36.690 -21.197 -19.050  0.00  0.00    +0.253 C 
ENDBRANCH  12  14
BRANCH   4  16
ATOM     16  C   UNL     1      34.846 -23.866 -12.947  0.00  0.00    +0.233 C 
BRANCH  16  17
ATOM     17  O   UNL     1      35.335 -25.199 -12.776  0.00  0.00    -0.471 OA
BRANCH  17  18
ATOM     18  C   UNL     1      36.585 -25.458 -13.265  0.00  0.00    +0.139 C 
ATOM     19  C   UNL     1      37.702 -24.946 -12.611  0.00  0.00    +0.039 C 
ATOM     20  C   UNL     1      36.733 -26.232 -14.411  0.00  0.00    +0.039 C 
ATOM     21  C   UNL     1      38.978 -25.210 -13.109  0.00  0.00    +0.027 C 
ATOM     22  C   UNL     1      38.009 -26.496 -14.910  0.00  0.00    +0.027 C 
ATOM     23  C   UNL     1      39.132 -25.985 -14.258  0.00  0.00    +0.143 C 
BRANCH  23  26
ATOM     24  O   UNL     1      40.665 -26.040 -15.979  0.00  0.00    -0.126 OA
ATOM     25  O   UNL     1      41.308 -26.700 -13.986  0.00  0.00    -0.126 OA
ATOM     26  N   UNL     1      40.430 -26.255 -14.765  0.00  0.00    +0.058 N 
ENDBRANCH  23  26
ENDBRANCH  17  18
ENDBRANCH  16  17
ENDBRANCH   4  16
TORSDOF 5
ENDMDL
MODEL 7
REMARK VINA RESULT:     -10.5      3.084      7.789
REMARK  Name = 4470790
REMARK  5 active torsions:
REMARK  status: ('A' for Active; 'I' for Inactive)
REMARK    1  A    between atoms: C_4  and  C_16
REMARK    2  A    between atoms: C_12  and  O_14
REMARK    3  A    between atoms: C_16  and  O_17
REMARK    4  A    between atoms: O_17  and  C_18
REMARK    5  A    between atoms: C_23  and  N_26
REMARK                            x       y       z     vdW  Elec       q    Type
REMARK                         _______ _______ _______ _____ _____    ______ ____
ROOT
ATOM      1  O   UNL     1      32.008 -24.174 -13.115  0.00  0.00    -0.283 OA
ATOM      2  O   UNL     1      32.445 -22.702 -18.295  0.00  0.00    -0.285 OA
ATOM      3  N   UNL     1      34.802 -22.748 -16.455  0.00  0.00    -0.326 N 
ATOM      4  C   UNL     1      34.691 -23.345 -14.313  0.00  0.00    +0.038 A 
ATOM      5  C   UNL     1      33.394 -23.440 -14.877  0.00  0.00    +0.062 A 
ATOM      6  C   UNL     1      33.494 -23.065 -16.201  0.00  0.00    +0.102 A 
ATOM      7  C   UNL     1      35.540 -22.917 -15.311  0.00  0.00    +0.037 A 
ATOM      8  C   UNL     1      32.136 -23.836 -14.285  0.00  0.00    +0.231 C 
ATOM      9  C   UNL     1      32.386 -23.029 -17.114  0.00  0.00    +0.215 C 
ATOM     10  C   UNL     1      36.995 -22.653 -15.273  0.00  0.00    +0.050 C 
ATOM     11  C   UNL     1      35.335 -22.307 -17.727  0.00  0.00    +0.130 C 
ATOM     12  C   UNL     1      30.970 -23.803 -15.232  0.00  0.00    +0.181 C 
ATOM     13  C   UNL     1      31.080 -23.438 -16.519  0.00  0.00    +0.084 C 
ENDROOT
BRANCH  12  14
ATOM     14  O   UNL     1      29.737 -24.174 -14.727  0.00  0.00    -0.468 OA
ATOM     15  C   UNL     1      28.758 -24.169 -15.746  0.00  0.00    +0.253 C 
ENDBRANCH  12  14
BRANCH   4  16
ATOM     16  C   UNL     1      35.073 -23.648 -12.919  0.00  0.00    +0.233 C 
BRANCH  16  17
ATOM     17  O   UNL     1      35.483 -25.007 -12.749  0.00  0.00    -0.471 OA
BRANCH  17  18
ATOM     18  C   UNL     1      36.719 -25.336 -13.231  0.00  0.00    +0.139 C 
ATOM     19  C   UNL     1      37.857 -24.776 -12.657  0.00  0.00    +0.039 C 
ATOM     20  C   UNL     1      36.833 -26.230 -14.290  0.00  0.00    +0.039 C 
ATOM     21  C   UNL     1      39.118 -25.111 -13.148  0.00  0.00    +0.027 C 
ATOM     22  C   UNL     1      38.094 -26.566 -14.783  0.00  0.00    +0.027 C 
ATOM     23  C   UNL     1      39.237 -26.007 -14.211  0.00  0.00    +0.143 C 
BRANCH  23  26
ATOM     24  O   UNL     1      40.777 -26.139 -15.922  0.00  0.00    -0.126 OA
ATOM     25  O   UNL     1      41.364 -26.853 -13.930  0.00  0.00    -0.126 OA
ATOM     26  N   UNL     1      40.521 -26.349 -14.711  0.00  0.00    +0.058 N 
ENDBRANCH  23  26
ENDBRANCH  17  18
ENDBRANCH  16  17
ENDBRANCH   4  16
TORSDOF 5
ENDMDL
MODEL 8
REMARK VINA RESULT:     -10.4      2.183      4.699
REMARK  Name = 4470790
REMARK  5 active torsions:
REMARK  status: ('A' for Active; 'I' for Inactive)
REMARK    1  A    between atoms: C_4  and  C_16
REMARK    2  A    between atoms: C_12  and  O_14
REMARK    3  A    between atoms: C_16  and  O_17
REMARK    4  A    between atoms: O_17  and  C_18
REMARK    5  A    between atoms: C_23  and  N_26
REMARK                            x       y       z     vdW  Elec       q    Type
REMARK                         _______ _______ _______ _____ _____    ______ ____
ROOT
ATOM      1  O   UNL     1      31.308 -22.528 -17.956  0.00  0.00    -0.283 OA
ATOM      2  O   UNL     1      31.231 -23.538 -12.648  0.00  0.00    -0.285 OA
ATOM      3  N   UNL     1      33.699 -23.905 -14.297  0.00  0.00    -0.326 N 
ATOM      4  C   UNL     1      33.799 -23.506 -16.485  0.00  0.00    +0.038 A 
ATOM      5  C   UNL     1      32.484 -23.228 -16.034  0.00  0.00    +0.062 A 
ATOM      6  C   UNL     1      32.453 -23.484 -14.679  0.00  0.00    +0.102 A 
ATOM      7  C   UNL     1      34.527 -23.921 -15.391  0.00  0.00    +0.037 A 
ATOM      8  C   UNL     1      31.319 -22.765 -16.754  0.00  0.00    +0.231 C 
ATOM      9  C   UNL     1      31.288 -23.320 -13.854  0.00  0.00    +0.215 C 
ATOM     10  C   UNL     1      35.944 -24.332 -15.293  0.00  0.00    +0.050 C 
ATOM     11  C   UNL     1      34.094 -24.275 -12.955  0.00  0.00    +0.130 C 
ATOM     12  C   UNL     1      30.095 -22.590 -15.902  0.00  0.00    +0.181 C 
ATOM     13  C   UNL     1      30.077 -22.841 -14.582  0.00  0.00    +0.084 C 
ENDROOT
BRANCH  12  14
ATOM     14  O   UNL     1      28.946 -22.146 -16.531  0.00  0.00    -0.468 OA
ATOM     15  C   UNL     1      27.799 -22.505 -15.788  0.00  0.00    +0.253 C 
ENDBRANCH  12  14
BRANCH   4  16
ATOM     16  C   UNL     1      34.305 -23.378 -17.867  0.00  0.00    +0.233 C 
BRANCH  16  17
ATOM     17  O   UNL     1      35.377 -22.438 -17.969  0.00  0.00    -0.471 OA
BRANCH  17  18
ATOM     18  C   UNL     1      35.311 -21.547 -19.004  0.00  0.00    +0.139 C 
ATOM     19  C   UNL     1      36.479 -20.969 -19.494  0.00  0.00    +0.039 C 
ATOM     20  C   UNL     1      34.078 -21.224 -19.562  0.00  0.00    +0.039 C 
ATOM     21  C   UNL     1      36.412 -20.059 -20.550  0.00  0.00    +0.027 C 
ATOM     22  C   UNL     1      34.010 -20.315 -20.617  0.00  0.00    +0.027 C 
ATOM     23  C   UNL     1      35.178 -19.733 -21.112  0.00  0.00    +0.143 C 
BRANCH  23  26
ATOM     24  O   UNL     1      34.741 -19.215 -23.316  0.00  0.00    -0.126 OA
ATOM     25  O   UNL     1      35.420 -17.610 -21.980  0.00  0.00    -0.126 OA
ATOM     26  N   UNL     1      35.109 -18.808 -22.187  0.00  0.00    +0.058 N 
ENDBRANCH  23  26
ENDBRANCH  17  18
ENDBRANCH  16  17
ENDBRANCH   4  16
TORSDOF 5
ENDMDL
MODEL 9
REMARK VINA RESULT:     -10.3      1.931      3.988
REMARK  Name = 4470790
REMARK  5 active torsions:
REMARK  status: ('A' for Active; 'I' for Inactive)
REMARK    1  A    between atoms: C_4  and  C_16
REMARK    2  A    between atoms: C_12  and  O_14
REMARK    3  A    between atoms: C_16  and  O_17
REMARK    4  A    between atoms: O_17  and  C_18
REMARK    5  A    between atoms: C_23  and  N_26
REMARK                            x       y       z     vdW  Elec       q    Type
REMARK                         _______ _______ _______ _____ _____    ______ ____
ROOT
ATOM      1  O   UNL     1      31.518 -23.228 -17.156  0.00  0.00    -0.283 OA
ATOM      2  O   UNL     1      34.046 -24.170 -12.474  0.00  0.00    -0.285 OA
ATOM      3  N   UNL     1      35.511 -23.234 -14.908  0.00  0.00    -0.326 N 
ATOM      4  C   UNL     1      34.531 -22.827 -16.865  0.00  0.00    +0.038 A 
ATOM      5  C   UNL     1      33.541 -23.252 -15.943  0.00  0.00    +0.062 A 
ATOM      6  C   UNL     1      34.177 -23.496 -14.743  0.00  0.00    +0.102 A 
ATOM      7  C   UNL     1      35.737 -22.824 -16.198  0.00  0.00    +0.037 A 
ATOM      8  C   UNL     1      32.117 -23.434 -16.107  0.00  0.00    +0.231 C 
ATOM      9  C   UNL     1      33.509 -23.946 -13.554  0.00  0.00    +0.215 C 
ATOM     10  C   UNL     1      37.089 -22.467 -16.679  0.00  0.00    +0.050 C 
ATOM     11  C   UNL     1      36.532 -23.362 -13.889  0.00  0.00    +0.130 C 
ATOM     12  C   UNL     1      31.407 -23.905 -14.870  0.00  0.00    +0.181 C 
ATOM     13  C   UNL     1      32.037 -24.138 -13.706  0.00  0.00    +0.084 C 
ENDROOT
BRANCH  12  14
ATOM     14  O   UNL     1      30.040 -24.096 -14.961  0.00  0.00    -0.468 OA
ATOM     15  C   UNL     1      29.725 -25.473 -14.912  0.00  0.00    +0.253 C 
ENDBRANCH  12  14
BRANCH   4  16
ATOM     16  C   UNL     1      34.320 -22.453 -18.278  0.00  0.00    +0.233 C 
BRANCH  16  17
ATOM     17  O   UNL     1      35.534 -22.070 -18.928  0.00  0.00    -0.471 OA
BRANCH  17  18
ATOM     18  C   UNL     1      35.467 -20.985 -19.757  0.00  0.00    +0.139 C 
ATOM     19  C   UNL     1      36.630 -20.296 -20.090  0.00  0.00    +0.039 C 
ATOM     20  C   UNL     1      34.237 -20.578 -20.265  0.00  0.00    +0.039 C 
ATOM     21  C   UNL     1      36.562 -19.189 -20.936  0.00  0.00    +0.027 C 
ATOM     22  C   UNL     1      34.168 -19.471 -21.111  0.00  0.00    +0.027 C 
ATOM     23  C   UNL     1      35.331 -18.777 -21.447  0.00  0.00    +0.143 C 
BRANCH  23  26
ATOM     24  O   UNL     1      35.339 -17.829 -23.549  0.00  0.00    -0.126 OA
ATOM     25  O   UNL     1      35.123 -16.508 -21.808  0.00  0.00    -0.126 OA
ATOM     26  N   UNL     1      35.261 -17.651 -22.309  0.00  0.00    +0.058 N 
ENDBRANCH  23  26
ENDBRANCH  17  18
ENDBRANCH  16  17
ENDBRANCH   4  16
TORSDOF 5
ENDMDL
