MODEL 1
REMARK VINA RESULT:      -9.5      0.000      0.000
REMARK  Name = 8269
REMARK  6 active torsions:
REMARK  status: ('A' for Active; 'I' for Inactive)
REMARK    1  A    between atoms: C_3  and  C_12
REMARK    2  A    between atoms: C_3  and  C_22
REMARK    3  A    between atoms: C_17  and  O_18
REMARK    4  A    between atoms: O_18  and  C_20
REMARK    5  A    between atoms: C_27  and  O_28
REMARK    6  A    between atoms: O_28  and  C_30
REMARK                            x       y       z     vdW  Elec       q    Type
REMARK                         _______ _______ _______ _____ _____    ______ ____
ROOT
ATOM      1  O   UNL     1      35.384 -26.246 -16.307  0.00  0.00    -0.274 OA
ATOM      2  N   UNL     1      36.599 -26.165 -14.305  0.00  0.00    -0.283 N 
ATOM      3  C   UNL     1      35.331 -24.203 -14.875  0.00  0.00    +0.126 C 
ATOM      4  C   UNL     1      36.103 -24.066 -13.563  0.00  0.00    +0.006 C 
ATOM      5  C   UNL     1      35.748 -25.665 -15.295  0.00  0.00    +0.237 C 
ATOM      6  C   UNL     1      36.811 -25.237 -13.298  0.00  0.00    +0.047 C 
ATOM      7  C   UNL     1      36.187 -22.995 -12.685  0.00  0.00    -0.002 C 
ATOM      8  C   UNL     1      37.604 -25.396 -12.178  0.00  0.00    +0.014 C 
ATOM      9  C   UNL     1      36.984 -23.130 -11.543  0.00  0.00    -0.000 C 
ATOM     10  C   UNL     1      37.686 -24.321 -11.292  0.00  0.00    +0.001 C 
ATOM     11  H   UNL     1      36.998 -27.065 -14.323  0.00  0.00    +0.155 HD
ENDROOT
BRANCH   3  12
ATOM     12  C   UNL     1      33.853 -24.138 -14.680  0.00  0.00    -0.007 C 
ATOM     13  C   UNL     1      33.222 -25.046 -13.832  0.00  0.00    -0.000 C 
ATOM     14  C   UNL     1      33.105 -23.170 -15.349  0.00  0.00    -0.000 C 
ATOM     15  C   UNL     1      31.840 -24.985 -13.649  0.00  0.00    +0.037 C 
ATOM     16  C   UNL     1      31.723 -23.109 -15.167  0.00  0.00    +0.037 C 
ATOM     17  C   UNL     1      31.090 -24.017 -14.318  0.00  0.00    +0.148 C 
BRANCH  17  18
ATOM     18  O   UNL     1      29.742 -23.958 -14.141  0.00  0.00    -0.424 OA
BRANCH  18  20
ATOM     19  O   UNL     1      28.934 -24.782 -16.178  0.00  0.00    -0.250 OA
ATOM     20  C   UNL     1      29.008 -23.895 -15.337  0.00  0.00    +0.322 C 
ATOM     21  C   UNL     1      28.319 -22.568 -15.448  0.00  0.00    +0.122 C 
ENDBRANCH  18  20
ENDBRANCH  17  18
ENDBRANCH   3  12
BRANCH   3  22
ATOM     22  C   UNL     1      35.787 -23.230 -15.911  0.00  0.00    -0.007 C 
ATOM     23  C   UNL     1      34.995 -22.986 -17.034  0.00  0.00    -0.000 C 
ATOM     24  C   UNL     1      37.004 -22.567 -15.756  0.00  0.00    -0.000 C 
ATOM     25  C   UNL     1      35.422 -22.077 -18.002  0.00  0.00    +0.037 C 
ATOM     26  C   UNL     1      37.430 -21.658 -16.725  0.00  0.00    +0.037 C 
ATOM     27  C   UNL     1      36.639 -21.412 -17.847  0.00  0.00    +0.148 C 
BRANCH  27  28
ATOM     28  O   UNL     1      37.054 -20.526 -18.792  0.00  0.00    -0.424 OA
BRANCH  28  30
ATOM     29  O   UNL     1      36.355 -21.831 -20.605  0.00  0.00    -0.250 OA
ATOM     30  C   UNL     1      36.501 -20.743 -20.065  0.00  0.00    +0.322 C 
ATOM     31  C   UNL     1      36.111 -19.435 -20.686  0.00  0.00    +0.122 C 
ENDBRANCH  28  30
ENDBRANCH  27  28
ENDBRANCH   3  22
TORSDOF 6
ENDMDL
MODEL 2
REMARK VINA RESULT:      -8.0      1.680      6.295
REMARK  Name = 8269
REMARK  6 active torsions:
REMARK  status: ('A' for Active; 'I' for Inactive)
REMARK    1  A    between atoms: C_3  and  C_12
REMARK    2  A    between atoms: C_3  and  C_22
REMARK    3  A    between atoms: C_17  and  O_18
REMARK    4  A    between atoms: O_18  and  C_20
REMARK    5  A    between atoms: C_27  and  O_28
REMARK    6  A    between atoms: O_28  and  C_30
REMARK                            x       y       z     vdW  Elec       q    Type
REMARK                         _______ _______ _______ _____ _____    ______ ____
ROOT
ATOM      1  O   UNL     1      34.857 -21.519 -14.175  0.00  0.00    -0.274 OA
ATOM      2  N   UNL     1      36.211 -23.357 -13.647  0.00  0.00    -0.283 N 
ATOM      3  C   UNL     1      34.754 -23.603 -15.544  0.00  0.00    +0.126 C 
ATOM      4  C   UNL     1      35.595 -24.848 -15.259  0.00  0.00    +0.006 C 
ATOM      5  C   UNL     1      35.250 -22.658 -14.383  0.00  0.00    +0.237 C 
ATOM      6  C   UNL     1      36.411 -24.632 -14.151  0.00  0.00    +0.047 C 
ATOM      7  C   UNL     1      35.625 -26.072 -15.911  0.00  0.00    -0.002 C 
ATOM      8  C   UNL     1      37.277 -25.591 -13.660  0.00  0.00    +0.014 C 
ATOM      9  C   UNL     1      36.493 -27.060 -15.434  0.00  0.00    -0.000 C 
ATOM     10  C   UNL     1      37.312 -26.821 -14.318  0.00  0.00    +0.001 C 
ATOM     11  H   UNL     1      36.686 -22.988 -12.867  0.00  0.00    +0.155 HD
ENDROOT
BRANCH   3  12
ATOM     12  C   UNL     1      35.072 -22.986 -16.865  0.00  0.00    -0.007 C 
ATOM     13  C   UNL     1      36.241 -22.244 -17.023  0.00  0.00    -0.000 C 
ATOM     14  C   UNL     1      34.198 -23.151 -17.938  0.00  0.00    -0.000 C 
ATOM     15  C   UNL     1      36.538 -21.667 -18.259  0.00  0.00    +0.037 C 
ATOM     16  C   UNL     1      34.494 -22.574 -19.173  0.00  0.00    +0.037 C 
ATOM     17  C   UNL     1      35.664 -21.831 -19.333  0.00  0.00    +0.148 C 
BRANCH  17  18
ATOM     18  O   UNL     1      35.954 -21.269 -20.538  0.00  0.00    -0.424 OA
BRANCH  18  20
ATOM     19  O   UNL     1      36.396 -18.971 -20.441  0.00  0.00    -0.250 OA
ATOM     20  C   UNL     1      35.627 -19.906 -20.629  0.00  0.00    +0.322 C 
ATOM     21  C   UNL     1      34.180 -19.747 -20.989  0.00  0.00    +0.122 C 
ENDBRANCH  18  20
ENDBRANCH  17  18
ENDBRANCH   3  12
BRANCH   3  22
ATOM     22  C   UNL     1      33.290 -23.856 -15.399  0.00  0.00    -0.007 C 
ATOM     23  C   UNL     1      32.389 -23.249 -16.274  0.00  0.00    -0.000 C 
ATOM     24  C   UNL     1      32.826 -24.697 -14.389  0.00  0.00    -0.000 C 
ATOM     25  C   UNL     1      31.021 -23.486 -16.139  0.00  0.00    +0.037 C 
ATOM     26  C   UNL     1      31.457 -24.933 -14.254  0.00  0.00    +0.037 C 
ATOM     27  C   UNL     1      30.555 -24.328 -15.129  0.00  0.00    +0.148 C 
BRANCH  27  28
ATOM     28  O   UNL     1      29.220 -24.558 -14.997  0.00  0.00    -0.424 OA
BRANCH  28  30
ATOM     29  O   UNL     1      28.135 -24.540 -17.071  0.00  0.00    -0.250 OA
ATOM     30  C   UNL     1      28.437 -23.994 -16.018  0.00  0.00    +0.322 C 
ATOM     31  C   UNL     1      28.017 -22.606 -15.637  0.00  0.00    +0.122 C 
ENDBRANCH  28  30
ENDBRANCH  27  28
ENDBRANCH   3  22
TORSDOF 6
ENDMDL
