MODEL 1
REMARK VINA RESULT:      -9.1      0.000      0.000
REMARK  Name = 65906
REMARK  3 active torsions:
REMARK  status: ('A' for Active; 'I' for Inactive)
REMARK    1  A    between atoms: N_2  and  C_26
REMARK    2  A    between atoms: C_4  and  N_17
REMARK    3  A    between atoms: C_26  and  C_28
REMARK                            x       y       z     vdW  Elec       q    Type
REMARK                         _______ _______ _______ _____ _____    ______ ____
ROOT
ATOM      1  N   UNL     1      32.684  -7.215 -23.371  0.00  0.00    -0.271 N 
ATOM      2  N   UNL     1      31.994  -5.362 -24.684  0.00  0.00    -0.244 N 
ATOM      3  N   UNL     1      31.777  -5.146 -22.483  0.00  0.00    -0.376 NA
ATOM      4  C   UNL     1      33.704  -9.906 -23.596  0.00  0.00    +0.079 C 
ATOM      5  C   UNL     1      34.423  -8.719 -24.238  0.00  0.00    +0.041 C 
ATOM      6  C   UNL     1      32.204  -9.623 -23.494  0.00  0.00    +0.041 C 
ATOM      7  C   UNL     1      34.134  -7.427 -23.478  0.00  0.00    +0.096 C 
ATOM      8  C   UNL     1      31.927  -8.311 -22.758  0.00  0.00    +0.096 C 
ATOM      9  C   UNL     1      32.163  -5.944 -23.457  0.00  0.00    +0.245 C 
ATOM     10  C   UNL     1      31.466  -4.111 -24.489  0.00  0.00    +0.081 C 
ATOM     11  C   UNL     1      31.340  -4.001 -23.107  0.00  0.00    +0.130 C 
ATOM     12  C   UNL     1      31.099  -3.098 -25.376  0.00  0.00    +0.017 C 
ATOM     13  C   UNL     1      30.818  -2.816 -22.560  0.00  0.00    +0.086 C 
ATOM     14  C   UNL     1      30.582  -1.926 -24.814  0.00  0.00    -0.003 C 
ATOM     15  C   UNL     1      30.444  -1.786 -23.431  0.00  0.00    -0.019 C 
ENDROOT
BRANCH   4  17
ATOM     16  O   UNL     1      32.302 -13.585 -20.815  0.00  0.00    -0.270 OA
ATOM     17  N   UNL     1      33.919 -11.097 -24.386  0.00  0.00    -0.281 N 
ATOM     18  N   UNL     1      33.111 -12.362 -22.608  0.00  0.00    -0.254 N 
ATOM     19  N   UNL     1      33.811 -13.420 -24.593  0.00  0.00    -0.215 NA
ATOM     20  C   UNL     1      34.691 -10.944 -25.613  0.00  0.00    +0.115 C 
ATOM     21  C   UNL     1      33.625 -12.330 -23.900  0.00  0.00    +0.191 C 
ATOM     22  C   UNL     1      32.757 -13.527 -21.953  0.00  0.00    +0.253 C 
ATOM     23  C   UNL     1      33.474 -14.604 -23.989  0.00  0.00    +0.106 C 
ATOM     24  C   UNL     1      32.976 -14.747 -22.757  0.00  0.00    +0.079 C 
ATOM     25  H   UNL     1      32.994 -11.507 -22.133  0.00  0.00    +0.158 HD
ENDBRANCH   4  17
BRANCH   2  26
ATOM     26  C   UNL     1      32.312  -5.949 -25.968  0.00  0.00    +0.126 C 
BRANCH  26  28
ATOM     27  F   UNL     1      36.485  -3.181 -28.519  0.00  0.00    -0.204 F 
ATOM     28  C   UNL     1      33.429  -5.208 -26.651  0.00  0.00    -0.002 C 
ATOM     29  C   UNL     1      33.128  -4.169 -27.521  0.00  0.00    -0.000 C 
ATOM     30  C   UNL     1      34.744  -5.573 -26.401  0.00  0.00    -0.000 C 
ATOM     31  C   UNL     1      34.164  -3.482 -28.154  0.00  0.00    +0.029 C 
ATOM     32  C   UNL     1      35.780  -4.887 -27.034  0.00  0.00    +0.029 C 
ATOM     33  C   UNL     1      35.490  -3.840 -27.911  0.00  0.00    +0.140 C 
ENDBRANCH  26  28
ENDBRANCH   2  26
TORSDOF 3
ENDMDL
MODEL 2
REMARK VINA RESULT:      -8.4      7.325     10.612
REMARK  Name = 65906
REMARK  3 active torsions:
REMARK  status: ('A' for Active; 'I' for Inactive)
REMARK    1  A    between atoms: N_2  and  C_26
REMARK    2  A    between atoms: C_4  and  N_17
REMARK    3  A    between atoms: C_26  and  C_28
REMARK                            x       y       z     vdW  Elec       q    Type
REMARK                         _______ _______ _______ _____ _____    ______ ____
ROOT
ATOM      1  N   UNL     1      34.326 -17.546 -23.828  0.00  0.00    -0.271 N 
ATOM      2  N   UNL     1      34.198 -15.201 -24.174  0.00  0.00    -0.244 N 
ATOM      3  N   UNL     1      33.409 -16.483 -25.808  0.00  0.00    -0.376 NA
ATOM      4  C   UNL     1      35.289 -19.518 -21.953  0.00  0.00    +0.079 C 
ATOM      5  C   UNL     1      34.306 -18.423 -21.534  0.00  0.00    +0.041 C 
ATOM      6  C   UNL     1      36.150 -19.035 -23.122  0.00  0.00    +0.041 C 
ATOM      7  C   UNL     1      33.460 -17.964 -22.718  0.00  0.00    +0.096 C 
ATOM      8  C   UNL     1      35.292 -18.548 -24.290  0.00  0.00    +0.096 C 
ATOM      9  C   UNL     1      33.971 -16.475 -24.618  0.00  0.00    +0.245 C 
ATOM     10  C   UNL     1      33.756 -14.332 -25.139  0.00  0.00    +0.081 C 
ATOM     11  C   UNL     1      33.268 -15.157 -26.149  0.00  0.00    +0.130 C 
ATOM     12  C   UNL     1      33.742 -12.939 -25.213  0.00  0.00    +0.017 C 
ATOM     13  C   UNL     1      32.730 -14.575 -27.309  0.00  0.00    +0.086 C 
ATOM     14  C   UNL     1      33.202 -12.376 -26.375  0.00  0.00    -0.003 C 
ATOM     15  C   UNL     1      32.705 -13.178 -27.404  0.00  0.00    -0.019 C 
ENDROOT
BRANCH   4  17
ATOM     16  O   UNL     1      32.653 -22.450 -19.181  0.00  0.00    -0.270 OA
ATOM     17  N   UNL     1      36.138 -19.870 -20.838  0.00  0.00    -0.281 N 
ATOM     18  N   UNL     1      34.404 -21.170 -19.991  0.00  0.00    -0.254 N 
ATOM     19  N   UNL     1      36.453 -21.028 -18.835  0.00  0.00    -0.215 NA
ATOM     20  C   UNL     1      37.374 -19.112 -20.685  0.00  0.00    +0.115 C 
ATOM     21  C   UNL     1      35.705 -20.696 -19.852  0.00  0.00    +0.191 C 
ATOM     22  C   UNL     1      33.797 -22.018 -19.085  0.00  0.00    +0.253 C 
ATOM     23  C   UNL     1      35.897 -21.870 -17.906  0.00  0.00    +0.106 C 
ATOM     24  C   UNL     1      34.662 -22.380 -17.943  0.00  0.00    +0.079 C 
ATOM     25  H   UNL     1      33.888 -20.883 -20.779  0.00  0.00    +0.158 HD
ENDBRANCH   4  17
BRANCH   2  26
ATOM     26  C   UNL     1      34.798 -14.821 -22.913  0.00  0.00    +0.126 C 
BRANCH  26  28
ATOM     27  F   UNL     1      31.151 -12.055 -19.652  0.00  0.00    -0.204 F 
ATOM     28  C   UNL     1      33.821 -14.080 -22.040  0.00  0.00    -0.002 C 
ATOM     29  C   UNL     1      33.244 -12.907 -22.504  0.00  0.00    -0.000 C 
ATOM     30  C   UNL     1      33.512 -14.581 -20.783  0.00  0.00    -0.000 C 
ATOM     31  C   UNL     1      32.338 -12.221 -21.695  0.00  0.00    +0.029 C 
ATOM     32  C   UNL     1      32.608 -13.895 -19.973  0.00  0.00    +0.029 C 
ATOM     33  C   UNL     1      32.019 -12.715 -20.429  0.00  0.00    +0.140 C 
ENDBRANCH  26  28
ENDBRANCH   2  26
TORSDOF 3
ENDMDL
MODEL 3
REMARK VINA RESULT:      -8.2     12.499     18.059
REMARK  Name = 65906
REMARK  3 active torsions:
REMARK  status: ('A' for Active; 'I' for Inactive)
REMARK    1  A    between atoms: N_2  and  C_26
REMARK    2  A    between atoms: C_4  and  N_17
REMARK    3  A    between atoms: C_26  and  C_28
REMARK                            x       y       z     vdW  Elec       q    Type
REMARK                         _______ _______ _______ _____ _____    ______ ____
ROOT
ATOM      1  N   UNL     1      33.088 -22.535 -18.291  0.00  0.00    -0.271 N 
ATOM      2  N   UNL     1      32.896 -23.021 -15.976  0.00  0.00    -0.244 N 
ATOM      3  N   UNL     1      31.273 -23.792 -17.283  0.00  0.00    -0.376 NA
ATOM      4  C   UNL     1      34.741 -21.119 -20.187  0.00  0.00    +0.079 C 
ATOM      5  C   UNL     1      35.318 -22.194 -19.265  0.00  0.00    +0.041 C 
ATOM      6  C   UNL     1      33.525 -20.459 -19.533  0.00  0.00    +0.041 C 
ATOM      7  C   UNL     1      34.250 -23.215 -18.879  0.00  0.00    +0.096 C 
ATOM      8  C   UNL     1      32.476 -21.494 -19.122  0.00  0.00    +0.096 C 
ATOM      9  C   UNL     1      32.401 -23.115 -17.248  0.00  0.00    +0.245 C 
ATOM     10  C   UNL     1      32.031 -23.677 -15.137  0.00  0.00    +0.081 C 
ATOM     11  C   UNL     1      31.026 -24.149 -15.977  0.00  0.00    +0.130 C 
ATOM     12  C   UNL     1      32.042 -23.892 -13.759  0.00  0.00    +0.017 C 
ATOM     13  C   UNL     1      29.960 -24.880 -15.426  0.00  0.00    +0.086 C 
ATOM     14  C   UNL     1      30.973 -24.622 -13.227  0.00  0.00    -0.003 C 
ATOM     15  C   UNL     1      29.951 -25.109 -14.045  0.00  0.00    -0.019 C 
ENDROOT
BRANCH   4  17
ATOM     16  O   UNL     1      33.482 -19.135 -24.395  0.00  0.00    -0.270 OA
ATOM     17  N   UNL     1      35.746 -20.117 -20.463  0.00  0.00    -0.281 N 
ATOM     18  N   UNL     1      34.625 -19.609 -22.438  0.00  0.00    -0.254 N 
ATOM     19  N   UNL     1      36.591 -18.447 -21.858  0.00  0.00    -0.215 NA
ATOM     20  C   UNL     1      36.938 -20.130 -19.624  0.00  0.00    +0.115 C 
ATOM     21  C   UNL     1      35.696 -19.357 -21.586  0.00  0.00    +0.191 C 
ATOM     22  C   UNL     1      34.415 -18.934 -23.625  0.00  0.00    +0.253 C 
ATOM     23  C   UNL     1      36.428 -17.746 -23.025  0.00  0.00    +0.106 C 
ATOM     24  C   UNL     1      35.440 -17.909 -23.912  0.00  0.00    +0.079 C 
ATOM     25  H   UNL     1      33.982 -20.309 -22.181  0.00  0.00    +0.158 HD
ENDBRANCH   4  17
BRANCH   2  26
ATOM     26  C   UNL     1      34.113 -22.351 -15.570  0.00  0.00    +0.126 C 
BRANCH  26  28
ATOM     27  F   UNL     1      38.342 -25.995 -14.920  0.00  0.00    -0.204 F 
ATOM     28  C   UNL     1      35.245 -23.327 -15.396  0.00  0.00    -0.002 C 
ATOM     29  C   UNL     1      36.554 -22.868 -15.432  0.00  0.00    -0.000 C 
ATOM     30  C   UNL     1      34.965 -24.672 -15.202  0.00  0.00    -0.000 C 
ATOM     31  C   UNL     1      37.605 -23.772 -15.270  0.00  0.00    +0.029 C 
ATOM     32  C   UNL     1      36.014 -25.577 -15.041  0.00  0.00    +0.029 C 
ATOM     33  C   UNL     1      37.335 -25.127 -15.074  0.00  0.00    +0.140 C 
ENDBRANCH  26  28
ENDBRANCH   2  26
TORSDOF 3
ENDMDL
MODEL 4
REMARK VINA RESULT:      -7.9      9.508     13.287
REMARK  Name = 65906
REMARK  3 active torsions:
REMARK  status: ('A' for Active; 'I' for Inactive)
REMARK    1  A    between atoms: N_2  and  C_26
REMARK    2  A    between atoms: C_4  and  N_17
REMARK    3  A    between atoms: C_26  and  C_28
REMARK                            x       y       z     vdW  Elec       q    Type
REMARK                         _______ _______ _______ _____ _____    ______ ____
ROOT
ATOM      1  N   UNL     1      35.009 -20.345 -21.346  0.00  0.00    -0.271 N 
ATOM      2  N   UNL     1      34.807 -18.083 -22.037  0.00  0.00    -0.244 N 
ATOM      3  N   UNL     1      34.772 -19.614 -23.648  0.00  0.00    -0.376 NA
ATOM      4  C   UNL     1      35.405 -21.978 -18.999  0.00  0.00    +0.079 C 
ATOM      5  C   UNL     1      34.246 -20.987 -19.101  0.00  0.00    +0.041 C 
ATOM      6  C   UNL     1      36.582 -21.504 -19.855  0.00  0.00    +0.041 C 
ATOM      7  C   UNL     1      33.843 -20.762 -20.555  0.00  0.00    +0.096 C 
ATOM      8  C   UNL     1      36.160 -21.252 -21.303  0.00  0.00    +0.096 C 
ATOM      9  C   UNL     1      34.867 -19.415 -22.350  0.00  0.00    +0.245 C 
ATOM     10  C   UNL     1      34.665 -17.381 -23.206  0.00  0.00    +0.081 C 
ATOM     11  C   UNL     1      34.646 -18.359 -24.197  0.00  0.00    +0.130 C 
ATOM     12  C   UNL     1      34.555 -16.016 -23.474  0.00  0.00    +0.017 C 
ATOM     13  C   UNL     1      34.511 -17.969 -25.541  0.00  0.00    +0.086 C 
ATOM     14  C   UNL     1      34.421 -15.646 -24.817  0.00  0.00    -0.003 C 
ATOM     15  C   UNL     1      34.398 -16.604 -25.833  0.00  0.00    -0.019 C 
ENDROOT
BRANCH   4  17
ATOM     16  O   UNL     1      31.630 -23.831 -16.644  0.00  0.00    -0.270 OA
ATOM     17  N   UNL     1      35.827 -22.103 -17.622  0.00  0.00    -0.281 N 
ATOM     18  N   UNL     1      33.729 -22.972 -17.111  0.00  0.00    -0.254 N 
ATOM     19  N   UNL     1      35.352 -22.723 -15.421  0.00  0.00    -0.215 NA
ATOM     20  C   UNL     1      37.075 -21.448 -17.252  0.00  0.00    +0.115 C 
ATOM     21  C   UNL     1      34.995 -22.600 -16.671  0.00  0.00    +0.191 C 
ATOM     22  C   UNL     1      32.753 -23.495 -16.284  0.00  0.00    +0.253 C 
ATOM     23  C   UNL     1      34.420 -23.238 -14.558  0.00  0.00    +0.106 C 
ATOM     24  C   UNL     1      33.180 -23.625 -14.875  0.00  0.00    +0.079 C 
ATOM     25  H   UNL     1      33.517 -22.856 -18.066  0.00  0.00    +0.158 HD
ENDBRANCH   4  17
BRANCH   2  26
ATOM     26  C   UNL     1      34.879 -17.505 -20.713  0.00  0.00    +0.126 C 
BRANCH  26  28
ATOM     27  F   UNL     1      31.924 -12.735 -20.393  0.00  0.00    -0.204 F 
ATOM     28  C   UNL     1      34.088 -16.228 -20.627  0.00  0.00    -0.002 C 
ATOM     29  C   UNL     1      32.702 -16.285 -20.581  0.00  0.00    -0.000 C 
ATOM     30  C   UNL     1      34.755 -15.011 -20.595  0.00  0.00    -0.000 C 
ATOM     31  C   UNL     1      31.969 -15.100 -20.501  0.00  0.00    +0.029 C 
ATOM     32  C   UNL     1      34.023 -13.828 -20.515  0.00  0.00    +0.029 C 
ATOM     33  C   UNL     1      32.628 -13.872 -20.468  0.00  0.00    +0.140 C 
ENDBRANCH  26  28
ENDBRANCH   2  26
TORSDOF 3
ENDMDL
MODEL 5
REMARK VINA RESULT:      -7.7     16.405     19.382
REMARK  Name = 65906
REMARK  3 active torsions:
REMARK  status: ('A' for Active; 'I' for Inactive)
REMARK    1  A    between atoms: N_2  and  C_26
REMARK    2  A    between atoms: C_4  and  N_17
REMARK    3  A    between atoms: C_26  and  C_28
REMARK                            x       y       z     vdW  Elec       q    Type
REMARK                         _______ _______ _______ _____ _____    ______ ____
ROOT
ATOM      1  N   UNL     1      34.130 -24.674 -14.845  0.00  0.00    -0.271 N 
ATOM      2  N   UNL     1      36.346 -23.869 -15.116  0.00  0.00    -0.244 N 
ATOM      3  N   UNL     1      36.130 -26.043 -14.711  0.00  0.00    -0.376 NA
ATOM      4  C   UNL     1      31.385 -23.787 -14.749  0.00  0.00    +0.079 C 
ATOM      5  C   UNL     1      32.281 -23.497 -15.954  0.00  0.00    +0.041 C 
ATOM      6  C   UNL     1      32.231 -23.916 -13.481  0.00  0.00    +0.041 C 
ATOM      7  C   UNL     1      33.369 -24.558 -16.096  0.00  0.00    +0.096 C 
ATOM      8  C   UNL     1      33.337 -24.959 -13.645  0.00  0.00    +0.096 C 
ATOM      9  C   UNL     1      35.486 -24.907 -14.879  0.00  0.00    +0.245 C 
ATOM     10  C   UNL     1      37.624 -24.367 -15.099  0.00  0.00    +0.081 C 
ATOM     11  C   UNL     1      37.462 -25.726 -14.844  0.00  0.00    +0.130 C 
ATOM     12  C   UNL     1      38.869 -23.764 -15.280  0.00  0.00    +0.017 C 
ATOM     13  C   UNL     1      38.599 -26.547 -14.760  0.00  0.00    +0.086 C 
ATOM     14  C   UNL     1      39.990 -24.596 -15.193  0.00  0.00    -0.003 C 
ATOM     15  C   UNL     1      39.860 -25.963 -14.939  0.00  0.00    -0.019 C 
ENDROOT
BRANCH   4  17
ATOM     16  O   UNL     1      27.739 -24.851 -17.716  0.00  0.00    -0.270 OA
ATOM     17  N   UNL     1      30.423 -22.721 -14.584  0.00  0.00    -0.281 N 
ATOM     18  N   UNL     1      29.062 -23.773 -16.152  0.00  0.00    -0.254 N 
ATOM     19  N   UNL     1      28.373 -21.755 -15.149  0.00  0.00    -0.215 NA
ATOM     20  C   UNL     1      30.860 -21.547 -13.838  0.00  0.00    +0.115 C 
ATOM     21  C   UNL     1      29.258 -22.706 -15.281  0.00  0.00    +0.191 C 
ATOM     22  C   UNL     1      27.937 -23.922 -16.940  0.00  0.00    +0.253 C 
ATOM     23  C   UNL     1      27.237 -21.856 -15.910  0.00  0.00    +0.106 C 
ATOM     24  C   UNL     1      26.951 -22.835 -16.774  0.00  0.00    +0.079 C 
ATOM     25  H   UNL     1      29.765 -24.460 -16.209  0.00  0.00    +0.158 HD
ENDBRANCH   4  17
BRANCH   2  26
ATOM     26  C   UNL     1      35.987 -22.486 -15.346  0.00  0.00    +0.126 C 
BRANCH  26  28
ATOM     27  F   UNL     1      35.892 -21.270 -20.832  0.00  0.00    -0.204 F 
ATOM     28  C   UNL     1      35.962 -22.161 -16.815  0.00  0.00    -0.002 C 
ATOM     29  C   UNL     1      37.027 -21.475 -17.381  0.00  0.00    -0.000 C 
ATOM     30  C   UNL     1      34.873 -22.550 -17.583  0.00  0.00    -0.000 C 
ATOM     31  C   UNL     1      37.004 -21.174 -18.743  0.00  0.00    +0.029 C 
ATOM     32  C   UNL     1      34.849 -22.248 -18.944  0.00  0.00    +0.029 C 
ATOM     33  C   UNL     1      35.915 -21.560 -19.525  0.00  0.00    +0.140 C 
ENDBRANCH  26  28
ENDBRANCH   2  26
TORSDOF 3
ENDMDL
MODEL 6
REMARK VINA RESULT:      -7.7      2.641      4.599
REMARK  Name = 65906
REMARK  3 active torsions:
REMARK  status: ('A' for Active; 'I' for Inactive)
REMARK    1  A    between atoms: N_2  and  C_26
REMARK    2  A    between atoms: C_4  and  N_17
REMARK    3  A    between atoms: C_26  and  C_28
REMARK                            x       y       z     vdW  Elec       q    Type
REMARK                         _______ _______ _______ _____ _____    ______ ____
ROOT
ATOM      1  N   UNL     1      31.850  -7.911 -22.543  0.00  0.00    -0.271 N 
ATOM      2  N   UNL     1      33.499  -7.148 -24.071  0.00  0.00    -0.244 N 
ATOM      3  N   UNL     1      31.512  -6.160 -24.190  0.00  0.00    -0.376 NA
ATOM      4  C   UNL     1      31.402  -9.872 -20.474  0.00  0.00    +0.079 C 
ATOM      5  C   UNL     1      32.556  -8.871 -20.396  0.00  0.00    +0.041 C 
ATOM      6  C   UNL     1      31.043 -10.151 -21.934  0.00  0.00    +0.041 C 
ATOM      7  C   UNL     1      32.225  -7.592 -21.159  0.00  0.00    +0.096 C 
ATOM      8  C   UNL     1      30.744  -8.861 -22.698  0.00  0.00    +0.096 C 
ATOM      9  C   UNL     1      32.227  -7.077 -23.572  0.00  0.00    +0.245 C 
ATOM     10  C   UNL     1      33.612  -6.221 -25.075  0.00  0.00    +0.081 C 
ATOM     11  C   UNL     1      32.358  -5.617 -25.130  0.00  0.00    +0.130 C 
ATOM     12  C   UNL     1      34.670  -5.868 -25.913  0.00  0.00    +0.017 C 
ATOM     13  C   UNL     1      32.129  -4.600 -26.072  0.00  0.00    +0.086 C 
ATOM     14  C   UNL     1      34.424  -4.854 -26.845  0.00  0.00    -0.003 C 
ATOM     15  C   UNL     1      33.177  -4.229 -26.923  0.00  0.00    -0.019 C 
ENDROOT
BRANCH   4  17
ATOM     16  O   UNL     1      31.999 -13.088 -24.014  0.00  0.00    -0.270 OA
ATOM     17  N   UNL     1      31.777 -11.106 -19.821  0.00  0.00    -0.281 N 
ATOM     18  N   UNL     1      31.895 -12.118 -21.914  0.00  0.00    -0.254 N 
ATOM     19  N   UNL     1      32.365 -13.361 -19.968  0.00  0.00    -0.215 NA
ATOM     20  C   UNL     1      31.632 -11.157 -18.372  0.00  0.00    +0.115 C 
ATOM     21  C   UNL     1      32.026 -12.234 -20.534  0.00  0.00    +0.191 C 
ATOM     22  C   UNL     1      32.108 -13.161 -22.795  0.00  0.00    +0.253 C 
ATOM     23  C   UNL     1      32.589 -14.429 -20.799  0.00  0.00    +0.106 C 
ATOM     24  C   UNL     1      32.491 -14.425 -22.132  0.00  0.00    +0.079 C 
ATOM     25  H   UNL     1      31.635 -11.243 -22.283  0.00  0.00    +0.158 HD
ENDBRANCH   4  17
BRANCH   2  26
ATOM     26  C   UNL     1      34.550  -8.040 -23.629  0.00  0.00    +0.126 C 
BRANCH  26  28
ATOM     27  F   UNL     1      34.967 -12.538 -26.972  0.00  0.00    -0.204 F 
ATOM     28  C   UNL     1      34.662  -9.244 -24.524  0.00  0.00    -0.002 C 
ATOM     29  C   UNL     1      35.568  -9.232 -25.575  0.00  0.00    -0.000 C 
ATOM     30  C   UNL     1      33.857 -10.349 -24.286  0.00  0.00    -0.000 C 
ATOM     31  C   UNL     1      35.672 -10.349 -26.405  0.00  0.00    +0.029 C 
ATOM     32  C   UNL     1      33.960 -11.466 -25.116  0.00  0.00    +0.029 C 
ATOM     33  C   UNL     1      34.868 -11.466 -26.175  0.00  0.00    +0.140 C 
ENDBRANCH  26  28
ENDBRANCH   2  26
TORSDOF 3
ENDMDL
MODEL 7
REMARK VINA RESULT:      -7.5      3.704      9.219
REMARK  Name = 65906
REMARK  3 active torsions:
REMARK  status: ('A' for Active; 'I' for Inactive)
REMARK    1  A    between atoms: N_2  and  C_26
REMARK    2  A    between atoms: C_4  and  N_17
REMARK    3  A    between atoms: C_26  and  C_28
REMARK                            x       y       z     vdW  Elec       q    Type
REMARK                         _______ _______ _______ _____ _____    ______ ____
ROOT
ATOM      1  N   UNL     1      31.983 -12.472 -20.883  0.00  0.00    -0.271 N 
ATOM      2  N   UNL     1      33.484 -14.100 -21.739  0.00  0.00    -0.244 N 
ATOM      3  N   UNL     1      31.811 -14.860 -20.489  0.00  0.00    -0.376 NA
ATOM      4  C   UNL     1      31.538  -9.622 -20.781  0.00  0.00    +0.079 C 
ATOM      5  C   UNL     1      31.669 -10.367 -22.110  0.00  0.00    +0.041 C 
ATOM      6  C   UNL     1      32.322 -10.351 -19.688  0.00  0.00    +0.041 C 
ATOM      7  C   UNL     1      31.234 -11.823 -21.967  0.00  0.00    +0.096 C 
ATOM      8  C   UNL     1      31.900 -11.817 -19.574  0.00  0.00    +0.096 C 
ATOM      9  C   UNL     1      32.374 -13.787 -21.002  0.00  0.00    +0.245 C 
ATOM     10  C   UNL     1      33.648 -15.461 -21.697  0.00  0.00    +0.081 C 
ATOM     11  C   UNL     1      32.592 -15.913 -20.911  0.00  0.00    +0.130 C 
ATOM     12  C   UNL     1      34.601 -16.310 -22.262  0.00  0.00    +0.017 C 
ATOM     13  C   UNL     1      32.462 -17.290 -20.662  0.00  0.00    +0.086 C 
ATOM     14  C   UNL     1      34.456 -17.677 -22.005  0.00  0.00    -0.003 C 
ATOM     15  C   UNL     1      33.407 -18.160 -21.221  0.00  0.00    -0.019 C 
ENDROOT
BRANCH   4  17
ATOM     16  O   UNL     1      30.072  -8.127 -25.123  0.00  0.00    -0.270 OA
ATOM     17  N   UNL     1      32.042  -8.274 -20.921  0.00  0.00    -0.281 N 
ATOM     18  N   UNL     1      31.061  -8.180 -23.030  0.00  0.00    -0.254 N 
ATOM     19  N   UNL     1      32.251  -6.326 -22.192  0.00  0.00    -0.215 NA
ATOM     20  C   UNL     1      33.012  -7.826 -19.930  0.00  0.00    +0.115 C 
ATOM     21  C   UNL     1      31.807  -7.545 -22.042  0.00  0.00    +0.191 C 
ATOM     22  C   UNL     1      30.727  -7.592 -24.235  0.00  0.00    +0.253 C 
ATOM     23  C   UNL     1      31.946  -5.697 -23.372  0.00  0.00    +0.106 C 
ATOM     24  C   UNL     1      31.239  -6.214 -24.382  0.00  0.00    +0.079 C 
ATOM     25  H   UNL     1      30.754  -9.100 -22.860  0.00  0.00    +0.158 HD
ENDBRANCH   4  17
BRANCH   2  26
ATOM     26  C   UNL     1      34.343 -13.172 -22.442  0.00  0.00    +0.126 C 
BRANCH  26  28
ATOM     27  F   UNL     1      32.920 -12.765 -27.864  0.00  0.00    -0.204 F 
ATOM     28  C   UNL     1      33.962 -13.063 -23.894  0.00  0.00    -0.002 C 
ATOM     29  C   UNL     1      34.148 -11.860 -24.561  0.00  0.00    -0.000 C 
ATOM     30  C   UNL     1      33.430 -14.166 -24.546  0.00  0.00    -0.000 C 
ATOM     31  C   UNL     1      33.795 -11.759 -25.907  0.00  0.00    +0.029 C 
ATOM     32  C   UNL     1      33.077 -14.066 -25.891  0.00  0.00    +0.029 C 
ATOM     33  C   UNL     1      33.260 -12.862 -26.573  0.00  0.00    +0.140 C 
ENDBRANCH  26  28
ENDBRANCH   2  26
TORSDOF 3
ENDMDL
MODEL 8
REMARK VINA RESULT:      -7.4      4.041      7.141
REMARK  Name = 65906
REMARK  3 active torsions:
REMARK  status: ('A' for Active; 'I' for Inactive)
REMARK    1  A    between atoms: N_2  and  C_26
REMARK    2  A    between atoms: C_4  and  N_17
REMARK    3  A    between atoms: C_26  and  C_28
REMARK                            x       y       z     vdW  Elec       q    Type
REMARK                         _______ _______ _______ _____ _____    ______ ____
ROOT
ATOM      1  N   UNL     1      33.925 -12.133 -23.324  0.00  0.00    -0.271 N 
ATOM      2  N   UNL     1      32.626 -10.147 -23.371  0.00  0.00    -0.244 N 
ATOM      3  N   UNL     1      34.692  -9.993 -24.175  0.00  0.00    -0.376 NA
ATOM      4  C   UNL     1      33.840 -14.884 -22.456  0.00  0.00    +0.079 C 
ATOM      5  C   UNL     1      32.791 -14.310 -23.409  0.00  0.00    +0.041 C 
ATOM      6  C   UNL     1      34.402 -13.778 -21.561  0.00  0.00    +0.041 C 
ATOM      7  C   UNL     1      33.364 -13.152 -24.221  0.00  0.00    +0.096 C 
ATOM      8  C   UNL     1      34.945 -12.609 -22.384  0.00  0.00    +0.096 C 
ATOM      9  C   UNL     1      33.802 -10.797 -23.632  0.00  0.00    +0.245 C 
ATOM     10  C   UNL     1      32.768  -8.842 -23.769  0.00  0.00    +0.081 C 
ATOM     11  C   UNL     1      34.066  -8.771 -24.267  0.00  0.00    +0.130 C 
ATOM     12  C   UNL     1      31.898  -7.751 -23.737  0.00  0.00    +0.017 C 
ATOM     13  C   UNL     1      34.543  -7.547 -24.767  0.00  0.00    +0.086 C 
ATOM     14  C   UNL     1      32.389  -6.540 -24.239  0.00  0.00    -0.003 C 
ATOM     15  C   UNL     1      33.687  -6.439 -24.746  0.00  0.00    -0.019 C 
ENDROOT
BRANCH   4  17
ATOM     16  O   UNL     1      36.241 -18.928 -23.514  0.00  0.00    -0.270 OA
ATOM     17  N   UNL     1      33.247 -15.917 -21.636  0.00  0.00    -0.281 N 
ATOM     18  N   UNL     1      34.740 -17.442 -22.565  0.00  0.00    -0.254 N 
ATOM     19  N   UNL     1      33.172 -18.149 -20.954  0.00  0.00    -0.215 NA
ATOM     20  C   UNL     1      32.003 -15.583 -20.952  0.00  0.00    +0.115 C 
ATOM     21  C   UNL     1      33.691 -17.199 -21.684  0.00  0.00    +0.191 C 
ATOM     22  C   UNL     1      35.317 -18.684 -22.745  0.00  0.00    +0.253 C 
ATOM     23  C   UNL     1      33.710 -19.402 -21.094  0.00  0.00    +0.106 C 
ATOM     24  C   UNL     1      34.714 -19.743 -21.909  0.00  0.00    +0.079 C 
ATOM     25  H   UNL     1      35.089 -16.685 -23.090  0.00  0.00    +0.158 HD
ENDBRANCH   4  17
BRANCH   2  26
ATOM     26  C   UNL     1      31.437 -10.720 -22.779  0.00  0.00    +0.126 C 
BRANCH  26  28
ATOM     27  F   UNL     1      31.732 -10.725 -17.167  0.00  0.00    -0.204 F 
ATOM     28  C   UNL     1      31.515 -10.721 -21.277  0.00  0.00    -0.002 C 
ATOM     29  C   UNL     1      31.607  -9.515 -20.596  0.00  0.00    -0.000 C 
ATOM     30  C   UNL     1      31.496 -11.928 -20.592  0.00  0.00    -0.000 C 
ATOM     31  C   UNL     1      31.679  -9.516 -19.203  0.00  0.00    +0.029 C 
ATOM     32  C   UNL     1      31.570 -11.930 -19.200  0.00  0.00    +0.029 C 
ATOM     33  C   UNL     1      31.661 -10.724 -18.504  0.00  0.00    +0.140 C 
ENDBRANCH  26  28
ENDBRANCH   2  26
TORSDOF 3
ENDMDL
MODEL 9
REMARK VINA RESULT:      -7.2      3.962      9.156
REMARK  Name = 65906
REMARK  3 active torsions:
REMARK  status: ('A' for Active; 'I' for Inactive)
REMARK    1  A    between atoms: N_2  and  C_26
REMARK    2  A    between atoms: C_4  and  N_17
REMARK    3  A    between atoms: C_26  and  C_28
REMARK                            x       y       z     vdW  Elec       q    Type
REMARK                         _______ _______ _______ _____ _____    ______ ____
ROOT
ATOM      1  N   UNL     1      32.165 -12.682 -21.124  0.00  0.00    -0.271 N 
ATOM      2  N   UNL     1      33.715 -14.210 -22.073  0.00  0.00    -0.244 N 
ATOM      3  N   UNL     1      32.287 -15.046 -20.590  0.00  0.00    -0.376 NA
ATOM      4  C   UNL     1      31.445  -9.887 -21.114  0.00  0.00    +0.079 C 
ATOM      5  C   UNL     1      31.495 -10.699 -22.409  0.00  0.00    +0.041 C 
ATOM      6  C   UNL     1      32.421 -10.467 -20.089  0.00  0.00    +0.041 C 
ATOM      7  C   UNL     1      31.231 -12.177 -22.139  0.00  0.00    +0.096 C 
ATOM      8  C   UNL     1      32.168 -11.956 -19.850  0.00  0.00    +0.096 C 
ATOM      9  C   UNL     1      32.672 -13.958 -21.222  0.00  0.00    +0.245 C 
ATOM     10  C   UNL     1      34.021 -15.543 -21.982  0.00  0.00    +0.081 C 
ATOM     11  C   UNL     1      33.116 -16.043 -21.049  0.00  0.00    +0.130 C 
ATOM     12  C   UNL     1      34.983 -16.331 -22.615  0.00  0.00    +0.017 C 
ATOM     13  C   UNL     1      33.159 -17.408 -20.717  0.00  0.00    +0.086 C 
ATOM     14  C   UNL     1      35.011 -17.687 -22.273  0.00  0.00    -0.003 C 
ATOM     15  C   UNL     1      34.116 -18.218 -21.342  0.00  0.00    -0.019 C 
ENDROOT
BRANCH   4  17
ATOM     16  O   UNL     1      35.070 -10.040 -24.287  0.00  0.00    -0.270 OA
ATOM     17  N   UNL     1      31.787  -8.509 -21.384  0.00  0.00    -0.281 N 
ATOM     18  N   UNL     1      33.438  -9.256 -22.844  0.00  0.00    -0.254 N 
ATOM     19  N   UNL     1      33.110  -6.947 -22.508  0.00  0.00    -0.215 NA
ATOM     20  C   UNL     1      31.198  -7.500 -20.511  0.00  0.00    +0.115 C 
ATOM     21  C   UNL     1      32.782  -8.184 -22.248  0.00  0.00    +0.191 C 
ATOM     22  C   UNL     1      34.474  -9.114 -23.747  0.00  0.00    +0.253 C 
ATOM     23  C   UNL     1      34.133  -6.751 -23.399  0.00  0.00    +0.106 C 
ATOM     24  C   UNL     1      34.827  -7.707 -24.025  0.00  0.00    +0.079 C 
ATOM     25  H   UNL     1      33.147 -10.167 -22.608  0.00  0.00    +0.158 HD
ENDBRANCH   4  17
BRANCH   2  26
ATOM     26  C   UNL     1      34.385 -13.250 -22.923  0.00  0.00    +0.126 C 
BRANCH  26  28
ATOM     27  F   UNL     1      32.377 -13.398 -28.170  0.00  0.00    -0.204 F 
ATOM     28  C   UNL     1      33.848 -13.289 -24.327  0.00  0.00    -0.002 C 
ATOM     29  C   UNL     1      33.972 -12.170 -25.139  0.00  0.00    -0.000 C 
ATOM     30  C   UNL     1      33.234 -14.444 -24.792  0.00  0.00    -0.000 C 
ATOM     31  C   UNL     1      33.474 -12.207 -26.442  0.00  0.00    +0.029 C 
ATOM     32  C   UNL     1      32.736 -14.482 -26.094  0.00  0.00    +0.029 C 
ATOM     33  C   UNL     1      32.856 -13.363 -26.920  0.00  0.00    +0.140 C 
ENDBRANCH  26  28
ENDBRANCH   2  26
TORSDOF 3
ENDMDL
