MODEL 1
REMARK VINA RESULT:      -8.3      0.000      0.000
REMARK  Name = 45101432
REMARK  2 active torsions:
REMARK  status: ('A' for Active; 'I' for Inactive)
REMARK    1  A    between atoms: C_2  and  C_11
REMARK    2  A    between atoms: C_5  and  C_20
REMARK                            x       y       z     vdW  Elec       q    Type
REMARK                         _______ _______ _______ _____ _____    ______ ____
ROOT
ATOM      1  O   UNL     1      36.627 -25.693 -12.114  0.00  0.00    -0.358 OA
ATOM      2  C   UNL     1      35.421 -25.030 -13.931  0.00  0.00    +0.117 C 
ATOM      3  C   UNL     1      35.538 -24.790 -12.425  0.00  0.00    +0.124 C 
ATOM      4  C   UNL     1      37.608 -25.106 -13.008  0.00  0.00    +0.126 C 
ATOM      5  C   UNL     1      36.881 -25.159 -14.354  0.00  0.00    +0.141 C 
ATOM      6  C   UNL     1      36.186 -23.451 -12.063  0.00  0.00    +0.033 C 
ATOM      7  C   UNL     1      37.641 -23.669 -12.487  0.00  0.00    +0.033 C 
ENDROOT
BRANCH   2  11
ATOM      8  O   UNL     1      35.346 -23.168 -15.395  0.00  0.00    -0.275 OA
ATOM      9  N   UNL     1      33.336 -23.800 -14.416  0.00  0.00    -0.284 N 
ATOM     10  N   UNL     1      30.535 -24.086 -14.853  0.00  0.00    +0.388 N 
ATOM     11  C   UNL     1      34.706 -23.914 -14.649  0.00  0.00    +0.228 C 
ATOM     12  C   UNL     1      32.579 -22.709 -15.030  0.00  0.00    +0.071 C 
ATOM     13  C   UNL     1      32.546 -24.668 -13.536  0.00  0.00    +0.071 C 
ATOM     14  C   UNL     1      31.371 -23.241 -15.788  0.00  0.00    -0.055 C 
ATOM     15  C   UNL     1      31.336 -25.230 -14.270  0.00  0.00    -0.055 C 
ATOM     16  C   UNL     1      29.273 -24.568 -15.512  0.00  0.00    -0.101 C 
ATOM     17  H   UNL     1      30.256 -23.488 -14.076  0.00  0.00    -0.080 HD
ENDBRANCH   2  11
BRANCH   5  20
ATOM     18  O   UNL     1      36.216 -26.947 -15.731  0.00  0.00    -0.246 OA
ATOM     19  O   UNL     1      38.203 -27.081 -14.606  0.00  0.00    -0.246 OA
ATOM     20  C   UNL     1      37.122 -26.531 -14.957  0.00  0.00    +0.367 C 
ENDBRANCH   5  20
TORSDOF 2
ENDMDL
MODEL 2
REMARK VINA RESULT:      -8.2      3.027      3.649
REMARK  Name = 45101432
REMARK  2 active torsions:
REMARK  status: ('A' for Active; 'I' for Inactive)
REMARK    1  A    between atoms: C_2  and  C_11
REMARK    2  A    between atoms: C_5  and  C_20
REMARK                            x       y       z     vdW  Elec       q    Type
REMARK                         _______ _______ _______ _____ _____    ______ ____
ROOT
ATOM      1  O   UNL     1      36.095 -25.183 -12.759  0.00  0.00    -0.358 OA
ATOM      2  C   UNL     1      36.687 -24.414 -14.821  0.00  0.00    +0.117 C 
ATOM      3  C   UNL     1      36.168 -23.923 -13.469  0.00  0.00    +0.124 C 
ATOM      4  C   UNL     1      37.492 -25.548 -12.896  0.00  0.00    +0.126 C 
ATOM      5  C   UNL     1      37.686 -25.492 -14.413  0.00  0.00    +0.141 C 
ATOM      6  C   UNL     1      37.224 -23.201 -12.628  0.00  0.00    +0.033 C 
ATOM      7  C   UNL     1      38.165 -24.344 -12.237  0.00  0.00    +0.033 C 
ENDROOT
BRANCH   2  11
ATOM      8  O   UNL     1      38.544 -23.172 -15.611  0.00  0.00    -0.275 OA
ATOM      9  N   UNL     1      36.454 -22.524 -16.393  0.00  0.00    -0.284 N 
ATOM     10  N   UNL     1      35.023 -21.575 -18.666  0.00  0.00    +0.388 N 
ATOM     11  C   UNL     1      37.319 -23.317 -15.639  0.00  0.00    +0.228 C 
ATOM     12  C   UNL     1      36.983 -21.403 -17.171  0.00  0.00    +0.071 C 
ATOM     13  C   UNL     1      34.996 -22.669 -16.448  0.00  0.00    +0.071 C 
ATOM     14  C   UNL     1      36.532 -21.486 -18.622  0.00  0.00    -0.055 C 
ATOM     15  C   UNL     1      34.514 -22.769 -17.889  0.00  0.00    -0.055 C 
ATOM     16  C   UNL     1      34.503 -21.564 -20.076  0.00  0.00    -0.101 C 
ATOM     17  H   UNL     1      34.659 -20.740 -18.208  0.00  0.00    -0.080 HD
ENDBRANCH   2  11
BRANCH   5  20
ATOM     18  O   UNL     1      36.225 -26.804 -15.708  0.00  0.00    -0.246 OA
ATOM     19  O   UNL     1      37.996 -27.805 -14.661  0.00  0.00    -0.246 OA
ATOM     20  C   UNL     1      37.259 -26.831 -14.985  0.00  0.00    +0.367 C 
ENDBRANCH   5  20
TORSDOF 2
ENDMDL
MODEL 3
REMARK VINA RESULT:      -8.0     15.533     17.934
REMARK  Name = 45101432
REMARK  2 active torsions:
REMARK  status: ('A' for Active; 'I' for Inactive)
REMARK    1  A    between atoms: C_2  and  C_11
REMARK    2  A    between atoms: C_5  and  C_20
REMARK                            x       y       z     vdW  Elec       q    Type
REMARK                         _______ _______ _______ _____ _____    ______ ____
ROOT
ATOM      1  O   UNL     1      30.884  -6.870 -22.291  0.00  0.00    -0.358 OA
ATOM      2  C   UNL     1      32.162  -8.758 -22.322  0.00  0.00    +0.117 C 
ATOM      3  C   UNL     1      31.178  -7.970 -23.187  0.00  0.00    +0.124 C 
ATOM      4  C   UNL     1      32.245  -6.391 -22.144  0.00  0.00    +0.126 C 
ATOM      5  C   UNL     1      32.973  -7.648 -21.660  0.00  0.00    +0.141 C 
ATOM      6  C   UNL     1      31.841  -7.209 -24.339  0.00  0.00    +0.033 C 
ATOM      7  C   UNL     1      32.605  -6.106 -23.602  0.00  0.00    +0.033 C 
ENDROOT
BRANCH   2  11
ATOM      8  O   UNL     1      33.997  -9.264 -23.732  0.00  0.00    -0.275 OA
ATOM      9  N   UNL     1      32.639 -11.046 -23.118  0.00  0.00    -0.284 N 
ATOM     10  N   UNL     1      32.621 -13.797 -22.380  0.00  0.00    +0.388 N 
ATOM     11  C   UNL     1      33.019  -9.704 -23.123  0.00  0.00    +0.228 C 
ATOM     12  C   UNL     1      33.386 -12.019 -23.915  0.00  0.00    +0.071 C 
ATOM     13  C   UNL     1      31.484 -11.601 -22.405  0.00  0.00    +0.071 C 
ATOM     14  C   UNL     1      33.830 -13.199 -23.061  0.00  0.00    -0.055 C 
ATOM     15  C   UNL     1      31.898 -12.775 -21.530  0.00  0.00    -0.055 C 
ATOM     16  C   UNL     1      32.974 -15.028 -21.593  0.00  0.00    -0.101 C 
ATOM     17  H   UNL     1      31.976 -14.089 -23.114  0.00  0.00    -0.080 HD
ENDBRANCH   2  11
BRANCH   5  20
ATOM     18  O   UNL     1      33.046  -6.650 -19.531  0.00  0.00    -0.246 OA
ATOM     19  O   UNL     1      32.470  -8.857 -19.712  0.00  0.00    -0.246 OA
ATOM     20  C   UNL     1      32.815  -7.724 -20.153  0.00  0.00    +0.367 C 
ENDBRANCH   5  20
TORSDOF 2
ENDMDL
MODEL 4
REMARK VINA RESULT:      -7.5      1.692      3.234
REMARK  Name = 45101432
REMARK  2 active torsions:
REMARK  status: ('A' for Active; 'I' for Inactive)
REMARK    1  A    between atoms: C_2  and  C_11
REMARK    2  A    between atoms: C_5  and  C_20
REMARK                            x       y       z     vdW  Elec       q    Type
REMARK                         _______ _______ _______ _____ _____    ______ ____
ROOT
ATOM      1  O   UNL     1      38.008 -24.016 -14.566  0.00  0.00    -0.358 OA
ATOM      2  C   UNL     1      36.129 -23.891 -13.282  0.00  0.00    +0.117 C 
ATOM      3  C   UNL     1      36.594 -24.312 -14.677  0.00  0.00    +0.124 C 
ATOM      4  C   UNL     1      38.284 -24.878 -13.433  0.00  0.00    +0.126 C 
ATOM      5  C   UNL     1      37.274 -24.372 -12.398  0.00  0.00    +0.141 C 
ATOM      6  C   UNL     1      36.652 -25.829 -14.876  0.00  0.00    +0.033 C 
ATOM      7  C   UNL     1      37.833 -26.229 -13.987  0.00  0.00    +0.033 C 
ENDROOT
BRANCH   2  11
ATOM      8  O   UNL     1      34.677 -25.013 -11.783  0.00  0.00    -0.275 OA
ATOM      9  N   UNL     1      33.789 -24.437 -13.852  0.00  0.00    -0.284 N 
ATOM     10  N   UNL     1      31.458 -23.493 -15.190  0.00  0.00    +0.388 N 
ATOM     11  C   UNL     1      34.804 -24.500 -12.898  0.00  0.00    +0.228 C 
ATOM     12  C   UNL     1      32.491 -25.054 -13.577  0.00  0.00    +0.071 C 
ATOM     13  C   UNL     1      33.907 -23.835 -15.184  0.00  0.00    +0.071 C 
ATOM     14  C   UNL     1      31.358 -24.060 -13.792  0.00  0.00    -0.055 C 
ATOM     15  C   UNL     1      32.795 -22.824 -15.424  0.00  0.00    -0.055 C 
ATOM     16  C   UNL     1      30.312 -22.572 -15.504  0.00  0.00    -0.101 C 
ATOM     17  H   UNL     1      31.396 -24.277 -15.838  0.00  0.00    -0.080 HD
ENDBRANCH   2  11
BRANCH   5  20
ATOM     18  O   UNL     1      39.163 -23.159 -11.692  0.00  0.00    -0.246 OA
ATOM     19  O   UNL     1      37.075 -22.390 -11.158  0.00  0.00    -0.246 OA
ATOM     20  C   UNL     1      37.900 -23.191 -11.679  0.00  0.00    +0.367 C 
ENDBRANCH   5  20
TORSDOF 2
ENDMDL
MODEL 5
REMARK VINA RESULT:      -7.4      2.509      5.860
REMARK  Name = 45101432
REMARK  2 active torsions:
REMARK  status: ('A' for Active; 'I' for Inactive)
REMARK    1  A    between atoms: C_2  and  C_11
REMARK    2  A    between atoms: C_5  and  C_20
REMARK                            x       y       z     vdW  Elec       q    Type
REMARK                         _______ _______ _______ _____ _____    ______ ____
ROOT
ATOM      1  O   UNL     1      30.716 -22.412 -15.507  0.00  0.00    -0.358 OA
ATOM      2  C   UNL     1      32.725 -23.215 -14.790  0.00  0.00    +0.117 C 
ATOM      3  C   UNL     1      31.366 -22.754 -14.259  0.00  0.00    +0.124 C 
ATOM      4  C   UNL     1      30.831 -23.716 -16.132  0.00  0.00    +0.126 C 
ATOM      5  C   UNL     1      32.338 -23.971 -16.057  0.00  0.00    +0.141 C 
ATOM      6  C   UNL     1      30.466 -23.899 -13.790  0.00  0.00    +0.033 C 
ATOM      7  C   UNL     1      30.101 -24.586 -15.109  0.00  0.00    +0.033 C 
ENDROOT
BRANCH   2  11
ATOM      8  O   UNL     1      32.855 -24.894 -13.124  0.00  0.00    -0.275 OA
ATOM      9  N   UNL     1      34.856 -23.886 -13.738  0.00  0.00    -0.284 N 
ATOM     10  N   UNL     1      37.626 -24.341 -14.222  0.00  0.00    +0.388 N 
ATOM     11  C   UNL     1      33.476 -24.076 -13.807  0.00  0.00    +0.228 C 
ATOM     12  C   UNL     1      35.649 -24.644 -12.770  0.00  0.00    +0.071 C 
ATOM     13  C   UNL     1      35.624 -22.924 -14.535  0.00  0.00    +0.071 C 
ATOM     14  C   UNL     1      36.809 -25.355 -13.453  0.00  0.00    -0.055 C 
ATOM     15  C   UNL     1      36.784 -23.608 -15.243  0.00  0.00    -0.055 C 
ATOM     16  C   UNL     1      38.845 -24.962 -14.845  0.00  0.00    -0.101 C 
ATOM     17  H   UNL     1      37.955 -23.648 -13.550  0.00  0.00    -0.080 HD
ENDBRANCH   2  11
BRANCH   5  20
ATOM     18  O   UNL     1      32.231 -22.531 -17.915  0.00  0.00    -0.246 OA
ATOM     19  O   UNL     1      34.186 -23.632 -17.464  0.00  0.00    -0.246 OA
ATOM     20  C   UNL     1      32.980 -23.313 -17.264  0.00  0.00    +0.367 C 
ENDBRANCH   5  20
TORSDOF 2
ENDMDL
MODEL 6
REMARK VINA RESULT:      -7.2     14.722     17.126
REMARK  Name = 45101432
REMARK  2 active torsions:
REMARK  status: ('A' for Active; 'I' for Inactive)
REMARK    1  A    between atoms: C_2  and  C_11
REMARK    2  A    between atoms: C_5  and  C_20
REMARK                            x       y       z     vdW  Elec       q    Type
REMARK                         _______ _______ _______ _____ _____    ______ ____
ROOT
ATOM      1  O   UNL     1      31.107  -7.596 -22.499  0.00  0.00    -0.358 OA
ATOM      2  C   UNL     1      32.081  -9.652 -22.634  0.00  0.00    +0.117 C 
ATOM      3  C   UNL     1      31.607  -8.497 -23.517  0.00  0.00    +0.124 C 
ATOM      4  C   UNL     1      32.344  -7.462 -21.754  0.00  0.00    +0.126 C 
ATOM      5  C   UNL     1      32.683  -8.921 -21.439  0.00  0.00    +0.141 C 
ATOM      6  C   UNL     1      32.746  -7.650 -24.090  0.00  0.00    +0.033 C 
ATOM      7  C   UNL     1      33.275  -6.933 -22.845  0.00  0.00    +0.033 C 
ENDROOT
BRANCH   2  11
ATOM      8  O   UNL     1      34.020 -10.043 -23.938  0.00  0.00    -0.275 OA
ATOM      9  N   UNL     1      32.855 -11.922 -23.224  0.00  0.00    -0.284 N 
ATOM     10  N   UNL     1      33.126 -14.590 -22.264  0.00  0.00    +0.388 N 
ATOM     11  C   UNL     1      33.075 -10.549 -23.327  0.00  0.00    +0.228 C 
ATOM     12  C   UNL     1      33.743 -12.858 -23.914  0.00  0.00    +0.071 C 
ATOM     13  C   UNL     1      31.743 -12.554 -22.506  0.00  0.00    +0.071 C 
ATOM     14  C   UNL     1      34.285 -13.906 -22.952  0.00  0.00    -0.055 C 
ATOM     15  C   UNL     1      32.254 -13.599 -21.524  0.00  0.00    -0.055 C 
ATOM     16  C   UNL     1      33.588 -15.705 -21.367  0.00  0.00    -0.101 C 
ATOM     17  H   UNL     1      32.551 -15.012 -22.992  0.00  0.00    -0.080 HD
ENDBRANCH   2  11
BRANCH   5  20
ATOM     18  O   UNL     1      31.204 -10.328 -20.268  0.00  0.00    -0.246 OA
ATOM     19  O   UNL     1      32.152  -8.551 -19.183  0.00  0.00    -0.246 OA
ATOM     20  C   UNL     1      31.939  -9.306 -20.173  0.00  0.00    +0.367 C 
ENDBRANCH   5  20
TORSDOF 2
ENDMDL
MODEL 7
REMARK VINA RESULT:      -7.0      1.613      2.405
REMARK  Name = 45101432
REMARK  2 active torsions:
REMARK  status: ('A' for Active; 'I' for Inactive)
REMARK    1  A    between atoms: C_2  and  C_11
REMARK    2  A    between atoms: C_5  and  C_20
REMARK                            x       y       z     vdW  Elec       q    Type
REMARK                         _______ _______ _______ _____ _____    ______ ____
ROOT
ATOM      1  O   UNL     1      37.564 -22.939 -13.395  0.00  0.00    -0.358 OA
ATOM      2  C   UNL     1      35.488 -23.394 -14.218  0.00  0.00    +0.117 C 
ATOM      3  C   UNL     1      36.716 -22.525 -14.494  0.00  0.00    +0.124 C 
ATOM      4  C   UNL     1      37.604 -24.351 -13.721  0.00  0.00    +0.126 C 
ATOM      5  C   UNL     1      36.116 -24.708 -13.765  0.00  0.00    +0.141 C 
ATOM      6  C   UNL     1      37.557 -23.004 -15.679  0.00  0.00    +0.033 C 
ATOM      7  C   UNL     1      38.171 -24.299 -15.140  0.00  0.00    +0.033 C 
ENDROOT
BRANCH   2  11
ATOM      8  O   UNL     1      35.106 -23.920 -16.496  0.00  0.00    -0.275 OA
ATOM      9  N   UNL     1      33.248 -23.293 -15.251  0.00  0.00    -0.284 N 
ATOM     10  N   UNL     1      30.478 -23.793 -14.811  0.00  0.00    +0.388 N 
ATOM     11  C   UNL     1      34.605 -23.561 -15.428  0.00  0.00    +0.228 C 
ATOM     12  C   UNL     1      32.333 -23.377 -16.389  0.00  0.00    +0.071 C 
ATOM     13  C   UNL     1      32.621 -22.864 -13.996  0.00  0.00    +0.071 C 
ATOM     14  C   UNL     1      31.150 -24.283 -16.074  0.00  0.00    -0.055 C 
ATOM     15  C   UNL     1      31.442 -23.760 -13.644  0.00  0.00    -0.055 C 
ATOM     16  C   UNL     1      29.242 -24.587 -14.491  0.00  0.00    -0.101 C 
ATOM     17  H   UNL     1      30.179 -22.833 -14.981  0.00  0.00    -0.080 HD
ENDBRANCH   2  11
BRANCH   5  20
ATOM     18  O   UNL     1      34.575 -24.515 -11.997  0.00  0.00    -0.246 OA
ATOM     19  O   UNL     1      36.467 -25.766 -11.699  0.00  0.00    -0.246 OA
ATOM     20  C   UNL     1      35.675 -25.027 -12.348  0.00  0.00    +0.367 C 
ENDBRANCH   5  20
TORSDOF 2
ENDMDL
MODEL 8
REMARK VINA RESULT:      -6.9      9.356     10.940
REMARK  Name = 45101432
REMARK  2 active torsions:
REMARK  status: ('A' for Active; 'I' for Inactive)
REMARK    1  A    between atoms: C_2  and  C_11
REMARK    2  A    between atoms: C_5  and  C_20
REMARK                            x       y       z     vdW  Elec       q    Type
REMARK                         _______ _______ _______ _____ _____    ______ ____
ROOT
ATOM      1  O   UNL     1      35.800 -19.252 -19.640  0.00  0.00    -0.358 OA
ATOM      2  C   UNL     1      34.707 -18.804 -21.590  0.00  0.00    +0.117 C 
ATOM      3  C   UNL     1      36.044 -18.560 -20.889  0.00  0.00    +0.124 C 
ATOM      4  C   UNL     1      35.522 -20.557 -20.210  0.00  0.00    +0.126 C 
ATOM      5  C   UNL     1      34.387 -20.240 -21.188  0.00  0.00    +0.141 C 
ATOM      6  C   UNL     1      37.195 -19.403 -21.444  0.00  0.00    +0.033 C 
ATOM      7  C   UNL     1      36.818 -20.812 -20.978  0.00  0.00    +0.033 C 
ENDROOT
BRANCH   2  11
ATOM      8  O   UNL     1      34.837 -19.621 -23.810  0.00  0.00    -0.275 OA
ATOM      9  N   UNL     1      34.798 -17.312 -23.555  0.00  0.00    -0.284 N 
ATOM     10  N   UNL     1      33.807 -14.877 -24.653  0.00  0.00    +0.388 N 
ATOM     11  C   UNL     1      34.788 -18.625 -23.085  0.00  0.00    +0.228 C 
ATOM     12  C   UNL     1      34.930 -17.052 -24.989  0.00  0.00    +0.071 C 
ATOM     13  C   UNL     1      34.740 -16.107 -22.721  0.00  0.00    +0.071 C 
ATOM     14  C   UNL     1      33.815 -16.140 -25.484  0.00  0.00    -0.055 C 
ATOM     15  C   UNL     1      33.624 -15.180 -23.182  0.00  0.00    -0.055 C 
ATOM     16  C   UNL     1      32.789 -13.888 -25.149  0.00  0.00    -0.101 C 
ATOM     17  H   UNL     1      34.722 -14.441 -24.759  0.00  0.00    -0.080 HD
ENDBRANCH   2  11
BRANCH   5  20
ATOM     18  O   UNL     1      32.329 -19.279 -20.574  0.00  0.00    -0.246 OA
ATOM     19  O   UNL     1      32.920 -21.309 -19.701  0.00  0.00    -0.246 OA
ATOM     20  C   UNL     1      33.083 -20.278 -20.412  0.00  0.00    +0.367 C 
ENDBRANCH   5  20
TORSDOF 2
ENDMDL
MODEL 9
REMARK VINA RESULT:      -6.9      7.818     10.088
REMARK  Name = 45101432
REMARK  2 active torsions:
REMARK  status: ('A' for Active; 'I' for Inactive)
REMARK    1  A    between atoms: C_2  and  C_11
REMARK    2  A    between atoms: C_5  and  C_20
REMARK                            x       y       z     vdW  Elec       q    Type
REMARK                         _______ _______ _______ _____ _____    ______ ____
ROOT
ATOM      1  O   UNL     1      33.604 -17.390 -23.185  0.00  0.00    -0.358 OA
ATOM      2  C   UNL     1      34.506 -18.304 -21.302  0.00  0.00    +0.117 C 
ATOM      3  C   UNL     1      34.096 -18.674 -22.728  0.00  0.00    +0.124 C 
ATOM      4  C   UNL     1      34.827 -16.641 -22.966  0.00  0.00    +0.126 C 
ATOM      5  C   UNL     1      35.104 -16.914 -21.485  0.00  0.00    +0.141 C 
ATOM      6  C   UNL     1      35.279 -18.863 -23.681  0.00  0.00    +0.033 C 
ATOM      7  C   UNL     1      35.803 -17.433 -23.836  0.00  0.00    +0.033 C 
ENDROOT
BRANCH   2  11
ATOM      8  O   UNL     1      36.666 -18.953 -20.576  0.00  0.00    -0.275 OA
ATOM      9  N   UNL     1      34.971 -20.521 -20.318  0.00  0.00    -0.284 N 
ATOM     10  N   UNL     1      33.935 -22.553 -18.612  0.00  0.00    +0.388 N 
ATOM     11  C   UNL     1      35.484 -19.282 -20.702  0.00  0.00    +0.228 C 
ATOM     12  C   UNL     1      35.865 -21.546 -19.779  0.00  0.00    +0.071 C 
ATOM     13  C   UNL     1      33.573 -20.944 -20.454  0.00  0.00    +0.071 C 
ATOM     14  C   UNL     1      35.356 -22.066 -18.442  0.00  0.00    -0.055 C 
ATOM     15  C   UNL     1      33.029 -21.456 -19.128  0.00  0.00    -0.055 C 
ATOM     16  C   UNL     1      33.400 -23.169 -17.349  0.00  0.00    -0.101 C 
ATOM     17  H   UNL     1      33.950 -23.288 -19.318  0.00  0.00    -0.080 HD
ENDBRANCH   2  11
BRANCH   5  20
ATOM     18  O   UNL     1      33.072 -16.112 -20.612  0.00  0.00    -0.246 OA
ATOM     19  O   UNL     1      35.008 -14.980 -20.160  0.00  0.00    -0.246 OA
ATOM     20  C   UNL     1      34.316 -15.903 -20.673  0.00  0.00    +0.367 C 
ENDBRANCH   5  20
TORSDOF 2
ENDMDL
