MODEL 1
REMARK VINA RESULT:      -5.2      0.000      0.000
REMARK  Name = 49791979
REMARK  5 active torsions:
REMARK  status: ('A' for Active; 'I' for Inactive)
REMARK    1  A    between atoms: CA_1  and  N_2
REMARK    2  A    between atoms: CA_1  and  C_8
REMARK    3  A    between atoms: CA_1  and  C_9
REMARK    4  A    between atoms: C_9  and  C_10
REMARK    5  A    between atoms: C_10  and  C_12
REMARK                            x       y       z     vdW  Elec       q    Type
REMARK                         _______ _______ _______ _____ _____    ______ ____
ROOT
ATOM      1  CA  UNL     1      38.709 -25.273 -14.372  0.00  0.00    +0.041 C 
ENDROOT
BRANCH   1   2
ATOM      2  N   UNL     1      37.796 -25.967 -15.333  0.00  0.00    +0.389 N 
ATOM      3  H1  UNL     1      37.826 -25.491 -16.235  0.00  0.00    -0.088 HD
ATOM      4  H2  UNL     1      36.842 -25.946 -14.971  0.00  0.00    -0.088 HD
ATOM      5  H3  UNL     1      38.095 -26.935 -15.448  0.00  0.00    -0.088 HD
ENDBRANCH   1   2
BRANCH   1   8
ATOM      6  O   UNL     1      40.966 -24.557 -14.151  0.00  0.00    -0.248 OA
ATOM      7  OXT UNL     1      40.470 -26.179 -15.674  0.00  0.00    -0.248 OA
ATOM      8  C   UNL     1      40.196 -25.348 -14.763  0.00  0.00    +0.345 C 
ENDBRANCH   1   8
BRANCH   1   9
ATOM      9  C   UNL     1      38.380 -25.745 -12.951  0.00  0.00    -0.003 C 
BRANCH   9  10
ATOM     10  C   UNL     1      37.298 -24.924 -12.247  0.00  0.00    +0.071 C 
BRANCH  10  12
ATOM     11  O   UNL     1      38.670 -23.016 -11.629  0.00  0.00    -0.288 OA
ATOM     12  C   UNL     1      37.655 -23.458 -12.157  0.00  0.00    +0.207 C 
ENDBRANCH  10  12
ENDBRANCH   9  10
ENDBRANCH   1   9
TORSDOF 5
ENDMDL
MODEL 2
REMARK VINA RESULT:      -5.0      9.215     10.000
REMARK  Name = 49791979
REMARK  5 active torsions:
REMARK  status: ('A' for Active; 'I' for Inactive)
REMARK    1  A    between atoms: CA_1  and  N_2
REMARK    2  A    between atoms: CA_1  and  C_8
REMARK    3  A    between atoms: CA_1  and  C_9
REMARK    4  A    between atoms: C_9  and  C_10
REMARK    5  A    between atoms: C_10  and  C_12
REMARK                            x       y       z     vdW  Elec       q    Type
REMARK                         _______ _______ _______ _____ _____    ______ ____
ROOT
ATOM      1  CA  UNL     1      29.082 -23.435 -15.621  0.00  0.00    +0.041 C 
ENDROOT
BRANCH   1   2
ATOM      2  N   UNL     1      28.854 -24.824 -15.114  0.00  0.00    +0.389 N 
ATOM      3  H1  UNL     1      29.539 -25.037 -14.388  0.00  0.00    -0.088 HD
ATOM      4  H2  UNL     1      28.956 -25.488 -15.881  0.00  0.00    -0.088 HD
ATOM      5  H3  UNL     1      27.913 -24.894 -14.726  0.00  0.00    -0.088 HD
ENDBRANCH   1   2
BRANCH   1   8
ATOM      6  O   UNL     1      27.990 -21.826 -16.991  0.00  0.00    -0.248 OA
ATOM      7  OXT UNL     1      27.762 -24.038 -17.496  0.00  0.00    -0.248 OA
ATOM      8  C   UNL     1      28.199 -23.060 -16.825  0.00  0.00    +0.345 C 
ENDBRANCH   1   8
BRANCH   1   9
ATOM      9  C   UNL     1      30.588 -23.224 -15.822  0.00  0.00    -0.003 C 
BRANCH   9  10
ATOM     10  C   UNL     1      31.342 -22.815 -14.555  0.00  0.00    +0.071 C 
BRANCH  10  12
ATOM     11  O   UNL     1      31.414 -24.848 -13.226  0.00  0.00    -0.288 OA
ATOM     12  C   UNL     1      32.004 -23.990 -13.874  0.00  0.00    +0.207 C 
ENDBRANCH  10  12
ENDBRANCH   9  10
ENDBRANCH   1   9
TORSDOF 5
ENDMDL
MODEL 3
REMARK VINA RESULT:      -5.0      2.616      2.878
REMARK  Name = 49791979
REMARK  5 active torsions:
REMARK  status: ('A' for Active; 'I' for Inactive)
REMARK    1  A    between atoms: CA_1  and  N_2
REMARK    2  A    between atoms: CA_1  and  C_8
REMARK    3  A    between atoms: CA_1  and  C_9
REMARK    4  A    between atoms: C_9  and  C_10
REMARK    5  A    between atoms: C_10  and  C_12
REMARK                            x       y       z     vdW  Elec       q    Type
REMARK                         _______ _______ _______ _____ _____    ______ ____
ROOT
ATOM      1  CA  UNL     1      37.447 -26.525 -13.960  0.00  0.00    +0.041 C 
ENDROOT
BRANCH   1   2
ATOM      2  N   UNL     1      38.921 -26.313 -14.104  0.00  0.00    +0.389 N 
ATOM      3  H1  UNL     1      39.420 -26.984 -13.520  0.00  0.00    -0.088 HD
ATOM      4  H2  UNL     1      39.159 -25.365 -13.810  0.00  0.00    -0.088 HD
ATOM      5  H3  UNL     1      39.190 -26.444 -15.079  0.00  0.00    -0.088 HD
ENDBRANCH   1   2
BRANCH   1   8
ATOM      6  O   UNL     1      36.739 -27.296 -16.095  0.00  0.00    -0.248 OA
ATOM      7  OXT UNL     1      36.047 -25.244 -15.381  0.00  0.00    -0.248 OA
ATOM      8  C   UNL     1      36.661 -26.344 -15.270  0.00  0.00    +0.345 C 
ENDBRANCH   1   8
BRANCH   1   9
ATOM      9  C   UNL     1      36.943 -25.693 -12.774  0.00  0.00    -0.003 C 
BRANCH   9  10
ATOM     10  C   UNL     1      37.911 -24.600 -12.313  0.00  0.00    +0.071 C 
BRANCH  10  12
ATOM     11  O   UNL     1      37.373 -22.488 -11.239  0.00  0.00    -0.288 OA
ATOM     12  C   UNL     1      37.240 -23.252 -12.189  0.00  0.00    +0.207 C 
ENDBRANCH  10  12
ENDBRANCH   9  10
ENDBRANCH   1   9
TORSDOF 5
ENDMDL
MODEL 4
REMARK VINA RESULT:      -4.9      2.518      2.744
REMARK  Name = 49791979
REMARK  5 active torsions:
REMARK  status: ('A' for Active; 'I' for Inactive)
REMARK    1  A    between atoms: CA_1  and  N_2
REMARK    2  A    between atoms: CA_1  and  C_8
REMARK    3  A    between atoms: CA_1  and  C_9
REMARK    4  A    between atoms: C_9  and  C_10
REMARK    5  A    between atoms: C_10  and  C_12
REMARK                            x       y       z     vdW  Elec       q    Type
REMARK                         _______ _______ _______ _____ _____    ______ ____
ROOT
ATOM      1  CA  UNL     1      36.458 -25.228 -14.961  0.00  0.00    +0.041 C 
ENDROOT
BRANCH   1   2
ATOM      2  N   UNL     1      35.061 -25.166 -14.430  0.00  0.00    +0.389 N 
ATOM      3  H1  UNL     1      34.541 -24.440 -14.924  0.00  0.00    -0.088 HD
ATOM      4  H2  UNL     1      35.085 -24.946 -13.433  0.00  0.00    -0.088 HD
ATOM      5  H3  UNL     1      34.603 -26.067 -14.569  0.00  0.00    -0.088 HD
ENDBRANCH   1   2
BRANCH   1   8
ATOM      6  O   UNL     1      37.734 -27.058 -14.137  0.00  0.00    -0.248 OA
ATOM      7  OXT UNL     1      36.697 -27.260 -16.158  0.00  0.00    -0.248 OA
ATOM      8  C   UNL     1      37.011 -26.659 -15.091  0.00  0.00    +0.345 C 
ENDBRANCH   1   8
BRANCH   1   9
ATOM      9  C   UNL     1      37.334 -24.258 -14.159  0.00  0.00    -0.003 C 
BRANCH   9  10
ATOM     10  C   UNL     1      36.560 -23.369 -13.183  0.00  0.00    +0.071 C 
BRANCH  10  12
ATOM     11  O   UNL     1      38.332 -22.725 -11.649  0.00  0.00    -0.288 OA
ATOM     12  C   UNL     1      37.243 -23.257 -11.840  0.00  0.00    +0.207 C 
ENDBRANCH  10  12
ENDBRANCH   9  10
ENDBRANCH   1   9
TORSDOF 5
ENDMDL
MODEL 5
REMARK VINA RESULT:      -4.9      1.679      4.137
REMARK  Name = 49791979
REMARK  5 active torsions:
REMARK  status: ('A' for Active; 'I' for Inactive)
REMARK    1  A    between atoms: CA_1  and  N_2
REMARK    2  A    between atoms: CA_1  and  C_8
REMARK    3  A    between atoms: CA_1  and  C_9
REMARK    4  A    between atoms: C_9  and  C_10
REMARK    5  A    between atoms: C_10  and  C_12
REMARK                            x       y       z     vdW  Elec       q    Type
REMARK                         _______ _______ _______ _____ _____    ______ ____
ROOT
ATOM      1  CA  UNL     1      36.906 -24.103 -12.999  0.00  0.00    +0.041 C 
ENDROOT
BRANCH   1   2
ATOM      2  N   UNL     1      35.901 -23.190 -13.629  0.00  0.00    +0.389 N 
ATOM      3  H1  UNL     1      35.169 -22.972 -12.953  0.00  0.00    -0.088 HD
ATOM      4  H2  UNL     1      35.488 -23.647 -14.442  0.00  0.00    -0.088 HD
ATOM      5  H3  UNL     1      36.362 -22.328 -13.922  0.00  0.00    -0.088 HD
ENDBRANCH   1   2
BRANCH   1   8
ATOM      6  O   UNL     1      36.851 -24.113 -10.622  0.00  0.00    -0.248 OA
ATOM      7  OXT UNL     1      38.338 -22.748 -11.683  0.00  0.00    -0.248 OA
ATOM      8  C   UNL     1      37.419 -23.615 -11.633  0.00  0.00    +0.345 C 
ENDBRANCH   1   8
BRANCH   1   9
ATOM      9  C   UNL     1      37.994 -24.425 -14.031  0.00  0.00    -0.003 C 
BRANCH   9  10
ATOM     10  C   UNL     1      38.920 -25.576 -13.633  0.00  0.00    +0.071 C 
BRANCH  10  12
ATOM     11  O   UNL     1      40.908 -26.592 -14.594  0.00  0.00    -0.288 OA
ATOM     12  C   UNL     1      40.185 -25.610 -14.460  0.00  0.00    +0.207 C 
ENDBRANCH  10  12
ENDBRANCH   9  10
ENDBRANCH   1   9
TORSDOF 5
ENDMDL
MODEL 6
REMARK VINA RESULT:      -4.8     10.531     10.941
REMARK  Name = 49791979
REMARK  5 active torsions:
REMARK  status: ('A' for Active; 'I' for Inactive)
REMARK    1  A    between atoms: CA_1  and  N_2
REMARK    2  A    between atoms: CA_1  and  C_8
REMARK    3  A    between atoms: CA_1  and  C_9
REMARK    4  A    between atoms: C_9  and  C_10
REMARK    5  A    between atoms: C_10  and  C_12
REMARK                            x       y       z     vdW  Elec       q    Type
REMARK                         _______ _______ _______ _____ _____    ______ ____
ROOT
ATOM      1  CA  UNL     1      35.471 -18.497 -21.610  0.00  0.00    +0.041 C 
ENDROOT
BRANCH   1   2
ATOM      2  N   UNL     1      36.369 -18.952 -20.502  0.00  0.00    +0.389 N 
ATOM      3  H1  UNL     1      36.065 -18.532 -19.624  0.00  0.00    -0.088 HD
ATOM      4  H2  UNL     1      37.328 -18.665 -20.702  0.00  0.00    -0.088 HD
ATOM      5  H3  UNL     1      36.327 -19.969 -20.427  0.00  0.00    -0.088 HD
ENDBRANCH   1   2
BRANCH   1   8
ATOM      6  O   UNL     1      34.321 -16.579 -22.417  0.00  0.00    -0.248 OA
ATOM      7  OXT UNL     1      35.187 -16.537 -20.308  0.00  0.00    -0.248 OA
ATOM      8  C   UNL     1      34.931 -17.068 -21.426  0.00  0.00    +0.345 C 
ENDBRANCH   1   8
BRANCH   1   9
ATOM      9  C   UNL     1      34.405 -19.573 -21.853  0.00  0.00    -0.003 C 
BRANCH   9  10
ATOM     10  C   UNL     1      33.402 -19.738 -20.710  0.00  0.00    +0.071 C 
BRANCH  10  12
ATOM     11  O   UNL     1      32.769 -21.877 -19.746  0.00  0.00    -0.288 OA
ATOM     12  C   UNL     1      33.621 -21.013 -19.930  0.00  0.00    +0.207 C 
ENDBRANCH  10  12
ENDBRANCH   9  10
ENDBRANCH   1   9
TORSDOF 5
ENDMDL
MODEL 7
REMARK VINA RESULT:      -4.8     11.485     12.129
REMARK  Name = 49791979
REMARK  5 active torsions:
REMARK  status: ('A' for Active; 'I' for Inactive)
REMARK    1  A    between atoms: CA_1  and  N_2
REMARK    2  A    between atoms: CA_1  and  C_8
REMARK    3  A    between atoms: CA_1  and  C_9
REMARK    4  A    between atoms: C_9  and  C_10
REMARK    5  A    between atoms: C_10  and  C_12
REMARK                            x       y       z     vdW  Elec       q    Type
REMARK                         _______ _______ _______ _____ _____    ______ ____
ROOT
ATOM      1  CA  UNL     1      34.260 -18.903 -21.497  0.00  0.00    +0.041 C 
ENDROOT
BRANCH   1   2
ATOM      2  N   UNL     1      35.317 -18.068 -20.844  0.00  0.00    +0.389 N 
ATOM      3  H1  UNL     1      36.218 -18.256 -21.284  0.00  0.00    -0.088 HD
ATOM      4  H2  UNL     1      35.369 -18.300 -19.852  0.00  0.00    -0.088 HD
ATOM      5  H3  UNL     1      35.085 -17.081 -20.951  0.00  0.00    -0.088 HD
ENDBRANCH   1   2
BRANCH   1   8
ATOM      6  O   UNL     1      32.558 -20.335 -20.656  0.00  0.00    -0.248 OA
ATOM      7  OXT UNL     1      34.716 -20.693 -20.011  0.00  0.00    -0.248 OA
ATOM      8  C   UNL     1      33.798 -20.099 -20.646  0.00  0.00    +0.345 C 
ENDBRANCH   1   8
BRANCH   1   9
ATOM      9  C   UNL     1      34.713 -19.248 -22.921  0.00  0.00    -0.003 C 
BRANCH   9  10
ATOM     10  C   UNL     1      35.257 -18.058 -23.715  0.00  0.00    +0.071 C 
BRANCH  10  12
ATOM     11  O   UNL     1      34.761 -16.959 -25.825  0.00  0.00    -0.288 OA
ATOM     12  C   UNL     1      34.508 -17.839 -25.010  0.00  0.00    +0.207 C 
ENDBRANCH  10  12
ENDBRANCH   9  10
ENDBRANCH   1   9
TORSDOF 5
ENDMDL
MODEL 8
REMARK VINA RESULT:      -4.8     13.442     13.743
REMARK  Name = 49791979
REMARK  5 active torsions:
REMARK  status: ('A' for Active; 'I' for Inactive)
REMARK    1  A    between atoms: CA_1  and  N_2
REMARK    2  A    between atoms: CA_1  and  C_8
REMARK    3  A    between atoms: CA_1  and  C_9
REMARK    4  A    between atoms: C_9  and  C_10
REMARK    5  A    between atoms: C_10  and  C_12
REMARK                            x       y       z     vdW  Elec       q    Type
REMARK                         _______ _______ _______ _____ _____    ______ ____
ROOT
ATOM      1  CA  UNL     1      34.626 -16.759 -23.682  0.00  0.00    +0.041 C 
ENDROOT
BRANCH   1   2
ATOM      2  N   UNL     1      35.844 -17.417 -23.115  0.00  0.00    +0.389 N 
ATOM      3  H1  UNL     1      35.703 -18.427 -23.085  0.00  0.00    -0.088 HD
ATOM      4  H2  UNL     1      36.010 -17.071 -22.169  0.00  0.00    -0.088 HD
ATOM      5  H3  UNL     1      36.651 -17.203 -23.702  0.00  0.00    -0.088 HD
ENDBRANCH   1   2
BRANCH   1   8
ATOM      6  O   UNL     1      34.201 -15.936 -25.872  0.00  0.00    -0.248 OA
ATOM      7  OXT UNL     1      34.551 -18.171 -25.584  0.00  0.00    -0.248 OA
ATOM      8  C   UNL     1      34.451 -16.972 -25.196  0.00  0.00    +0.345 C 
ENDBRANCH   1   8
BRANCH   1   9
ATOM      9  C   UNL     1      34.595 -15.297 -23.218  0.00  0.00    -0.003 C 
BRANCH   9  10
ATOM     10  C   UNL     1      33.740 -15.048 -21.974  0.00  0.00    +0.071 C 
BRANCH  10  12
ATOM     11  O   UNL     1      35.034 -16.180 -20.257  0.00  0.00    -0.288 OA
ATOM     12  C   UNL     1      34.540 -15.147 -20.696  0.00  0.00    +0.207 C 
ENDBRANCH  10  12
ENDBRANCH   9  10
ENDBRANCH   1   9
TORSDOF 5
ENDMDL
MODEL 9
REMARK VINA RESULT:      -4.7      9.186      9.635
REMARK  Name = 49791979
REMARK  5 active torsions:
REMARK  status: ('A' for Active; 'I' for Inactive)
REMARK    1  A    between atoms: CA_1  and  N_2
REMARK    2  A    between atoms: CA_1  and  C_8
REMARK    3  A    between atoms: CA_1  and  C_9
REMARK    4  A    between atoms: C_9  and  C_10
REMARK    5  A    between atoms: C_10  and  C_12
REMARK                            x       y       z     vdW  Elec       q    Type
REMARK                         _______ _______ _______ _____ _____    ______ ____
ROOT
ATOM      1  CA  UNL     1      34.289 -20.974 -19.676  0.00  0.00    +0.041 C 
ENDROOT
BRANCH   1   2
ATOM      2  N   UNL     1      35.644 -21.089 -20.300  0.00  0.00    +0.389 N 
ATOM      3  H1  UNL     1      36.259 -21.617 -19.681  0.00  0.00    -0.088 HD
ATOM      4  H2  UNL     1      36.031 -20.156 -20.448  0.00  0.00    -0.088 HD
ATOM      5  H3  UNL     1      35.567 -21.571 -21.195  0.00  0.00    -0.088 HD
ENDBRANCH   1   2
BRANCH   1   8
ATOM      6  O   UNL     1      34.397 -23.340 -19.464  0.00  0.00    -0.248 OA
ATOM      7  OXT UNL     1      32.593 -22.239 -18.608  0.00  0.00    -0.248 OA
ATOM      8  C   UNL     1      33.709 -22.316 -19.195  0.00  0.00    +0.345 C 
ENDBRANCH   1   8
BRANCH   1   9
ATOM      9  C   UNL     1      33.382 -20.167 -20.614  0.00  0.00    -0.003 C 
BRANCH   9  10
ATOM     10  C   UNL     1      34.122 -19.447 -21.743  0.00  0.00    +0.071 C 
BRANCH  10  12
ATOM     11  O   UNL     1      35.524 -17.806 -20.626  0.00  0.00    -0.288 OA
ATOM     12  C   UNL     1      34.564 -18.057 -21.347  0.00  0.00    +0.207 C 
ENDBRANCH  10  12
ENDBRANCH   9  10
ENDBRANCH   1   9
TORSDOF 5
ENDMDL
