MODEL 1
REMARK VINA RESULT:      -9.9      0.000      0.000
REMARK  Name = 10017976
REMARK  4 active torsions:
REMARK  status: ('A' for Active; 'I' for Inactive)
REMARK    1  A    between atoms: N_1  and  C_18
REMARK    2  A    between atoms: C_10  and  C_15
REMARK    3  A    between atoms: C_15  and  O_16
REMARK    4  A    between atoms: C_18  and  C_19
REMARK                            x       y       z     vdW  Elec       q    Type
REMARK                         _______ _______ _______ _____ _____    ______ ____
ROOT
ATOM      1  N   UNL     1      33.639  -8.888 -23.003  0.00  0.00    -0.327 N 
ATOM      2  C   UNL     1      33.995  -9.757 -23.993  0.00  0.00    +0.033 A 
ATOM      3  C   UNL     1      33.327 -10.948 -23.794  0.00  0.00    -0.009 A 
ATOM      4  C   UNL     1      34.924  -9.445 -25.111  0.00  0.00    +0.043 C 
ATOM      5  C   UNL     1      33.504 -12.122 -24.695  0.00  0.00    +0.028 C 
ATOM      6  C   UNL     1      35.349 -10.747 -25.813  0.00  0.00    +0.007 C 
ATOM      7  C   UNL     1      34.163 -11.707 -26.026  0.00  0.00    +0.005 C 
ATOM      8  C   UNL     1      32.533 -10.798 -22.622  0.00  0.00    +0.013 A 
ATOM      9  C   UNL     1      32.746  -9.499 -22.148  0.00  0.00    +0.066 A 
ATOM     10  C   UNL     1      32.118  -9.002 -21.000  0.00  0.00    +0.091 C 
ATOM     11  C   UNL     1      31.653 -11.641 -21.913  0.00  0.00    +0.001 C 
ATOM     12  C   UNL     1      31.249  -9.857 -20.315  0.00  0.00    +0.008 C 
ATOM     13  C   UNL     1      31.019 -11.157 -20.764  0.00  0.00    +0.000 C 
ENDROOT
BRANCH  10  15
ATOM     14  O   UNL     1      31.681  -6.657 -20.829  0.00  0.00    -0.245 OA
ATOM     15  C   UNL     1      32.331  -7.657 -20.499  0.00  0.00    +0.339 C 
BRANCH  15  16
ATOM     16  O   UNL     1      33.350  -7.589 -19.597  0.00  0.00    -0.477 OA
ATOM     17  H   UNL     1      33.474  -6.812 -19.088  0.00  0.00    +0.295 HD
ENDBRANCH  15  16
ENDBRANCH  10  15
BRANCH   1  18
ATOM     18  C   UNL     1      34.129  -7.529 -22.893  0.00  0.00    +0.132 C 
BRANCH  18  19
ATOM     19  C   UNL     1      33.610  -6.666 -24.010  0.00  0.00    +0.000 C 
ATOM     20  C   UNL     1      34.455  -6.319 -25.056  0.00  0.00    -0.002 C 
ATOM     21  C   UNL     1      32.293  -6.226 -23.980  0.00  0.00    -0.002 C 
ATOM     22  C   UNL     1      33.974  -5.517 -26.091  0.00  0.00    -0.000 C 
ATOM     23  C   UNL     1      31.814  -5.424 -25.016  0.00  0.00    -0.000 C 
ATOM     24  C   UNL     1      32.653  -5.070 -26.071  0.00  0.00    -0.000 C 
ENDBRANCH  18  19
ENDBRANCH   1  18
TORSDOF 4
ENDMDL
MODEL 2
REMARK VINA RESULT:      -9.7     14.489     17.689
REMARK  Name = 10017976
REMARK  4 active torsions:
REMARK  status: ('A' for Active; 'I' for Inactive)
REMARK    1  A    between atoms: N_1  and  C_18
REMARK    2  A    between atoms: C_10  and  C_15
REMARK    3  A    between atoms: C_15  and  O_16
REMARK    4  A    between atoms: C_18  and  C_19
REMARK                            x       y       z     vdW  Elec       q    Type
REMARK                         _______ _______ _______ _____ _____    ______ ____
ROOT
ATOM      1  N   UNL     1      34.693 -23.006 -15.390  0.00  0.00    -0.327 N 
ATOM      2  C   UNL     1      33.422 -23.415 -15.109  0.00  0.00    +0.033 A 
ATOM      3  C   UNL     1      32.669 -23.338 -16.263  0.00  0.00    -0.009 A 
ATOM      4  C   UNL     1      32.953 -23.893 -13.782  0.00  0.00    +0.043 C 
ATOM      5  C   UNL     1      31.224 -23.701 -16.298  0.00  0.00    +0.028 C 
ATOM      6  C   UNL     1      31.414 -23.933 -13.757  0.00  0.00    +0.007 C 
ATOM      7  C   UNL     1      30.827 -24.521 -15.054  0.00  0.00    +0.005 C 
ATOM      8  C   UNL     1      33.522 -22.850 -17.293  0.00  0.00    +0.013 A 
ATOM      9  C   UNL     1      34.783 -22.652 -16.720  0.00  0.00    +0.066 A 
ATOM     10  C   UNL     1      35.877 -22.173 -17.451  0.00  0.00    +0.091 C 
ATOM     11  C   UNL     1      33.345 -22.554 -18.660  0.00  0.00    +0.001 C 
ATOM     12  C   UNL     1      35.677 -21.888 -18.805  0.00  0.00    +0.008 C 
ATOM     13  C   UNL     1      34.431 -22.075 -19.402  0.00  0.00    +0.000 C 
ENDROOT
BRANCH  10  15
ATOM     14  O   UNL     1      37.974 -22.858 -16.528  0.00  0.00    -0.245 OA
ATOM     15  C   UNL     1      37.189 -21.964 -16.868  0.00  0.00    +0.339 C 
BRANCH  15  16
ATOM     16  O   UNL     1      37.493 -20.644 -16.721  0.00  0.00    -0.477 OA
ATOM     17  H   UNL     1      38.346 -20.390 -16.432  0.00  0.00    +0.295 HD
ENDBRANCH  15  16
ENDBRANCH  10  15
BRANCH   1  18
ATOM     18  C   UNL     1      35.772 -22.967 -14.425  0.00  0.00    +0.132 C 
BRANCH  18  19
ATOM     19  C   UNL     1      36.299 -24.346 -14.134  0.00  0.00    +0.000 C 
ATOM     20  C   UNL     1      36.314 -25.300 -15.141  0.00  0.00    -0.002 C 
ATOM     21  C   UNL     1      36.763 -24.645 -12.860  0.00  0.00    -0.002 C 
ATOM     22  C   UNL     1      36.801 -26.578 -14.870  0.00  0.00    -0.000 C 
ATOM     23  C   UNL     1      37.250 -25.924 -12.589  0.00  0.00    -0.000 C 
ATOM     24  C   UNL     1      37.270 -26.890 -13.594  0.00  0.00    -0.000 C 
ENDBRANCH  18  19
ENDBRANCH   1  18
TORSDOF 4
ENDMDL
MODEL 3
REMARK VINA RESULT:      -9.0      2.440      5.557
REMARK  Name = 10017976
REMARK  4 active torsions:
REMARK  status: ('A' for Active; 'I' for Inactive)
REMARK    1  A    between atoms: N_1  and  C_18
REMARK    2  A    between atoms: C_10  and  C_15
REMARK    3  A    between atoms: C_15  and  O_16
REMARK    4  A    between atoms: C_18  and  C_19
REMARK                            x       y       z     vdW  Elec       q    Type
REMARK                         _______ _______ _______ _____ _____    ______ ____
ROOT
ATOM      1  N   UNL     1      32.688 -11.342 -23.064  0.00  0.00    -0.327 N 
ATOM      2  C   UNL     1      33.531 -11.114 -24.113  0.00  0.00    +0.033 A 
ATOM      3  C   UNL     1      34.023  -9.829 -24.009  0.00  0.00    -0.009 A 
ATOM      4  C   UNL     1      33.875 -12.107 -25.164  0.00  0.00    +0.043 C 
ATOM      5  C   UNL     1      34.965  -9.253 -25.011  0.00  0.00    +0.028 C 
ATOM      6  C   UNL     1      34.559 -11.397 -26.347  0.00  0.00    +0.007 C 
ATOM      7  C   UNL     1      35.597 -10.359 -25.880  0.00  0.00    +0.005 C 
ATOM      8  C   UNL     1      33.445  -9.246 -22.847  0.00  0.00    +0.013 A 
ATOM      9  C   UNL     1      32.615 -10.216 -22.273  0.00  0.00    +0.066 A 
ATOM     10  C   UNL     1      31.881  -9.983 -21.104  0.00  0.00    +0.091 C 
ATOM     11  C   UNL     1      33.544  -7.985 -22.223  0.00  0.00    +0.001 C 
ATOM     12  C   UNL     1      31.997  -8.726 -20.504  0.00  0.00    +0.008 C 
ATOM     13  C   UNL     1      32.815  -7.741 -21.054  0.00  0.00    +0.000 C 
ENDROOT
BRANCH  10  15
ATOM     14  O   UNL     1      29.950 -11.389 -20.975  0.00  0.00    -0.245 OA
ATOM     15  C   UNL     1      31.017 -10.982 -20.500  0.00  0.00    +0.339 C 
BRANCH  15  16
ATOM     16  O   UNL     1      31.505 -11.450 -19.317  0.00  0.00    -0.477 OA
ATOM     17  H   UNL     1      31.456 -10.918 -18.548  0.00  0.00    +0.295 HD
ENDBRANCH  15  16
ENDBRANCH  10  15
BRANCH   1  18
ATOM     18  C   UNL     1      31.994 -12.592 -22.830  0.00  0.00    +0.132 C 
BRANCH  18  19
ATOM     19  C   UNL     1      32.935 -13.662 -22.347  0.00  0.00    +0.000 C 
ATOM     20  C   UNL     1      33.591 -14.464 -23.270  0.00  0.00    -0.002 C 
ATOM     21  C   UNL     1      33.134 -13.832 -20.984  0.00  0.00    -0.002 C 
ATOM     22  C   UNL     1      34.462 -15.456 -22.822  0.00  0.00    -0.000 C 
ATOM     23  C   UNL     1      34.006 -14.825 -20.536  0.00  0.00    -0.000 C 
ATOM     24  C   UNL     1      34.670 -15.636 -21.455  0.00  0.00    -0.000 C 
ENDBRANCH  18  19
ENDBRANCH   1  18
TORSDOF 4
ENDMDL
MODEL 4
REMARK VINA RESULT:      -8.8     14.518     17.357
REMARK  Name = 10017976
REMARK  4 active torsions:
REMARK  status: ('A' for Active; 'I' for Inactive)
REMARK    1  A    between atoms: N_1  and  C_18
REMARK    2  A    between atoms: C_10  and  C_15
REMARK    3  A    between atoms: C_15  and  O_16
REMARK    4  A    between atoms: C_18  and  C_19
REMARK                            x       y       z     vdW  Elec       q    Type
REMARK                         _______ _______ _______ _____ _____    ______ ____
ROOT
ATOM      1  N   UNL     1      34.714 -22.922 -15.582  0.00  0.00    -0.327 N 
ATOM      2  C   UNL     1      35.182 -22.498 -16.792  0.00  0.00    +0.033 A 
ATOM      3  C   UNL     1      34.131 -22.471 -17.685  0.00  0.00    -0.009 A 
ATOM      4  C   UNL     1      36.587 -22.103 -17.073  0.00  0.00    +0.043 C 
ATOM      5  C   UNL     1      34.305 -22.065 -19.109  0.00  0.00    +0.028 C 
ATOM      6  C   UNL     1      36.810 -22.022 -18.594  0.00  0.00    +0.007 C 
ATOM      7  C   UNL     1      35.641 -21.325 -19.317  0.00  0.00    +0.005 C 
ATOM      8  C   UNL     1      32.970 -22.908 -16.987  0.00  0.00    +0.013 A 
ATOM      9  C   UNL     1      33.363 -23.182 -15.673  0.00  0.00    +0.066 A 
ATOM     10  C   UNL     1      32.468 -23.638 -14.697  0.00  0.00    +0.091 C 
ATOM     11  C   UNL     1      31.619 -23.100 -17.344  0.00  0.00    +0.001 C 
ATOM     12  C   UNL     1      31.134 -23.819 -15.075  0.00  0.00    +0.008 C 
ATOM     13  C   UNL     1      30.715 -23.555 -16.378  0.00  0.00    +0.000 C 
ENDROOT
BRANCH  10  15
ATOM     14  O   UNL     1      33.369 -24.985 -12.938  0.00  0.00    -0.245 OA
ATOM     15  C   UNL     1      32.864 -23.926 -13.331  0.00  0.00    +0.339 C 
BRANCH  15  16
ATOM     16  O   UNL     1      32.622 -22.886 -12.485  0.00  0.00    -0.477 OA
ATOM     17  H   UNL     1      32.065 -23.007 -11.742  0.00  0.00    +0.295 HD
ENDBRANCH  15  16
ENDBRANCH  10  15
BRANCH   1  18
ATOM     18  C   UNL     1      35.529 -23.061 -14.393  0.00  0.00    +0.132 C 
BRANCH  18  19
ATOM     19  C   UNL     1      36.416 -24.273 -14.473  0.00  0.00    +0.000 C 
ATOM     20  C   UNL     1      35.938 -25.434 -15.064  0.00  0.00    -0.002 C 
ATOM     21  C   UNL     1      37.703 -24.214 -13.953  0.00  0.00    -0.002 C 
ATOM     22  C   UNL     1      36.761 -26.558 -15.138  0.00  0.00    -0.000 C 
ATOM     23  C   UNL     1      38.525 -25.339 -14.027  0.00  0.00    -0.000 C 
ATOM     24  C   UNL     1      38.054 -26.510 -14.619  0.00  0.00    -0.000 C 
ENDBRANCH  18  19
ENDBRANCH   1  18
TORSDOF 4
ENDMDL
MODEL 5
REMARK VINA RESULT:      -8.5      4.511      6.675
REMARK  Name = 10017976
REMARK  4 active torsions:
REMARK  status: ('A' for Active; 'I' for Inactive)
REMARK    1  A    between atoms: N_1  and  C_18
REMARK    2  A    between atoms: C_10  and  C_15
REMARK    3  A    between atoms: C_15  and  O_16
REMARK    4  A    between atoms: C_18  and  C_19
REMARK                            x       y       z     vdW  Elec       q    Type
REMARK                         _______ _______ _______ _____ _____    ______ ____
ROOT
ATOM      1  N   UNL     1      32.794 -13.806 -23.509  0.00  0.00    -0.327 N 
ATOM      2  C   UNL     1      32.310 -13.072 -22.466  0.00  0.00    +0.033 A 
ATOM      3  C   UNL     1      32.664 -13.697 -21.287  0.00  0.00    -0.009 A 
ATOM      4  C   UNL     1      31.559 -11.796 -22.595  0.00  0.00    +0.043 C 
ATOM      5  C   UNL     1      32.275 -13.160 -19.953  0.00  0.00    +0.028 C 
ATOM      6  C   UNL     1      30.886 -11.450 -21.254  0.00  0.00    +0.007 C 
ATOM      7  C   UNL     1      31.824 -11.689 -20.055  0.00  0.00    +0.005 C 
ATOM      8  C   UNL     1      33.389 -14.872 -21.632  0.00  0.00    +0.013 A 
ATOM      9  C   UNL     1      33.458 -14.915 -23.029  0.00  0.00    +0.066 A 
ATOM     10  C   UNL     1      34.106 -15.945 -23.720  0.00  0.00    +0.091 C 
ATOM     11  C   UNL     1      33.996 -15.908 -20.892  0.00  0.00    +0.001 C 
ATOM     12  C   UNL     1      34.701 -16.960 -22.965  0.00  0.00    +0.008 C 
ATOM     13  C   UNL     1      34.647 -16.943 -21.572  0.00  0.00    +0.000 C 
ENDROOT
BRANCH  10  15
ATOM     14  O   UNL     1      33.216 -16.047 -25.938  0.00  0.00    -0.245 OA
ATOM     15  C   UNL     1      34.184 -16.000 -25.169  0.00  0.00    +0.339 C 
BRANCH  15  16
ATOM     16  O   UNL     1      35.467 -15.995 -25.625  0.00  0.00    -0.477 OA
ATOM     17  H   UNL     1      36.093 -16.594 -25.269  0.00  0.00    +0.295 HD
ENDBRANCH  15  16
ENDBRANCH  10  15
BRANCH   1  18
ATOM     18  C   UNL     1      32.633 -13.450 -24.904  0.00  0.00    +0.132 C 
BRANCH  18  19
ATOM     19  C   UNL     1      33.626 -12.400 -25.322  0.00  0.00    +0.000 C 
ATOM     20  C   UNL     1      34.041 -11.446 -24.403  0.00  0.00    -0.002 C 
ATOM     21  C   UNL     1      34.112 -12.399 -26.622  0.00  0.00    -0.002 C 
ATOM     22  C   UNL     1      34.961 -10.472 -24.791  0.00  0.00    -0.000 C 
ATOM     23  C   UNL     1      35.032 -11.424 -27.010  0.00  0.00    -0.000 C 
ATOM     24  C   UNL     1      35.456 -10.462 -26.095  0.00  0.00    -0.000 C 
ENDBRANCH  18  19
ENDBRANCH   1  18
TORSDOF 4
ENDMDL
MODEL 6
REMARK VINA RESULT:      -8.1     14.359     16.875
REMARK  Name = 10017976
REMARK  4 active torsions:
REMARK  status: ('A' for Active; 'I' for Inactive)
REMARK    1  A    between atoms: N_1  and  C_18
REMARK    2  A    between atoms: C_10  and  C_15
REMARK    3  A    between atoms: C_15  and  O_16
REMARK    4  A    between atoms: C_18  and  C_19
REMARK                            x       y       z     vdW  Elec       q    Type
REMARK                         _______ _______ _______ _____ _____    ______ ____
ROOT
ATOM      1  N   UNL     1      34.434 -23.633 -16.124  0.00  0.00    -0.327 N 
ATOM      2  C   UNL     1      35.032 -23.760 -14.903  0.00  0.00    +0.033 A 
ATOM      3  C   UNL     1      36.177 -22.989 -14.893  0.00  0.00    -0.009 A 
ATOM      4  C   UNL     1      34.506 -24.572 -13.775  0.00  0.00    +0.043 C 
ATOM      5  C   UNL     1      37.077 -22.916 -13.707  0.00  0.00    +0.028 C 
ATOM      6  C   UNL     1      35.603 -24.754 -12.710  0.00  0.00    +0.007 C 
ATOM      7  C   UNL     1      36.375 -23.447 -12.442  0.00  0.00    +0.005 C 
ATOM      8  C   UNL     1      36.284 -22.371 -16.170  0.00  0.00    +0.013 A 
ATOM      9  C   UNL     1      35.179 -22.789 -16.920  0.00  0.00    +0.066 A 
ATOM     10  C   UNL     1      34.961 -22.371 -18.238  0.00  0.00    +0.091 C 
ATOM     11  C   UNL     1      37.214 -21.495 -16.766  0.00  0.00    +0.001 C 
ATOM     12  C   UNL     1      35.897 -21.502 -18.806  0.00  0.00    +0.008 C 
ATOM     13  C   UNL     1      37.007 -21.069 -18.083  0.00  0.00    +0.000 C 
ENDROOT
BRANCH  10  15
ATOM     14  O   UNL     1      32.775 -22.154 -19.186  0.00  0.00    -0.245 OA
ATOM     15  C   UNL     1      33.819 -22.799 -19.026  0.00  0.00    +0.339 C 
BRANCH  15  16
ATOM     16  O   UNL     1      34.005 -24.021 -19.597  0.00  0.00    -0.477 OA
ATOM     17  H   UNL     1      33.279 -24.479 -19.971  0.00  0.00    +0.295 HD
ENDBRANCH  15  16
ENDBRANCH  10  15
BRANCH   1  18
ATOM     18  C   UNL     1      33.198 -24.286 -16.500  0.00  0.00    +0.132 C 
BRANCH  18  19
ATOM     19  C   UNL     1      32.003 -23.572 -15.929  0.00  0.00    +0.000 C 
ATOM     20  C   UNL     1      32.065 -23.053 -14.643  0.00  0.00    -0.002 C 
ATOM     21  C   UNL     1      30.853 -23.442 -16.697  0.00  0.00    -0.002 C 
ATOM     22  C   UNL     1      30.957 -22.392 -14.114  0.00  0.00    -0.000 C 
ATOM     23  C   UNL     1      29.745 -22.780 -16.167  0.00  0.00    -0.000 C 
ATOM     24  C   UNL     1      29.797 -22.256 -14.876  0.00  0.00    -0.000 C 
ENDBRANCH  18  19
ENDBRANCH   1  18
TORSDOF 4
ENDMDL
MODEL 7
REMARK VINA RESULT:      -8.0      3.363      7.146
REMARK  Name = 10017976
REMARK  4 active torsions:
REMARK  status: ('A' for Active; 'I' for Inactive)
REMARK    1  A    between atoms: N_1  and  C_18
REMARK    2  A    between atoms: C_10  and  C_15
REMARK    3  A    between atoms: C_15  and  O_16
REMARK    4  A    between atoms: C_18  and  C_19
REMARK                            x       y       z     vdW  Elec       q    Type
REMARK                         _______ _______ _______ _____ _____    ______ ____
ROOT
ATOM      1  N   UNL     1      32.655 -11.652 -23.149  0.00  0.00    -0.327 N 
ATOM      2  C   UNL     1      32.452 -10.651 -22.243  0.00  0.00    +0.033 A 
ATOM      3  C   UNL     1      33.178  -9.546 -22.640  0.00  0.00    -0.009 A 
ATOM      4  C   UNL     1      31.568 -10.744 -21.052  0.00  0.00    +0.043 C 
ATOM      5  C   UNL     1      33.189  -8.278 -21.857  0.00  0.00    +0.028 C 
ATOM      6  C   UNL     1      31.859  -9.573 -20.096  0.00  0.00    +0.007 C 
ATOM      7  C   UNL     1      32.024  -8.237 -20.847  0.00  0.00    +0.005 C 
ATOM      8  C   UNL     1      33.860  -9.895 -23.839  0.00  0.00    +0.013 A 
ATOM      9  C   UNL     1      33.514 -11.218 -24.136  0.00  0.00    +0.066 A 
ATOM     10  C   UNL     1      34.008 -11.892 -25.259  0.00  0.00    +0.091 C 
ATOM     11  C   UNL     1      34.742  -9.215 -24.704  0.00  0.00    +0.001 C 
ATOM     12  C   UNL     1      34.880 -11.197 -26.102  0.00  0.00    +0.008 C 
ATOM     13  C   UNL     1      35.242  -9.878 -25.830  0.00  0.00    +0.000 C 
ENDROOT
BRANCH  10  15
ATOM     14  O   UNL     1      34.187 -14.272 -25.094  0.00  0.00    -0.245 OA
ATOM     15  C   UNL     1      33.656 -13.264 -25.577  0.00  0.00    +0.339 C 
BRANCH  15  16
ATOM     16  O   UNL     1      32.650 -13.348 -26.492  0.00  0.00    -0.477 OA
ATOM     17  H   UNL     1      31.768 -13.160 -26.236  0.00  0.00    +0.295 HD
ENDBRANCH  15  16
ENDBRANCH  10  15
BRANCH   1  18
ATOM     18  C   UNL     1      32.042 -12.962 -23.071  0.00  0.00    +0.132 C 
BRANCH  18  19
ATOM     19  C   UNL     1      32.763 -13.850 -22.095  0.00  0.00    +0.000 C 
ATOM     20  C   UNL     1      32.057 -14.443 -21.058  0.00  0.00    -0.002 C 
ATOM     21  C   UNL     1      34.127 -14.063 -22.244  0.00  0.00    -0.002 C 
ATOM     22  C   UNL     1      32.727 -15.265 -20.152  0.00  0.00    -0.000 C 
ATOM     23  C   UNL     1      34.797 -14.886 -21.337  0.00  0.00    -0.000 C 
ATOM     24  C   UNL     1      34.097 -15.487 -20.292  0.00  0.00    -0.000 C 
ENDBRANCH  18  19
ENDBRANCH   1  18
TORSDOF 4
ENDMDL
MODEL 8
REMARK VINA RESULT:      -7.6      3.409      5.108
REMARK  Name = 10017976
REMARK  4 active torsions:
REMARK  status: ('A' for Active; 'I' for Inactive)
REMARK    1  A    between atoms: N_1  and  C_18
REMARK    2  A    between atoms: C_10  and  C_15
REMARK    3  A    between atoms: C_15  and  O_16
REMARK    4  A    between atoms: C_18  and  C_19
REMARK                            x       y       z     vdW  Elec       q    Type
REMARK                         _______ _______ _______ _____ _____    ______ ____
ROOT
ATOM      1  N   UNL     1      32.911 -13.719 -23.801  0.00  0.00    -0.327 N 
ATOM      2  C   UNL     1      33.528 -14.881 -24.166  0.00  0.00    +0.033 A 
ATOM      3  C   UNL     1      33.783 -15.618 -23.028  0.00  0.00    -0.009 A 
ATOM      4  C   UNL     1      33.835 -15.282 -25.564  0.00  0.00    +0.043 C 
ATOM      5  C   UNL     1      34.465 -16.942 -23.074  0.00  0.00    +0.028 C 
ATOM      6  C   UNL     1      34.824 -16.461 -25.561  0.00  0.00    +0.007 C 
ATOM      7  C   UNL     1      34.462 -17.521 -24.503  0.00  0.00    +0.005 C 
ATOM      8  C   UNL     1      33.306 -14.865 -21.918  0.00  0.00    +0.013 A 
ATOM      9  C   UNL     1      32.764 -13.682 -22.431  0.00  0.00    +0.066 A 
ATOM     10  C   UNL     1      32.198 -12.696 -21.613  0.00  0.00    +0.091 C 
ATOM     11  C   UNL     1      33.284 -15.072 -20.524  0.00  0.00    +0.001 C 
ATOM     12  C   UNL     1      32.187 -12.925 -20.234  0.00  0.00    +0.008 C 
ATOM     13  C   UNL     1      32.721 -14.094 -19.696  0.00  0.00    +0.000 C 
ENDROOT
BRANCH  10  15
ATOM     14  O   UNL     1      32.268 -10.431 -22.379  0.00  0.00    -0.245 OA
ATOM     15  C   UNL     1      31.633 -11.464 -22.133  0.00  0.00    +0.339 C 
BRANCH  15  16
ATOM     16  O   UNL     1      30.289 -11.549 -22.336  0.00  0.00    -0.477 OA
ATOM     17  H   UNL     1      29.805 -12.262 -21.969  0.00  0.00    +0.295 HD
ENDBRANCH  15  16
ENDBRANCH  10  15
BRANCH   1  18
ATOM     18  C   UNL     1      32.476 -12.697 -24.731  0.00  0.00    +0.132 C 
BRANCH  18  19
ATOM     19  C   UNL     1      33.634 -11.874 -25.225  0.00  0.00    +0.000 C 
ATOM     20  C   UNL     1      34.225 -10.947 -24.378  0.00  0.00    -0.002 C 
ATOM     21  C   UNL     1      34.095 -12.051 -26.522  0.00  0.00    -0.002 C 
ATOM     22  C   UNL     1      35.298 -10.183 -24.836  0.00  0.00    -0.000 C 
ATOM     23  C   UNL     1      35.168 -11.287 -26.980  0.00  0.00    -0.000 C 
ATOM     24  C   UNL     1      35.770 -10.353 -26.137  0.00  0.00    -0.000 C 
ENDBRANCH  18  19
ENDBRANCH   1  18
TORSDOF 4
ENDMDL
MODEL 9
REMARK VINA RESULT:      -7.6      2.591      3.959
REMARK  Name = 10017976
REMARK  4 active torsions:
REMARK  status: ('A' for Active; 'I' for Inactive)
REMARK    1  A    between atoms: N_1  and  C_18
REMARK    2  A    between atoms: C_10  and  C_15
REMARK    3  A    between atoms: C_15  and  O_16
REMARK    4  A    between atoms: C_18  and  C_19
REMARK                            x       y       z     vdW  Elec       q    Type
REMARK                         _______ _______ _______ _____ _____    ______ ____
ROOT
ATOM      1  N   UNL     1      32.336 -12.466 -23.407  0.00  0.00    -0.327 N 
ATOM      2  C   UNL     1      32.774 -13.178 -24.486  0.00  0.00    +0.033 A 
ATOM      3  C   UNL     1      33.205 -14.414 -24.050  0.00  0.00    -0.009 A 
ATOM      4  C   UNL     1      32.753 -12.697 -25.892  0.00  0.00    +0.043 C 
ATOM      5  C   UNL     1      33.762 -15.437 -24.980  0.00  0.00    +0.028 C 
ATOM      6  C   UNL     1      33.631 -13.610 -26.767  0.00  0.00    +0.007 C 
ATOM      7  C   UNL     1      33.418 -15.102 -26.446  0.00  0.00    +0.005 C 
ATOM      8  C   UNL     1      33.028 -14.453 -22.638  0.00  0.00    +0.013 A 
ATOM      9  C   UNL     1      32.481 -13.221 -22.262  0.00  0.00    +0.066 A 
ATOM     10  C   UNL     1      32.173 -12.907 -20.933  0.00  0.00    +0.091 C 
ATOM     11  C   UNL     1      33.280 -15.414 -21.639  0.00  0.00    +0.001 C 
ATOM     12  C   UNL     1      32.431 -13.878 -19.961  0.00  0.00    +0.008 C 
ATOM     13  C   UNL     1      32.977 -15.113 -20.307  0.00  0.00    +0.000 C 
ENDROOT
BRANCH  10  15
ATOM     14  O   UNL     1      32.203 -10.745 -19.911  0.00  0.00    -0.245 OA
ATOM     15  C   UNL     1      31.605 -11.633 -20.531  0.00  0.00    +0.339 C 
BRANCH  15  16
ATOM     16  O   UNL     1      30.304 -11.496 -20.911  0.00  0.00    -0.477 OA
ATOM     17  H   UNL     1      29.965 -10.648 -21.122  0.00  0.00    +0.295 HD
ENDBRANCH  15  16
ENDBRANCH  10  15
BRANCH   1  18
ATOM     18  C   UNL     1      31.794 -11.124 -23.478  0.00  0.00    +0.132 C 
BRANCH  18  19
ATOM     19  C   UNL     1      32.887 -10.092 -23.535  0.00  0.00    +0.000 C 
ATOM     20  C   UNL     1      34.054 -10.370 -24.232  0.00  0.00    -0.002 C 
ATOM     21  C   UNL     1      32.712  -8.875 -22.889  0.00  0.00    -0.002 C 
ATOM     22  C   UNL     1      35.068  -9.413 -24.284  0.00  0.00    -0.000 C 
ATOM     23  C   UNL     1      33.726  -7.919 -22.942  0.00  0.00    -0.000 C 
ATOM     24  C   UNL     1      34.903  -8.187 -23.639  0.00  0.00    -0.000 C 
ENDBRANCH  18  19
ENDBRANCH   1  18
TORSDOF 4
ENDMDL
