MODEL 1
REMARK VINA RESULT:     -10.2      0.000      0.000
REMARK  Name = 65624
REMARK  5 active torsions:
REMARK  status: ('A' for Active; 'I' for Inactive)
REMARK    1  A    between atoms: N_2  and  C_12
REMARK    2  A    between atoms: C_4  and  C_18
REMARK    3  A    between atoms: C_12  and  C_13
REMARK    4  A    between atoms: C_13  and  N_14
REMARK    5  A    between atoms: C_18  and  C_19
REMARK                            x       y       z     vdW  Elec       q    Type
REMARK                         _______ _______ _______ _____ _____    ______ ____
ROOT
ATOM      1  O   UNL     1      34.889 -23.512 -13.333  0.00  0.00    -0.266 OA
ATOM      2  N   UNL     1      35.452 -23.454 -15.583  0.00  0.00    -0.219 N 
ATOM      3  N   UNL     1      35.076 -23.374 -16.892  0.00  0.00    -0.171 NA
ATOM      4  C   UNL     1      33.819 -23.281 -17.190  0.00  0.00    +0.083 A 
ATOM      5  C   UNL     1      32.745 -23.256 -16.183  0.00  0.00    +0.020 A 
ATOM      6  C   UNL     1      33.129 -23.336 -14.849  0.00  0.00    +0.059 A 
ATOM      7  C   UNL     1      34.561 -23.442 -14.515  0.00  0.00    +0.276 A 
ATOM      8  C   UNL     1      31.392 -23.156 -16.518  0.00  0.00    +0.001 C 
ATOM      9  C   UNL     1      32.162 -23.317 -13.837  0.00  0.00    +0.005 C 
ATOM     10  C   UNL     1      30.427 -23.138 -15.509  0.00  0.00    +0.000 C 
ATOM     11  C   UNL     1      30.812 -23.219 -14.172  0.00  0.00    +0.000 C 
ENDROOT
BRANCH   2  12
ATOM     12  C   UNL     1      36.886 -23.555 -15.372  0.00  0.00    +0.108 C 
BRANCH  12  13
ATOM     13  C   UNL     1      37.250 -24.990 -15.010  0.00  0.00    -0.051 C 
BRANCH  13  14
ATOM     14  N   UNL     1      37.856 -25.042 -13.685  0.00  0.00    +0.385 N 
ATOM     15  C   UNL     1      39.290 -25.317 -13.785  0.00  0.00    -0.101 C 
ATOM     16  C   UNL     1      37.200 -26.056 -12.858  0.00  0.00    -0.101 C 
ATOM     17  H   UNL     1      37.730 -24.131 -13.243  0.00  0.00    -0.080 HD
ENDBRANCH  13  14
ENDBRANCH  12  13
ENDBRANCH   2  12
BRANCH   4  18
ATOM     18  C   UNL     1      33.458 -23.195 -18.655  0.00  0.00    +0.074 C 
BRANCH  18  19
ATOM     19  C   UNL     1      34.147 -22.034 -19.298  0.00  0.00    -0.016 C 
ATOM     20  C   UNL     1      33.395 -21.042 -19.923  0.00  0.00    -0.004 C 
ATOM     21  C   UNL     1      35.537 -21.950 -19.270  0.00  0.00    -0.004 C 
ATOM     22  C   UNL     1      34.038 -19.959 -20.524  0.00  0.00    -0.000 C 
ATOM     23  C   UNL     1      36.179 -20.866 -19.871  0.00  0.00    -0.000 C 
ATOM     24  C   UNL     1      35.430 -19.871 -20.497  0.00  0.00    -0.000 C 
ENDBRANCH  18  19
ENDBRANCH   4  18
TORSDOF 5
ENDMDL
MODEL 2
REMARK VINA RESULT:      -9.5      1.954      6.464
REMARK  Name = 65624
REMARK  5 active torsions:
REMARK  status: ('A' for Active; 'I' for Inactive)
REMARK    1  A    between atoms: N_2  and  C_12
REMARK    2  A    between atoms: C_4  and  C_18
REMARK    3  A    between atoms: C_12  and  C_13
REMARK    4  A    between atoms: C_13  and  N_14
REMARK    5  A    between atoms: C_18  and  C_19
REMARK                            x       y       z     vdW  Elec       q    Type
REMARK                         _______ _______ _______ _____ _____    ______ ____
ROOT
ATOM      1  O   UNL     1      32.184 -23.111 -17.696  0.00  0.00    -0.266 OA
ATOM      2  N   UNL     1      33.610 -23.404 -15.889  0.00  0.00    -0.219 N 
ATOM      3  N   UNL     1      34.847 -23.277 -15.330  0.00  0.00    -0.171 NA
ATOM      4  C   UNL     1      35.810 -22.753 -16.020  0.00  0.00    +0.083 A 
ATOM      5  C   UNL     1      35.648 -22.276 -17.404  0.00  0.00    +0.020 A 
ATOM      6  C   UNL     1      34.387 -22.404 -17.973  0.00  0.00    +0.059 A 
ATOM      7  C   UNL     1      33.296 -23.001 -17.183  0.00  0.00    +0.276 A 
ATOM      8  C   UNL     1      36.695 -21.713 -18.140  0.00  0.00    +0.001 C 
ATOM      9  C   UNL     1      34.160 -21.972 -19.285  0.00  0.00    +0.005 C 
ATOM     10  C   UNL     1      36.469 -21.281 -19.449  0.00  0.00    +0.000 C 
ATOM     11  C   UNL     1      35.205 -21.411 -20.019  0.00  0.00    +0.000 C 
ENDROOT
BRANCH   2  12
ATOM     12  C   UNL     1      32.613 -24.006 -15.020  0.00  0.00    +0.108 C 
BRANCH  12  13
ATOM     13  C   UNL     1      31.749 -22.914 -14.400  0.00  0.00    -0.051 C 
BRANCH  13  14
ATOM     14  N   UNL     1      30.371 -23.372 -14.266  0.00  0.00    +0.385 N 
ATOM     15  C   UNL     1      30.309 -24.835 -14.290  0.00  0.00    -0.101 C 
ATOM     16  C   UNL     1      29.536 -22.811 -15.330  0.00  0.00    -0.101 C 
ATOM     17  H   UNL     1      30.014 -23.046 -13.368  0.00  0.00    -0.080 HD
ENDBRANCH  13  14
ENDBRANCH  12  13
ENDBRANCH   2  12
BRANCH   4  18
ATOM     18  C   UNL     1      37.159 -22.635 -15.353  0.00  0.00    +0.074 C 
BRANCH  18  19
ATOM     19  C   UNL     1      37.363 -23.754 -14.380  0.00  0.00    -0.016 C 
ATOM     20  C   UNL     1      37.638 -25.037 -14.847  0.00  0.00    -0.004 C 
ATOM     21  C   UNL     1      37.275 -23.507 -13.013  0.00  0.00    -0.004 C 
ATOM     22  C   UNL     1      37.827 -26.079 -13.941  0.00  0.00    -0.000 C 
ATOM     23  C   UNL     1      37.465 -24.551 -12.106  0.00  0.00    -0.000 C 
ATOM     24  C   UNL     1      37.741 -25.837 -12.570  0.00  0.00    -0.000 C 
ENDBRANCH  18  19
ENDBRANCH   4  18
TORSDOF 5
ENDMDL
MODEL 3
REMARK VINA RESULT:      -9.4      2.039      6.056
REMARK  Name = 65624
REMARK  5 active torsions:
REMARK  status: ('A' for Active; 'I' for Inactive)
REMARK    1  A    between atoms: N_2  and  C_12
REMARK    2  A    between atoms: C_4  and  C_18
REMARK    3  A    between atoms: C_12  and  C_13
REMARK    4  A    between atoms: C_13  and  N_14
REMARK    5  A    between atoms: C_18  and  C_19
REMARK                            x       y       z     vdW  Elec       q    Type
REMARK                         _______ _______ _______ _____ _____    ______ ____
ROOT
ATOM      1  O   UNL     1      32.812 -22.475 -19.279  0.00  0.00    -0.266 OA
ATOM      2  N   UNL     1      34.932 -22.422 -18.339  0.00  0.00    -0.219 N 
ATOM      3  N   UNL     1      35.744 -22.550 -17.251  0.00  0.00    -0.171 NA
ATOM      4  C   UNL     1      35.227 -22.843 -16.099  0.00  0.00    +0.083 A 
ATOM      5  C   UNL     1      33.785 -23.051 -15.887  0.00  0.00    +0.020 A 
ATOM      6  C   UNL     1      32.958 -22.921 -16.997  0.00  0.00    +0.059 A 
ATOM      7  C   UNL     1      33.552 -22.588 -18.304  0.00  0.00    +0.276 A 
ATOM      8  C   UNL     1      33.240 -23.365 -14.639  0.00  0.00    +0.001 C 
ATOM      9  C   UNL     1      31.577 -23.105 -16.869  0.00  0.00    +0.005 C 
ATOM     10  C   UNL     1      31.861 -23.548 -14.511  0.00  0.00    +0.000 C 
ATOM     11  C   UNL     1      31.032 -23.418 -15.624  0.00  0.00    +0.000 C 
ENDROOT
BRANCH   2  12
ATOM     12  C   UNL     1      35.625 -22.091 -19.573  0.00  0.00    +0.108 C 
BRANCH  12  13
ATOM     13  C   UNL     1      35.889 -20.592 -19.625  0.00  0.00    -0.051 C 
BRANCH  13  14
ATOM     14  N   UNL     1      35.470 -20.047 -20.911  0.00  0.00    +0.385 N 
ATOM     15  C   UNL     1      36.272 -18.872 -21.259  0.00  0.00    -0.101 C 
ATOM     16  C   UNL     1      34.048 -19.702 -20.885  0.00  0.00    -0.101 C 
ATOM     17  H   UNL     1      35.617 -20.763 -21.623  0.00  0.00    -0.080 HD
ENDBRANCH  13  14
ENDBRANCH  12  13
ENDBRANCH   2  12
BRANCH   4  18
ATOM     18  C   UNL     1      36.172 -22.974 -14.928  0.00  0.00    +0.074 C 
BRANCH  18  19
ATOM     19  C   UNL     1      36.816 -24.324 -14.920  0.00  0.00    -0.016 C 
ATOM     20  C   UNL     1      38.191 -24.433 -14.725  0.00  0.00    -0.004 C 
ATOM     21  C   UNL     1      36.040 -25.463 -15.110  0.00  0.00    -0.004 C 
ATOM     22  C   UNL     1      38.792 -25.692 -14.718  0.00  0.00    -0.000 C 
ATOM     23  C   UNL     1      36.642 -26.722 -15.104  0.00  0.00    -0.000 C 
ATOM     24  C   UNL     1      38.018 -26.837 -14.908  0.00  0.00    -0.000 C 
ENDBRANCH  18  19
ENDBRANCH   4  18
TORSDOF 5
ENDMDL
MODEL 4
REMARK VINA RESULT:      -9.4     13.863     17.193
REMARK  Name = 65624
REMARK  5 active torsions:
REMARK  status: ('A' for Active; 'I' for Inactive)
REMARK    1  A    between atoms: N_2  and  C_12
REMARK    2  A    between atoms: C_4  and  C_18
REMARK    3  A    between atoms: C_12  and  C_13
REMARK    4  A    between atoms: C_13  and  N_14
REMARK    5  A    between atoms: C_18  and  C_19
REMARK                            x       y       z     vdW  Elec       q    Type
REMARK                         _______ _______ _______ _____ _____    ______ ____
ROOT
ATOM      1  O   UNL     1      30.438  -5.629 -21.643  0.00  0.00    -0.266 OA
ATOM      2  N   UNL     1      32.231  -7.091 -21.461  0.00  0.00    -0.219 N 
ATOM      3  N   UNL     1      33.359  -7.646 -21.990  0.00  0.00    -0.171 NA
ATOM      4  C   UNL     1      33.758  -7.283 -23.168  0.00  0.00    +0.083 A 
ATOM      5  C   UNL     1      33.053  -6.286 -23.991  0.00  0.00    +0.020 A 
ATOM      6  C   UNL     1      31.905  -5.719 -23.451  0.00  0.00    +0.059 A 
ATOM      7  C   UNL     1      31.456  -6.136 -22.111  0.00  0.00    +0.276 A 
ATOM      8  C   UNL     1      33.493  -5.903 -25.261  0.00  0.00    +0.001 C 
ATOM      9  C   UNL     1      31.184  -4.764 -24.178  0.00  0.00    +0.005 C 
ATOM     10  C   UNL     1      32.774  -4.951 -25.986  0.00  0.00    +0.000 C 
ATOM     11  C   UNL     1      31.622  -4.383 -25.445  0.00  0.00    +0.000 C 
ENDROOT
BRANCH   2  12
ATOM     12  C   UNL     1      31.883  -7.576 -20.136  0.00  0.00    +0.108 C 
BRANCH  12  13
ATOM     13  C   UNL     1      32.387  -9.003 -19.966  0.00  0.00    -0.051 C 
BRANCH  13  14
ATOM     14  N   UNL     1      31.267  -9.935 -19.917  0.00  0.00    +0.385 N 
ATOM     15  C   UNL     1      31.348 -10.778 -18.723  0.00  0.00    -0.101 C 
ATOM     16  C   UNL     1      31.234 -10.765 -21.123  0.00  0.00    -0.101 C 
ATOM     17  H   UNL     1      30.404  -9.393 -19.874  0.00  0.00    -0.080 HD
ENDBRANCH  13  14
ENDBRANCH  12  13
ENDBRANCH   2  12
BRANCH   4  18
ATOM     18  C   UNL     1      35.013  -7.929 -23.705  0.00  0.00    +0.074 C 
BRANCH  18  19
ATOM     19  C   UNL     1      34.698  -9.256 -24.321  0.00  0.00    -0.016 C 
ATOM     20  C   UNL     1      33.715 -10.065 -23.757  0.00  0.00    -0.004 C 
ATOM     21  C   UNL     1      35.389  -9.675 -25.454  0.00  0.00    -0.004 C 
ATOM     22  C   UNL     1      33.421 -11.302 -24.330  0.00  0.00    -0.000 C 
ATOM     23  C   UNL     1      35.094 -10.913 -26.028  0.00  0.00    -0.000 C 
ATOM     24  C   UNL     1      34.111 -11.726 -25.466  0.00  0.00    -0.000 C 
ENDBRANCH  18  19
ENDBRANCH   4  18
TORSDOF 5
ENDMDL
MODEL 5
REMARK VINA RESULT:      -9.0      9.569     12.997
REMARK  Name = 65624
REMARK  5 active torsions:
REMARK  status: ('A' for Active; 'I' for Inactive)
REMARK    1  A    between atoms: N_2  and  C_12
REMARK    2  A    between atoms: C_4  and  C_18
REMARK    3  A    between atoms: C_12  and  C_13
REMARK    4  A    between atoms: C_13  and  N_14
REMARK    5  A    between atoms: C_18  and  C_19
REMARK                            x       y       z     vdW  Elec       q    Type
REMARK                         _______ _______ _______ _____ _____    ______ ____
ROOT
ATOM      1  O   UNL     1      32.775 -14.883 -19.884  0.00  0.00    -0.266 OA
ATOM      2  N   UNL     1      32.285 -13.311 -21.519  0.00  0.00    -0.219 N 
ATOM      3  N   UNL     1      32.371 -12.889 -22.813  0.00  0.00    -0.171 NA
ATOM      4  C   UNL     1      33.008 -13.611 -23.680  0.00  0.00    +0.083 A 
ATOM      5  C   UNL     1      33.662 -14.888 -23.347  0.00  0.00    +0.020 A 
ATOM      6  C   UNL     1      33.573 -15.318 -22.029  0.00  0.00    +0.059 A 
ATOM      7  C   UNL     1      32.847 -14.493 -21.048  0.00  0.00    +0.276 A 
ATOM      8  C   UNL     1      34.348 -15.657 -24.291  0.00  0.00    +0.001 C 
ATOM      9  C   UNL     1      34.171 -16.523 -21.641  0.00  0.00    +0.005 C 
ATOM     10  C   UNL     1      34.945 -16.859 -23.905  0.00  0.00    +0.000 C 
ATOM     11  C   UNL     1      34.856 -17.290 -22.583  0.00  0.00    +0.000 C 
ENDROOT
BRANCH   2  12
ATOM     12  C   UNL     1      31.547 -12.419 -20.641  0.00  0.00    +0.108 C 
BRANCH  12  13
ATOM     13  C   UNL     1      31.036 -11.225 -21.436  0.00  0.00    -0.051 C 
BRANCH  13  14
ATOM     14  N   UNL     1      31.919 -10.078 -21.254  0.00  0.00    +0.385 N 
ATOM     15  C   UNL     1      31.828  -9.571 -19.884  0.00  0.00    -0.101 C 
ATOM     16  C   UNL     1      31.592  -9.019 -22.210  0.00  0.00    -0.101 C 
ATOM     17  H   UNL     1      32.877 -10.385 -21.424  0.00  0.00    -0.080 HD
ENDBRANCH  13  14
ENDBRANCH  12  13
ENDBRANCH   2  12
BRANCH   4  18
ATOM     18  C   UNL     1      33.072 -13.097 -25.099  0.00  0.00    +0.074 C 
BRANCH  18  19
ATOM     19  C   UNL     1      33.921 -11.867 -25.174  0.00  0.00    -0.016 C 
ATOM     20  C   UNL     1      34.715 -11.641 -26.295  0.00  0.00    -0.004 C 
ATOM     21  C   UNL     1      33.913 -10.955 -24.122  0.00  0.00    -0.004 C 
ATOM     22  C   UNL     1      35.506 -10.495 -26.365  0.00  0.00    -0.000 C 
ATOM     23  C   UNL     1      34.705  -9.808 -24.193  0.00  0.00    -0.000 C 
ATOM     24  C   UNL     1      35.502  -9.578 -25.314  0.00  0.00    -0.000 C 
ENDBRANCH  18  19
ENDBRANCH   4  18
TORSDOF 5
ENDMDL
MODEL 6
REMARK VINA RESULT:      -9.0      5.771     10.056
REMARK  Name = 65624
REMARK  5 active torsions:
REMARK  status: ('A' for Active; 'I' for Inactive)
REMARK    1  A    between atoms: N_2  and  C_12
REMARK    2  A    between atoms: C_4  and  C_18
REMARK    3  A    between atoms: C_12  and  C_13
REMARK    4  A    between atoms: C_13  and  N_14
REMARK    5  A    between atoms: C_18  and  C_19
REMARK                            x       y       z     vdW  Elec       q    Type
REMARK                         _______ _______ _______ _____ _____    ______ ____
ROOT
ATOM      1  O   UNL     1      33.635 -15.022 -23.402  0.00  0.00    -0.266 OA
ATOM      2  N   UNL     1      34.629 -15.885 -21.491  0.00  0.00    -0.219 N 
ATOM      3  N   UNL     1      35.269 -16.905 -20.852  0.00  0.00    -0.171 NA
ATOM      4  C   UNL     1      35.517 -18.004 -21.492  0.00  0.00    +0.083 A 
ATOM      5  C   UNL     1      35.142 -18.225 -22.899  0.00  0.00    +0.020 A 
ATOM      6  C   UNL     1      34.492 -17.184 -23.550  0.00  0.00    +0.059 A 
ATOM      7  C   UNL     1      34.212 -15.937 -22.817  0.00  0.00    +0.276 A 
ATOM      8  C   UNL     1      35.415 -19.416 -23.578  0.00  0.00    +0.001 C 
ATOM      9  C   UNL     1      34.106 -17.324 -24.888  0.00  0.00    +0.005 C 
ATOM     10  C   UNL     1      35.030 -19.556 -24.913  0.00  0.00    +0.000 C 
ATOM     11  C   UNL     1      34.376 -18.513 -25.566  0.00  0.00    +0.000 C 
ENDROOT
BRANCH   2  12
ATOM     12  C   UNL     1      34.406 -14.705 -20.672  0.00  0.00    +0.108 C 
BRANCH  12  13
ATOM     13  C   UNL     1      32.917 -14.384 -20.633  0.00  0.00    -0.051 C 
BRANCH  13  14
ATOM     14  N   UNL     1      32.688 -12.993 -21.006  0.00  0.00    +0.385 N 
ATOM     15  C   UNL     1      31.908 -12.305 -19.976  0.00  0.00    -0.101 C 
ATOM     16  C   UNL     1      32.005 -12.912 -22.299  0.00  0.00    -0.101 C 
ATOM     17  H   UNL     1      33.594 -12.533 -21.089  0.00  0.00    -0.080 HD
ENDBRANCH  13  14
ENDBRANCH  12  13
ENDBRANCH   2  12
BRANCH   4  18
ATOM     18  C   UNL     1      36.229 -19.102 -20.737  0.00  0.00    +0.074 C 
BRANCH  18  19
ATOM     19  C   UNL     1      35.247 -20.111 -20.230  0.00  0.00    -0.016 C 
ATOM     20  C   UNL     1      33.885 -19.921 -20.445  0.00  0.00    -0.004 C 
ATOM     21  C   UNL     1      35.701 -21.234 -19.544  0.00  0.00    -0.004 C 
ATOM     22  C   UNL     1      32.970 -20.861 -19.972  0.00  0.00    -0.000 C 
ATOM     23  C   UNL     1      34.785 -22.174 -19.071  0.00  0.00    -0.000 C 
ATOM     24  C   UNL     1      33.419 -21.988 -19.285  0.00  0.00    -0.000 C 
ENDBRANCH  18  19
ENDBRANCH   4  18
TORSDOF 5
ENDMDL
MODEL 7
REMARK VINA RESULT:      -9.0      2.336      6.818
REMARK  Name = 65624
REMARK  5 active torsions:
REMARK  status: ('A' for Active; 'I' for Inactive)
REMARK    1  A    between atoms: N_2  and  C_12
REMARK    2  A    between atoms: C_4  and  C_18
REMARK    3  A    between atoms: C_12  and  C_13
REMARK    4  A    between atoms: C_13  and  N_14
REMARK    5  A    between atoms: C_18  and  C_19
REMARK                            x       y       z     vdW  Elec       q    Type
REMARK                         _______ _______ _______ _____ _____    ______ ____
ROOT
ATOM      1  O   UNL     1      32.456 -22.766 -18.635  0.00  0.00    -0.266 OA
ATOM      2  N   UNL     1      32.615 -23.461 -16.427  0.00  0.00    -0.219 N 
ATOM      3  N   UNL     1      33.351 -23.622 -15.290  0.00  0.00    -0.171 NA
ATOM      4  C   UNL     1      34.593 -23.255 -15.277  0.00  0.00    +0.083 A 
ATOM      5  C   UNL     1      35.276 -22.662 -16.439  0.00  0.00    +0.020 A 
ATOM      6  C   UNL     1      34.525 -22.497 -17.597  0.00  0.00    +0.059 A 
ATOM      7  C   UNL     1      33.112 -22.916 -17.606  0.00  0.00    +0.276 A 
ATOM      8  C   UNL     1      36.618 -22.271 -16.413  0.00  0.00    +0.001 C 
ATOM      9  C   UNL     1      35.108 -21.939 -18.740  0.00  0.00    +0.005 C 
ATOM     10  C   UNL     1      37.201 -21.715 -17.554  0.00  0.00    +0.000 C 
ATOM     11  C   UNL     1      36.447 -21.550 -18.714  0.00  0.00    +0.000 C 
ENDROOT
BRANCH   2  12
ATOM     12  C   UNL     1      31.236 -23.909 -16.321  0.00  0.00    +0.108 C 
BRANCH  12  13
ATOM     13  C   UNL     1      30.359 -22.757 -15.847  0.00  0.00    -0.051 C 
BRANCH  13  14
ATOM     14  N   UNL     1      29.018 -22.876 -16.407  0.00  0.00    +0.385 N 
ATOM     15  C   UNL     1      28.047 -22.159 -15.578  0.00  0.00    -0.101 C 
ATOM     16  C   UNL     1      28.635 -24.283 -16.535  0.00  0.00    -0.101 C 
ATOM     17  H   UNL     1      29.024 -22.455 -17.337  0.00  0.00    -0.080 HD
ENDBRANCH  13  14
ENDBRANCH  12  13
ENDBRANCH   2  12
BRANCH   4  18
ATOM     18  C   UNL     1      35.363 -23.456 -13.993  0.00  0.00    +0.074 C 
BRANCH  18  19
ATOM     19  C   UNL     1      36.374 -24.548 -14.152  0.00  0.00    -0.016 C 
ATOM     20  C   UNL     1      37.615 -24.438 -13.529  0.00  0.00    -0.004 C 
ATOM     21  C   UNL     1      36.070 -25.666 -14.923  0.00  0.00    -0.004 C 
ATOM     22  C   UNL     1      38.558 -25.455 -13.678  0.00  0.00    -0.000 C 
ATOM     23  C   UNL     1      37.014 -26.684 -15.070  0.00  0.00    -0.000 C 
ATOM     24  C   UNL     1      38.257 -26.578 -14.448  0.00  0.00    -0.000 C 
ENDBRANCH  18  19
ENDBRANCH   4  18
TORSDOF 5
ENDMDL
MODEL 8
REMARK VINA RESULT:      -8.9     12.560     15.938
REMARK  Name = 65624
REMARK  5 active torsions:
REMARK  status: ('A' for Active; 'I' for Inactive)
REMARK    1  A    between atoms: N_2  and  C_12
REMARK    2  A    between atoms: C_4  and  C_18
REMARK    3  A    between atoms: C_12  and  C_13
REMARK    4  A    between atoms: C_13  and  N_14
REMARK    5  A    between atoms: C_18  and  C_19
REMARK                            x       y       z     vdW  Elec       q    Type
REMARK                         _______ _______ _______ _____ _____    ______ ____
ROOT
ATOM      1  O   UNL     1      31.719 -11.890 -22.483  0.00  0.00    -0.266 OA
ATOM      2  N   UNL     1      33.179 -10.724 -23.858  0.00  0.00    -0.219 N 
ATOM      3  N   UNL     1      33.918  -9.607 -24.118  0.00  0.00    -0.171 NA
ATOM      4  C   UNL     1      33.900  -8.621 -23.278  0.00  0.00    +0.083 A 
ATOM      5  C   UNL     1      33.115  -8.630 -22.032  0.00  0.00    +0.020 A 
ATOM      6  C   UNL     1      32.364  -9.769 -21.767  0.00  0.00    +0.059 A 
ATOM      7  C   UNL     1      32.387 -10.887 -22.726  0.00  0.00    +0.276 A 
ATOM      8  C   UNL     1      33.104  -7.558 -21.135  0.00  0.00    +0.001 C 
ATOM      9  C   UNL     1      31.594  -9.847 -20.602  0.00  0.00    +0.005 C 
ATOM     10  C   UNL     1      32.335  -7.636 -19.971  0.00  0.00    +0.000 C 
ATOM     11  C   UNL     1      31.582  -8.777 -19.706  0.00  0.00    +0.000 C 
ENDROOT
BRANCH   2  12
ATOM     12  C   UNL     1      33.277 -11.761 -24.871  0.00  0.00    +0.108 C 
BRANCH  12  13
ATOM     13  C   UNL     1      33.986 -12.978 -24.289  0.00  0.00    -0.051 C 
BRANCH  13  14
ATOM     14  N   UNL     1      33.107 -14.141 -24.318  0.00  0.00    +0.385 N 
ATOM     15  C   UNL     1      33.554 -15.150 -23.357  0.00  0.00    -0.101 C 
ATOM     16  C   UNL     1      33.051 -14.711 -25.665  0.00  0.00    -0.101 C 
ATOM     17  H   UNL     1      32.169 -13.836 -24.056  0.00  0.00    -0.080 HD
ENDBRANCH  13  14
ENDBRANCH  12  13
ENDBRANCH   2  12
BRANCH   4  18
ATOM     18  C   UNL     1      34.736  -7.408 -23.614  0.00  0.00    +0.074 C 
BRANCH  18  19
ATOM     19  C   UNL     1      33.999  -6.506 -24.552  0.00  0.00    -0.016 C 
ATOM     20  C   UNL     1      34.620  -6.059 -25.716  0.00  0.00    -0.004 C 
ATOM     21  C   UNL     1      32.695  -6.116 -24.257  0.00  0.00    -0.004 C 
ATOM     22  C   UNL     1      33.933  -5.217 -26.590  0.00  0.00    -0.000 C 
ATOM     23  C   UNL     1      32.008  -5.274 -25.132  0.00  0.00    -0.000 C 
ATOM     24  C   UNL     1      32.627  -4.825 -26.298  0.00  0.00    -0.000 C 
ENDBRANCH  18  19
ENDBRANCH   4  18
TORSDOF 5
ENDMDL
MODEL 9
REMARK VINA RESULT:      -8.7      8.096     11.364
REMARK  Name = 65624
REMARK  5 active torsions:
REMARK  status: ('A' for Active; 'I' for Inactive)
REMARK    1  A    between atoms: N_2  and  C_12
REMARK    2  A    between atoms: C_4  and  C_18
REMARK    3  A    between atoms: C_12  and  C_13
REMARK    4  A    between atoms: C_13  and  N_14
REMARK    5  A    between atoms: C_18  and  C_19
REMARK                            x       y       z     vdW  Elec       q    Type
REMARK                         _______ _______ _______ _____ _____    ______ ____
ROOT
ATOM      1  O   UNL     1      34.383 -15.695 -20.443  0.00  0.00    -0.266 OA
ATOM      2  N   UNL     1      34.460 -15.573 -22.759  0.00  0.00    -0.219 N 
ATOM      3  N   UNL     1      34.078 -14.974 -23.922  0.00  0.00    -0.171 NA
ATOM      4  C   UNL     1      33.277 -13.956 -23.883  0.00  0.00    +0.083 A 
ATOM      5  C   UNL     1      32.742 -13.393 -22.632  0.00  0.00    +0.020 A 
ATOM      6  C   UNL     1      33.133 -14.004 -21.446  0.00  0.00    +0.059 A 
ATOM      7  C   UNL     1      34.044 -15.161 -21.497  0.00  0.00    +0.276 A 
ATOM      8  C   UNL     1      31.878 -12.295 -22.603  0.00  0.00    +0.001 C 
ATOM      9  C   UNL     1      32.663 -13.522 -20.219  0.00  0.00    +0.005 C 
ATOM     10  C   UNL     1      31.408 -11.814 -21.379  0.00  0.00    +0.000 C 
ATOM     11  C   UNL     1      31.800 -12.426 -20.190  0.00  0.00    +0.000 C 
ENDROOT
BRANCH   2  12
ATOM     12  C   UNL     1      35.357 -16.704 -22.929  0.00  0.00    +0.108 C 
BRANCH  12  13
ATOM     13  C   UNL     1      34.584 -18.003 -22.744  0.00  0.00    -0.051 C 
BRANCH  13  14
ATOM     14  N   UNL     1      34.799 -18.536 -21.404  0.00  0.00    +0.385 N 
ATOM     15  C   UNL     1      36.223 -18.782 -21.170  0.00  0.00    -0.101 C 
ATOM     16  C   UNL     1      34.032 -19.768 -21.210  0.00  0.00    -0.101 C 
ATOM     17  H   UNL     1      34.474 -17.843 -20.730  0.00  0.00    -0.080 HD
ENDBRANCH  13  14
ENDBRANCH  12  13
ENDBRANCH   2  12
BRANCH   4  18
ATOM     18  C   UNL     1      32.886 -13.329 -25.200  0.00  0.00    +0.074 C 
BRANCH  18  19
ATOM     19  C   UNL     1      33.859 -12.260 -25.583  0.00  0.00    -0.016 C 
ATOM     20  C   UNL     1      34.200 -11.272 -24.662  0.00  0.00    -0.004 C 
ATOM     21  C   UNL     1      34.419 -12.257 -26.858  0.00  0.00    -0.004 C 
ATOM     22  C   UNL     1      35.107 -10.274 -25.019  0.00  0.00    -0.000 C 
ATOM     23  C   UNL     1      35.327 -11.258 -27.214  0.00  0.00    -0.000 C 
ATOM     24  C   UNL     1      35.671 -10.268 -26.295  0.00  0.00    -0.000 C 
ENDBRANCH  18  19
ENDBRANCH   4  18
TORSDOF 5
ENDMDL
