MODEL 1
REMARK VINA RESULT:      -8.9      0.000      0.000
REMARK  Name = 208953
REMARK  6 active torsions:
REMARK  status: ('A' for Active; 'I' for Inactive)
REMARK    1  A    between atoms: N_3  and  C_24
REMARK    2  A    between atoms: C_5  and  N_15
REMARK    3  A    between atoms: C_7  and  C_23
REMARK    4  A    between atoms: C_24  and  P_25
REMARK    5  A    between atoms: P_25  and  O_27
REMARK    6  A    between atoms: P_25  and  O_29
REMARK                            x       y       z     vdW  Elec       q    Type
REMARK                         _______ _______ _______ _____ _____    ______ ____
ROOT
ATOM      1  O   UNL     1      37.749 -24.918 -11.272  0.00  0.00    -0.262 OA
ATOM      2  O   UNL     1      35.401 -25.114 -10.151  0.00  0.00    -0.262 OA
ATOM      3  N   UNL     1      36.831 -24.246 -13.316  0.00  0.00    -0.279 N 
ATOM      4  N   UNL     1      34.336 -24.462 -12.084  0.00  0.00    -0.316 N 
ATOM      5  C   UNL     1      34.489 -23.266 -16.083  0.00  0.00    +0.053 C 
ATOM      6  C   UNL     1      35.647 -23.950 -14.052  0.00  0.00    +0.080 A 
ATOM      7  C   UNL     1      33.262 -23.383 -15.437  0.00  0.00    +0.086 C 
ATOM      8  C   UNL     1      35.674 -23.547 -15.397  0.00  0.00    +0.033 C 
ATOM      9  C   UNL     1      34.408 -24.063 -13.420  0.00  0.00    +0.075 A 
ATOM     10  C   UNL     1      33.219 -23.782 -14.104  0.00  0.00    +0.024 C 
ATOM     11  C   UNL     1      36.785 -24.645 -11.981  0.00  0.00    +0.318 A 
ATOM     12  C   UNL     1      35.436 -24.760 -11.323  0.00  0.00    +0.314 A 
ATOM     13  H   UNL     1      33.447 -24.532 -11.665  0.00  0.00    +0.169 HD
ENDROOT
BRANCH   5  15
ATOM     14  O   UNL     1      34.912 -22.231 -20.135  0.00  0.00    -0.350 OA
ATOM     15  N   UNL     1      34.555 -22.869 -17.422  0.00  0.00    -0.303 N 
ATOM     16  C   UNL     1      35.703 -22.058 -17.849  0.00  0.00    +0.123 C 
ATOM     17  C   UNL     1      33.964 -23.714 -18.465  0.00  0.00    +0.123 C 
ATOM     18  C   UNL     1      35.359 -21.316 -19.135  0.00  0.00    +0.164 C 
ATOM     19  C   UNL     1      33.714 -22.884 -19.720  0.00  0.00    +0.164 C 
ENDBRANCH   5  15
BRANCH   7  23
ATOM     20  F   UNL     1      32.107 -22.166 -17.142  0.00  0.00    -0.166 F 
ATOM     21  F   UNL     1      31.424 -24.185 -16.741  0.00  0.00    -0.166 F 
ATOM     22  F   UNL     1      31.022 -22.599 -15.309  0.00  0.00    -0.166 F 
ATOM     23  C   UNL     1      31.981 -23.090 -16.146  0.00  0.00    +0.420 C 
ENDBRANCH   7  23
BRANCH   3  24
ATOM     24  C   UNL     1      38.127 -24.128 -13.978  0.00  0.00    +0.225 C 
BRANCH  24  25
ATOM     25  P   UNL     1      38.661 -25.748 -14.477  0.00  0.00    +0.360 P 
ATOM     26  O   UNL     1      37.539 -26.699 -14.771  0.00  0.00    -0.256 OA
BRANCH  25  27
ATOM     27  O   UNL     1      39.655 -26.219 -13.291  0.00  0.00    -0.322 OA
ATOM     28  H   UNL     1      39.281 -25.962 -12.434  0.00  0.00    +0.220 HD
ENDBRANCH  25  27
BRANCH  25  29
ATOM     29  O   UNL     1      39.658 -25.471 -15.718  0.00  0.00    -0.322 OA
ATOM     30  H   UNL     1      40.352 -24.851 -15.444  0.00  0.00    +0.220 HD
ENDBRANCH  25  29
ENDBRANCH  24  25
ENDBRANCH   3  24
TORSDOF 6
ENDMDL
MODEL 2
REMARK VINA RESULT:      -8.7      3.584      6.220
REMARK  Name = 208953
REMARK  6 active torsions:
REMARK  status: ('A' for Active; 'I' for Inactive)
REMARK    1  A    between atoms: N_3  and  C_24
REMARK    2  A    between atoms: C_5  and  N_15
REMARK    3  A    between atoms: C_7  and  C_23
REMARK    4  A    between atoms: C_24  and  P_25
REMARK    5  A    between atoms: P_25  and  O_27
REMARK    6  A    between atoms: P_25  and  O_29
REMARK                            x       y       z     vdW  Elec       q    Type
REMARK                         _______ _______ _______ _____ _____    ______ ____
ROOT
ATOM      1  O   UNL     1      30.573 -22.860 -17.061  0.00  0.00    -0.262 OA
ATOM      2  O   UNL     1      29.872 -22.201 -14.636  0.00  0.00    -0.262 OA
ATOM      3  N   UNL     1      32.664 -23.639 -16.357  0.00  0.00    -0.279 N 
ATOM      4  N   UNL     1      31.879 -22.926 -13.774  0.00  0.00    -0.316 N 
ATOM      5  C   UNL     1      35.664 -24.606 -14.318  0.00  0.00    +0.053 C 
ATOM      6  C   UNL     1      33.549 -23.851 -15.261  0.00  0.00    +0.080 A 
ATOM      7  C   UNL     1      35.241 -24.240 -13.044  0.00  0.00    +0.086 C 
ATOM      8  C   UNL     1      34.826 -24.414 -15.420  0.00  0.00    +0.033 C 
ATOM      9  C   UNL     1      33.141 -23.490 -13.976  0.00  0.00    +0.075 A 
ATOM     10  C   UNL     1      33.978 -23.681 -12.870  0.00  0.00    +0.024 C 
ATOM     11  C   UNL     1      31.399 -23.078 -16.180  0.00  0.00    +0.318 A 
ATOM     12  C   UNL     1      30.983 -22.695 -14.786  0.00  0.00    +0.314 A 
ATOM     13  H   UNL     1      31.620 -22.681 -12.856  0.00  0.00    +0.169 HD
ENDROOT
BRANCH   5  15
ATOM     14  O   UNL     1      39.411 -26.306 -15.180  0.00  0.00    -0.350 OA
ATOM     15  N   UNL     1      36.930 -25.168 -14.514  0.00  0.00    -0.303 N 
ATOM     16  C   UNL     1      37.006 -26.555 -14.994  0.00  0.00    +0.123 C 
ATOM     17  C   UNL     1      38.058 -24.312 -14.895  0.00  0.00    +0.123 C 
ATOM     18  C   UNL     1      38.374 -27.139 -14.663  0.00  0.00    +0.164 C 
ATOM     19  C   UNL     1      39.372 -25.017 -14.570  0.00  0.00    +0.164 C 
ENDBRANCH   5  15
BRANCH   7  23
ATOM     20  F   UNL     1      36.715 -25.659 -11.805  0.00  0.00    -0.166 F 
ATOM     21  F   UNL     1      37.138 -23.533 -11.771  0.00  0.00    -0.166 F 
ATOM     22  F   UNL     1      35.431 -24.316 -10.676  0.00  0.00    -0.166 F 
ATOM     23  C   UNL     1      36.116 -24.434 -11.849  0.00  0.00    +0.420 C 
ENDBRANCH   7  23
BRANCH   3  24
ATOM     24  C   UNL     1      33.092 -24.017 -17.700  0.00  0.00    +0.225 C 
BRANCH  24  25
ATOM     25  P   UNL     1      33.874 -22.616 -18.464  0.00  0.00    +0.360 P 
ATOM     26  O   UNL     1      34.989 -22.022 -17.656  0.00  0.00    -0.256 OA
BRANCH  25  27
ATOM     27  O   UNL     1      32.653 -21.604 -18.780  0.00  0.00    -0.322 OA
ATOM     28  H   UNL     1      31.822 -22.102 -18.821  0.00  0.00    +0.220 HD
ENDBRANCH  25  27
BRANCH  25  29
ATOM     29  O   UNL     1      34.308 -23.153 -19.926  0.00  0.00    -0.322 OA
ATOM     30  H   UNL     1      33.858 -23.993 -20.107  0.00  0.00    +0.220 HD
ENDBRANCH  25  29
ENDBRANCH  24  25
ENDBRANCH   3  24
TORSDOF 6
ENDMDL
MODEL 3
REMARK VINA RESULT:      -8.4     12.531     14.998
REMARK  Name = 208953
REMARK  6 active torsions:
REMARK  status: ('A' for Active; 'I' for Inactive)
REMARK    1  A    between atoms: N_3  and  C_24
REMARK    2  A    between atoms: C_5  and  N_15
REMARK    3  A    between atoms: C_7  and  C_23
REMARK    4  A    between atoms: C_24  and  P_25
REMARK    5  A    between atoms: P_25  and  O_27
REMARK    6  A    between atoms: P_25  and  O_29
REMARK                            x       y       z     vdW  Elec       q    Type
REMARK                         _______ _______ _______ _____ _____    ______ ____
ROOT
ATOM      1  O   UNL     1      31.888  -7.528 -21.567  0.00  0.00    -0.262 OA
ATOM      2  O   UNL     1      31.389  -8.435 -19.172  0.00  0.00    -0.262 OA
ATOM      3  N   UNL     1      32.379  -9.663 -22.386  0.00  0.00    -0.279 N 
ATOM      4  N   UNL     1      31.834 -10.600 -19.813  0.00  0.00    -0.316 N 
ATOM      5  C   UNL     1      32.953 -13.356 -22.746  0.00  0.00    +0.053 C 
ATOM      6  C   UNL     1      32.486 -11.055 -22.099  0.00  0.00    +0.080 A 
ATOM      7  C   UNL     1      32.673 -13.789 -21.453  0.00  0.00    +0.086 C 
ATOM      8  C   UNL     1      32.861 -11.999 -23.068  0.00  0.00    +0.033 C 
ATOM      9  C   UNL     1      32.209 -11.507 -20.808  0.00  0.00    +0.075 A 
ATOM     10  C   UNL     1      32.301 -12.865 -20.481  0.00  0.00    +0.024 C 
ATOM     11  C   UNL     1      32.006  -8.740 -21.410  0.00  0.00    +0.318 A 
ATOM     12  C   UNL     1      31.715  -9.251 -20.026  0.00  0.00    +0.314 A 
ATOM     13  H   UNL     1      31.646 -10.949 -18.912  0.00  0.00    +0.169 HD
ENDROOT
BRANCH   5  15
ATOM     14  O   UNL     1      34.237 -15.894 -25.841  0.00  0.00    -0.350 OA
ATOM     15  N   UNL     1      33.331 -14.268 -23.737  0.00  0.00    -0.303 N 
ATOM     16  C   UNL     1      32.872 -14.028 -25.112  0.00  0.00    +0.123 C 
ATOM     17  C   UNL     1      34.601 -14.990 -23.619  0.00  0.00    +0.123 C 
ATOM     18  C   UNL     1      32.930 -15.325 -25.908  0.00  0.00    +0.164 C 
ATOM     19  C   UNL     1      34.568 -16.238 -24.497  0.00  0.00    +0.164 C 
ENDBRANCH   5  15
BRANCH   7  23
ATOM     20  F   UNL     1      32.272 -16.075 -22.035  0.00  0.00    -0.166 F 
ATOM     21  F   UNL     1      34.041 -15.657 -20.853  0.00  0.00    -0.166 F 
ATOM     22  F   UNL     1      32.072 -15.523 -19.942  0.00  0.00    -0.166 F 
ATOM     23  C   UNL     1      32.764 -15.232 -21.081  0.00  0.00    +0.420 C 
ENDBRANCH   7  23
BRANCH   3  24
ATOM     24  C   UNL     1      32.669  -9.192 -23.737  0.00  0.00    +0.225 C 
BRANCH  24  25
ATOM     25  P   UNL     1      34.360  -8.651 -23.801  0.00  0.00    +0.360 P 
ATOM     26  O   UNL     1      35.338  -9.736 -24.140  0.00  0.00    -0.256 OA
BRANCH  25  27
ATOM     27  O   UNL     1      34.604  -7.944 -22.367  0.00  0.00    -0.322 OA
ATOM     28  H   UNL     1      33.944  -8.263 -21.733  0.00  0.00    +0.220 HD
ENDBRANCH  25  27
BRANCH  25  29
ATOM     29  O   UNL     1      34.340  -7.410 -24.836  0.00  0.00    -0.322 OA
ATOM     30  H   UNL     1      35.230  -7.031 -24.905  0.00  0.00    +0.220 HD
ENDBRANCH  25  29
ENDBRANCH  24  25
ENDBRANCH   3  24
TORSDOF 6
ENDMDL
MODEL 4
REMARK VINA RESULT:      -8.0     10.968     14.282
REMARK  Name = 208953
REMARK  6 active torsions:
REMARK  status: ('A' for Active; 'I' for Inactive)
REMARK    1  A    between atoms: N_3  and  C_24
REMARK    2  A    between atoms: C_5  and  N_15
REMARK    3  A    between atoms: C_7  and  C_23
REMARK    4  A    between atoms: C_24  and  P_25
REMARK    5  A    between atoms: P_25  and  O_27
REMARK    6  A    between atoms: P_25  and  O_29
REMARK                            x       y       z     vdW  Elec       q    Type
REMARK                         _______ _______ _______ _____ _____    ______ ____
ROOT
ATOM      1  O   UNL     1      34.741 -17.072 -23.731  0.00  0.00    -0.262 OA
ATOM      2  O   UNL     1      33.865 -17.703 -21.355  0.00  0.00    -0.262 OA
ATOM      3  N   UNL     1      34.023 -14.856 -23.521  0.00  0.00    -0.279 N 
ATOM      4  N   UNL     1      33.102 -15.564 -20.982  0.00  0.00    -0.316 N 
ATOM      5  C   UNL     1      32.564 -11.629 -22.274  0.00  0.00    +0.053 C 
ATOM      6  C   UNL     1      33.386 -13.882 -22.699  0.00  0.00    +0.080 A 
ATOM      7  C   UNL     1      32.117 -12.015 -21.014  0.00  0.00    +0.086 C 
ATOM      8  C   UNL     1      33.193 -12.554 -23.112  0.00  0.00    +0.033 C 
ATOM      9  C   UNL     1      32.931 -14.253 -21.432  0.00  0.00    +0.075 A 
ATOM     10  C   UNL     1      32.300 -13.329 -20.590  0.00  0.00    +0.024 C 
ATOM     11  C   UNL     1      34.205 -16.171 -23.093  0.00  0.00    +0.318 A 
ATOM     12  C   UNL     1      33.705 -16.546 -21.725  0.00  0.00    +0.314 A 
ATOM     13  H   UNL     1      32.771 -15.795 -20.084  0.00  0.00    +0.169 HD
ENDROOT
BRANCH   5  15
ATOM     14  O   UNL     1      32.058  -7.775 -23.874  0.00  0.00    -0.350 OA
ATOM     15  N   UNL     1      32.388 -10.315 -22.720  0.00  0.00    -0.303 N 
ATOM     16  C   UNL     1      33.509  -9.661 -23.409  0.00  0.00    +0.123 C 
ATOM     17  C   UNL     1      31.055  -9.849 -23.115  0.00  0.00    +0.123 C 
ATOM     18  C   UNL     1      33.334  -8.148 -23.355  0.00  0.00    +0.164 C 
ATOM     19  C   UNL     1      31.010  -8.325 -23.078  0.00  0.00    +0.164 C 
ENDBRANCH   5  15
BRANCH   7  23
ATOM     20  F   UNL     1      32.001  -9.803 -20.111  0.00  0.00    -0.166 F 
ATOM     21  F   UNL     1      30.123 -10.851 -20.393  0.00  0.00    -0.166 F 
ATOM     22  F   UNL     1      31.471 -11.453 -18.797  0.00  0.00    -0.166 F 
ATOM     23  C   UNL     1      31.441 -11.048 -20.099  0.00  0.00    +0.420 C 
ENDBRANCH   7  23
BRANCH   3  24
ATOM     24  C   UNL     1      34.496 -14.467 -24.845  0.00  0.00    +0.225 C 
BRANCH  24  25
ATOM     25  P   UNL     1      33.274 -14.933 -26.048  0.00  0.00    +0.360 P 
ATOM     26  O   UNL     1      33.107 -16.415 -26.208  0.00  0.00    -0.256 OA
BRANCH  25  27
ATOM     27  O   UNL     1      33.722 -14.153 -27.391  0.00  0.00    -0.322 OA
ATOM     28  H   UNL     1      33.817 -13.207 -27.199  0.00  0.00    +0.220 HD
ENDBRANCH  25  27
BRANCH  25  29
ATOM     29  O   UNL     1      31.940 -14.148 -25.581  0.00  0.00    -0.322 OA
ATOM     30  H   UNL     1      32.125 -13.653 -24.767  0.00  0.00    +0.220 HD
ENDBRANCH  25  29
ENDBRANCH  24  25
ENDBRANCH   3  24
TORSDOF 6
ENDMDL
MODEL 5
REMARK VINA RESULT:      -7.9      8.526     12.968
REMARK  Name = 208953
REMARK  6 active torsions:
REMARK  status: ('A' for Active; 'I' for Inactive)
REMARK    1  A    between atoms: N_3  and  C_24
REMARK    2  A    between atoms: C_5  and  N_15
REMARK    3  A    between atoms: C_7  and  C_23
REMARK    4  A    between atoms: C_24  and  P_25
REMARK    5  A    between atoms: P_25  and  O_27
REMARK    6  A    between atoms: P_25  and  O_29
REMARK                            x       y       z     vdW  Elec       q    Type
REMARK                         _______ _______ _______ _____ _____    ______ ____
ROOT
ATOM      1  O   UNL     1      33.361 -11.836 -24.549  0.00  0.00    -0.262 OA
ATOM      2  O   UNL     1      33.157 -12.799 -26.965  0.00  0.00    -0.262 OA
ATOM      3  N   UNL     1      33.849 -13.936 -23.642  0.00  0.00    -0.279 N 
ATOM      4  N   UNL     1      33.626 -14.932 -26.240  0.00  0.00    -0.316 N 
ATOM      5  C   UNL     1      34.536 -17.595 -23.154  0.00  0.00    +0.053 C 
ATOM      6  C   UNL     1      34.045 -15.325 -23.889  0.00  0.00    +0.080 A 
ATOM      7  C   UNL     1      34.418 -18.058 -24.461  0.00  0.00    +0.086 C 
ATOM      8  C   UNL     1      34.350 -16.239 -22.868  0.00  0.00    +0.033 C 
ATOM      9  C   UNL     1      33.930 -15.807 -25.195  0.00  0.00    +0.075 A 
ATOM     10  C   UNL     1      34.115 -17.164 -25.484  0.00  0.00    +0.024 C 
ATOM     11  C   UNL     1      33.545 -13.044 -24.669  0.00  0.00    +0.318 A 
ATOM     12  C   UNL     1      33.426 -13.587 -26.067  0.00  0.00    +0.314 A 
ATOM     13  H   UNL     1      33.552 -15.301 -27.150  0.00  0.00    +0.169 HD
ENDROOT
BRANCH   5  15
ATOM     14  O   UNL     1      35.448 -20.025 -19.847  0.00  0.00    -0.350 OA
ATOM     15  N   UNL     1      34.837 -18.477 -22.110  0.00  0.00    -0.303 N 
ATOM     16  C   UNL     1      36.152 -18.361 -21.464  0.00  0.00    +0.123 C 
ATOM     17  C   UNL     1      33.764 -18.992 -21.255  0.00  0.00    +0.123 C 
ATOM     18  C   UNL     1      36.491 -19.665 -20.751  0.00  0.00    +0.164 C 
ATOM     19  C   UNL     1      34.230 -20.263 -20.552  0.00  0.00    +0.164 C 
ENDBRANCH   5  15
BRANCH   7  23
ATOM     20  F   UNL     1      35.267 -19.706 -25.973  0.00  0.00    -0.166 F 
ATOM     21  F   UNL     1      35.332 -20.184 -23.859  0.00  0.00    -0.166 F 
ATOM     22  F   UNL     1      33.429 -20.172 -24.909  0.00  0.00    -0.166 F 
ATOM     23  C   UNL     1      34.610 -19.501 -24.794  0.00  0.00    +0.420 C 
ENDBRANCH   7  23
BRANCH   3  24
ATOM     24  C   UNL     1      33.968 -13.435 -22.276  0.00  0.00    +0.225 C 
BRANCH  24  25
ATOM     25  P   UNL     1      32.383 -13.561 -21.482  0.00  0.00    +0.360 P 
ATOM     26  O   UNL     1      31.916 -14.970 -21.269  0.00  0.00    -0.256 OA
BRANCH  25  27
ATOM     27  O   UNL     1      31.407 -12.655 -22.399  0.00  0.00    -0.322 OA
ATOM     28  H   UNL     1      30.618 -13.167 -22.636  0.00  0.00    +0.220 HD
ENDBRANCH  25  27
BRANCH  25  29
ATOM     29  O   UNL     1      32.547 -12.690 -20.130  0.00  0.00    -0.322 OA
ATOM     30  H   UNL     1      33.430 -12.837 -19.756  0.00  0.00    +0.220 HD
ENDBRANCH  25  29
ENDBRANCH  24  25
ENDBRANCH   3  24
TORSDOF 6
ENDMDL
MODEL 6
REMARK VINA RESULT:      -7.5     14.891     17.709
REMARK  Name = 208953
REMARK  6 active torsions:
REMARK  status: ('A' for Active; 'I' for Inactive)
REMARK    1  A    between atoms: N_3  and  C_24
REMARK    2  A    between atoms: C_5  and  N_15
REMARK    3  A    between atoms: C_7  and  C_23
REMARK    4  A    between atoms: C_24  and  P_25
REMARK    5  A    between atoms: P_25  and  O_27
REMARK    6  A    between atoms: P_25  and  O_29
REMARK                            x       y       z     vdW  Elec       q    Type
REMARK                         _______ _______ _______ _____ _____    ______ ____
ROOT
ATOM      1  O   UNL     1      32.115 -13.714 -22.084  0.00  0.00    -0.262 OA
ATOM      2  O   UNL     1      34.260 -13.963 -23.548  0.00  0.00    -0.262 OA
ATOM      3  N   UNL     1      32.003 -11.407 -22.456  0.00  0.00    -0.279 N 
ATOM      4  N   UNL     1      34.296 -11.710 -24.019  0.00  0.00    -0.316 N 
ATOM      5  C   UNL     1      32.654  -7.892 -23.605  0.00  0.00    +0.053 C 
ATOM      6  C   UNL     1      32.586 -10.272 -23.090  0.00  0.00    +0.080 A 
ATOM      7  C   UNL     1      33.797  -8.079 -24.377  0.00  0.00    +0.086 C 
ATOM      8  C   UNL     1      32.052  -8.980 -22.965  0.00  0.00    +0.033 C 
ATOM      9  C   UNL     1      33.732 -10.441 -23.869  0.00  0.00    +0.075 A 
ATOM     10  C   UNL     1      34.338  -9.355 -24.510  0.00  0.00    +0.024 C 
ATOM     11  C   UNL     1      32.548 -12.684 -22.592  0.00  0.00    +0.318 A 
ATOM     12  C   UNL     1      33.784 -12.840 -23.434  0.00  0.00    +0.314 A 
ATOM     13  H   UNL     1      35.105 -11.798 -24.574  0.00  0.00    +0.169 HD
ENDROOT
BRANCH   5  15
ATOM     14  O   UNL     1      30.741  -4.188 -23.071  0.00  0.00    -0.350 OA
ATOM     15  N   UNL     1      32.095  -6.619 -23.456  0.00  0.00    -0.303 N 
ATOM     16  C   UNL     1      30.972  -6.248 -24.328  0.00  0.00    +0.123 C 
ATOM     17  C   UNL     1      32.111  -5.962 -22.145  0.00  0.00    +0.123 C 
ATOM     18  C   UNL     1      30.845  -4.731 -24.387  0.00  0.00    +0.164 C 
ATOM     19  C   UNL     1      31.922  -4.459 -22.319  0.00  0.00    +0.164 C 
ENDBRANCH   5  15
BRANCH   7  23
ATOM     20  F   UNL     1      35.185  -7.308 -26.166  0.00  0.00    -0.166 F 
ATOM     21  F   UNL     1      33.586  -5.992 -25.525  0.00  0.00    -0.166 F 
ATOM     22  F   UNL     1      35.333  -6.270 -24.261  0.00  0.00    -0.166 F 
ATOM     23  C   UNL     1      34.461  -6.936 -25.071  0.00  0.00    +0.420 C 
ENDBRANCH   7  23
BRANCH   3  24
ATOM     24  C   UNL     1      30.805 -11.229 -21.642  0.00  0.00    +0.225 C 
BRANCH  24  25
ATOM     25  P   UNL     1      31.298 -10.847 -19.978  0.00  0.00    +0.360 P 
ATOM     26  O   UNL     1      32.205  -9.658 -19.866  0.00  0.00    -0.256 OA
BRANCH  25  27
ATOM     27  O   UNL     1      31.923 -12.231 -19.423  0.00  0.00    -0.322 OA
ATOM     28  H   UNL     1      31.355 -12.585 -18.722  0.00  0.00    +0.220 HD
ENDBRANCH  25  27
BRANCH  25  29
ATOM     29  O   UNL     1      29.902 -10.713 -19.173  0.00  0.00    -0.322 OA
ATOM     30  H   UNL     1      29.838 -11.426 -18.518  0.00  0.00    +0.220 HD
ENDBRANCH  25  29
ENDBRANCH  24  25
ENDBRANCH   3  24
TORSDOF 6
ENDMDL
MODEL 7
REMARK VINA RESULT:      -7.4      3.227      5.419
REMARK  Name = 208953
REMARK  6 active torsions:
REMARK  status: ('A' for Active; 'I' for Inactive)
REMARK    1  A    between atoms: N_3  and  C_24
REMARK    2  A    between atoms: C_5  and  N_15
REMARK    3  A    between atoms: C_7  and  C_23
REMARK    4  A    between atoms: C_24  and  P_25
REMARK    5  A    between atoms: P_25  and  O_27
REMARK    6  A    between atoms: P_25  and  O_29
REMARK                            x       y       z     vdW  Elec       q    Type
REMARK                         _______ _______ _______ _____ _____    ______ ____
ROOT
ATOM      1  O   UNL     1      37.193 -22.243 -17.174  0.00  0.00    -0.262 OA
ATOM      2  O   UNL     1      37.817 -23.712 -15.111  0.00  0.00    -0.262 OA
ATOM      3  N   UNL     1      34.900 -22.547 -16.828  0.00  0.00    -0.279 N 
ATOM      4  N   UNL     1      35.603 -24.111 -14.625  0.00  0.00    -0.316 N 
ATOM      5  C   UNL     1      31.550 -23.588 -15.489  0.00  0.00    +0.053 C 
ATOM      6  C   UNL     1      33.884 -23.145 -16.028  0.00  0.00    +0.080 A 
ATOM      7  C   UNL     1      31.936 -24.361 -14.397  0.00  0.00    +0.086 C 
ATOM      8  C   UNL     1      32.516 -22.985 -16.300  0.00  0.00    +0.033 C 
ATOM      9  C   UNL     1      34.253 -23.924 -14.930  0.00  0.00    +0.075 A 
ATOM     10  C   UNL     1      33.289 -24.530 -14.116  0.00  0.00    +0.024 C 
ATOM     11  C   UNL     1      36.254 -22.719 -16.543  0.00  0.00    +0.318 A 
ATOM     12  C   UNL     1      36.626 -23.563 -15.355  0.00  0.00    +0.314 A 
ATOM     13  H   UNL     1      35.832 -24.665 -13.844  0.00  0.00    +0.169 HD
ENDROOT
BRANCH   5  15
ATOM     14  O   UNL     1      27.557 -22.839 -16.567  0.00  0.00    -0.350 OA
ATOM     15  N   UNL     1      30.197 -23.407 -15.791  0.00  0.00    -0.303 N 
ATOM     16  C   UNL     1      29.559 -22.146 -15.388  0.00  0.00    +0.123 C 
ATOM     17  C   UNL     1      29.620 -24.048 -16.977  0.00  0.00    +0.123 C 
ATOM     18  C   UNL     1      28.048 -22.330 -15.328  0.00  0.00    +0.164 C 
ATOM     19  C   UNL     1      28.104 -24.129 -16.833  0.00  0.00    +0.164 C 
ENDBRANCH   5  15
BRANCH   7  23
ATOM     20  F   UNL     1      30.184 -24.136 -12.785  0.00  0.00    -0.166 F 
ATOM     21  F   UNL     1      30.016 -25.773 -14.197  0.00  0.00    -0.166 F 
ATOM     22  F   UNL     1      31.496 -25.860 -12.606  0.00  0.00    -0.166 F 
ATOM     23  C   UNL     1      30.926 -25.018 -13.515  0.00  0.00    +0.420 C 
ENDBRANCH   7  23
BRANCH   3  24
ATOM     24  C   UNL     1      34.513 -21.734 -17.977  0.00  0.00    +0.225 C 
BRANCH  24  25
ATOM     25  P   UNL     1      34.166 -22.812 -19.347  0.00  0.00    +0.360 P 
ATOM     26  O   UNL     1      33.896 -24.234 -18.954  0.00  0.00    -0.256 OA
BRANCH  25  27
ATOM     27  O   UNL     1      35.427 -22.611 -20.338  0.00  0.00    -0.322 OA
ATOM     28  H   UNL     1      35.960 -23.421 -20.352  0.00  0.00    +0.220 HD
ENDBRANCH  25  27
BRANCH  25  29
ATOM     29  O   UNL     1      32.952 -22.082 -20.127  0.00  0.00    -0.322 OA
ATOM     30  H   UNL     1      32.213 -22.703 -20.226  0.00  0.00    +0.220 HD
ENDBRANCH  25  29
ENDBRANCH  24  25
ENDBRANCH   3  24
TORSDOF 6
ENDMDL
MODEL 8
REMARK VINA RESULT:      -7.4      0.284      1.167
REMARK  Name = 208953
REMARK  6 active torsions:
REMARK  status: ('A' for Active; 'I' for Inactive)
REMARK    1  A    between atoms: N_3  and  C_24
REMARK    2  A    between atoms: C_5  and  N_15
REMARK    3  A    between atoms: C_7  and  C_23
REMARK    4  A    between atoms: C_24  and  P_25
REMARK    5  A    between atoms: P_25  and  O_27
REMARK    6  A    between atoms: P_25  and  O_29
REMARK                            x       y       z     vdW  Elec       q    Type
REMARK                         _______ _______ _______ _____ _____    ______ ____
ROOT
ATOM      1  O   UNL     1      37.495 -25.052 -11.206  0.00  0.00    -0.262 OA
ATOM      2  O   UNL     1      35.097 -25.355 -10.225  0.00  0.00    -0.262 OA
ATOM      3  N   UNL     1      36.670 -24.296 -13.261  0.00  0.00    -0.279 N 
ATOM      4  N   UNL     1      34.119 -24.627 -12.177  0.00  0.00    -0.316 N 
ATOM      5  C   UNL     1      34.455 -23.226 -16.097  0.00  0.00    +0.053 C 
ATOM      6  C   UNL     1      35.521 -23.988 -14.043  0.00  0.00    +0.080 A 
ATOM      7  C   UNL     1      33.198 -23.402 -15.526  0.00  0.00    +0.086 C 
ATOM      8  C   UNL     1      35.609 -23.516 -15.363  0.00  0.00    +0.033 C 
ATOM      9  C   UNL     1      34.252 -24.159 -13.486  0.00  0.00    +0.075 A 
ATOM     10  C   UNL     1      33.095 -23.869 -14.218  0.00  0.00    +0.024 C 
ATOM     11  C   UNL     1      36.563 -24.764 -11.951  0.00  0.00    +0.318 A 
ATOM     12  C   UNL     1      35.185 -24.941 -11.374  0.00  0.00    +0.314 A 
ATOM     13  H   UNL     1      33.212 -24.738 -11.812  0.00  0.00    +0.169 HD
ENDROOT
BRANCH   5  15
ATOM     14  O   UNL     1      35.009 -22.035 -20.090  0.00  0.00    -0.350 OA
ATOM     15  N   UNL     1      34.582 -22.759 -17.410  0.00  0.00    -0.303 N 
ATOM     16  C   UNL     1      35.894 -22.260 -17.844  0.00  0.00    +0.123 C 
ATOM     17  C   UNL     1      33.747 -23.329 -18.472  0.00  0.00    +0.123 C 
ATOM     18  C   UNL     1      35.723 -21.356 -19.059  0.00  0.00    +0.164 C 
ATOM     19  C   UNL     1      33.692 -22.368 -19.655  0.00  0.00    +0.164 C 
ENDBRANCH   5  15
BRANCH   7  23
ATOM     20  F   UNL     1      30.864 -22.882 -15.489  0.00  0.00    -0.166 F 
ATOM     21  F   UNL     1      32.046 -21.987 -17.072  0.00  0.00    -0.166 F 
ATOM     22  F   UNL     1      31.593 -24.113 -17.127  0.00  0.00    -0.166 F 
ATOM     23  C   UNL     1      31.950 -23.100 -16.287  0.00  0.00    +0.420 C 
ENDBRANCH   7  23
BRANCH   3  24
ATOM     24  C   UNL     1      37.996 -24.117 -13.845  0.00  0.00    +0.225 C 
BRANCH  24  25
ATOM     25  P   UNL     1      38.598 -25.699 -14.388  0.00  0.00    +0.360 P 
ATOM     26  O   UNL     1      39.355 -26.457 -13.339  0.00  0.00    -0.256 OA
BRANCH  25  27
ATOM     27  O   UNL     1      39.443 -25.363 -15.725  0.00  0.00    -0.322 OA
ATOM     28  H   UNL     1      39.417 -26.126 -16.324  0.00  0.00    +0.220 HD
ENDBRANCH  25  27
BRANCH  25  29
ATOM     29  O   UNL     1      37.282 -26.450 -14.951  0.00  0.00    -0.322 OA
ATOM     30  H   UNL     1      37.296 -26.443 -15.921  0.00  0.00    +0.220 HD
ENDBRANCH  25  29
ENDBRANCH  24  25
ENDBRANCH   3  24
TORSDOF 6
ENDMDL
MODEL 9
REMARK VINA RESULT:      -7.3     12.947     16.049
REMARK  Name = 208953
REMARK  6 active torsions:
REMARK  status: ('A' for Active; 'I' for Inactive)
REMARK    1  A    between atoms: N_3  and  C_24
REMARK    2  A    between atoms: C_5  and  N_15
REMARK    3  A    between atoms: C_7  and  C_23
REMARK    4  A    between atoms: C_24  and  P_25
REMARK    5  A    between atoms: P_25  and  O_27
REMARK    6  A    between atoms: P_25  and  O_29
REMARK                            x       y       z     vdW  Elec       q    Type
REMARK                         _______ _______ _______ _____ _____    ______ ____
ROOT
ATOM      1  O   UNL     1      33.543 -15.628 -23.729  0.00  0.00    -0.262 OA
ATOM      2  O   UNL     1      32.251 -15.634 -21.462  0.00  0.00    -0.262 OA
ATOM      3  N   UNL     1      33.526 -13.292 -23.851  0.00  0.00    -0.279 N 
ATOM      4  N   UNL     1      32.149 -13.335 -21.423  0.00  0.00    -0.316 N 
ATOM      5  C   UNL     1      33.004  -9.637 -23.166  0.00  0.00    +0.053 C 
ATOM      6  C   UNL     1      33.133 -12.069 -23.235  0.00  0.00    +0.080 A 
ATOM      7  C   UNL     1      32.320  -9.695 -21.956  0.00  0.00    +0.086 C 
ATOM      8  C   UNL     1      33.408 -10.814 -23.803  0.00  0.00    +0.033 C 
ATOM      9  C   UNL     1      32.445 -12.108 -22.021  0.00  0.00    +0.075 A 
ATOM     10  C   UNL     1      32.039 -10.932 -21.381  0.00  0.00    +0.024 C 
ATOM     11  C   UNL     1      33.243 -14.529 -23.272  0.00  0.00    +0.318 A 
ATOM     12  C   UNL     1      32.500 -14.545 -21.965  0.00  0.00    +0.314 A 
ATOM     13  H   UNL     1      31.663 -13.331 -20.567  0.00  0.00    +0.169 HD
ENDROOT
BRANCH   5  15
ATOM     14  O   UNL     1      33.911  -6.070 -25.197  0.00  0.00    -0.350 OA
ATOM     15  N   UNL     1      33.296  -8.406 -23.762  0.00  0.00    -0.303 N 
ATOM     16  C   UNL     1      34.650  -8.195 -24.292  0.00  0.00    +0.123 C 
ATOM     17  C   UNL     1      32.235  -7.652 -24.438  0.00  0.00    +0.123 C 
ATOM     18  C   UNL     1      34.926  -6.702 -24.418  0.00  0.00    +0.164 C 
ATOM     19  C   UNL     1      32.641  -6.186 -24.558  0.00  0.00    +0.164 C 
ENDBRANCH   5  15
BRANCH   7  23
ATOM     20  F   UNL     1      30.923  -7.753 -21.934  0.00  0.00    -0.166 F 
ATOM     21  F   UNL     1      31.338  -8.687 -20.022  0.00  0.00    -0.166 F 
ATOM     22  F   UNL     1      32.901  -7.577 -21.047  0.00  0.00    -0.166 F 
ATOM     23  C   UNL     1      31.877  -8.454 -21.254  0.00  0.00    +0.420 C 
ENDBRANCH   7  23
BRANCH   3  24
ATOM     24  C   UNL     1      34.245 -13.249 -25.121  0.00  0.00    +0.225 C 
BRANCH  24  25
ATOM     25  P   UNL     1      33.184 -13.883 -26.398  0.00  0.00    +0.360 P 
ATOM     26  O   UNL     1      33.197 -13.075 -27.661  0.00  0.00    -0.256 OA
BRANCH  25  27
ATOM     27  O   UNL     1      31.737 -14.004 -25.686  0.00  0.00    -0.322 OA
ATOM     28  H   UNL     1      31.849 -14.005 -24.723  0.00  0.00    +0.220 HD
ENDBRANCH  25  27
BRANCH  25  29
ATOM     29  O   UNL     1      33.650 -15.421 -26.572  0.00  0.00    -0.322 OA
ATOM     30  H   UNL     1      34.127 -15.521 -27.410  0.00  0.00    +0.220 HD
ENDBRANCH  25  29
ENDBRANCH  24  25
ENDBRANCH   3  24
TORSDOF 6
ENDMDL
