MODEL 1
REMARK VINA RESULT:      -9.4      0.000      0.000
REMARK  Name = 72301
REMARK  4 active torsions:
REMARK  status: ('A' for Active; 'I' for Inactive)
REMARK    1  A    between atoms: C_12  and  O_20
REMARK    2  A    between atoms: C_15  and  O_22
REMARK    3  A    between atoms: C_16  and  O_24
REMARK    4  A    between atoms: C_17  and  O_26
REMARK                            x       y       z     vdW  Elec       q    Type
REMARK                         _______ _______ _______ _____ _____    ______ ____
ROOT
ATOM      1  N   UNL     1      34.003 -13.719 -23.927  0.00  0.00    +0.394 N 
ATOM      2  C   UNL     1      33.063 -13.495 -22.801  0.00  0.00    -0.030 C 
ATOM      3  C   UNL     1      33.711 -14.106 -21.533  0.00  0.00    +0.010 C 
ATOM      4  C   UNL     1      33.603 -12.963 -25.118  0.00  0.00    -0.072 C 
ATOM      5  C   UNL     1      32.695 -12.027 -22.595  0.00  0.00    -0.042 C 
ATOM      6  C   UNL     1      34.100 -15.155 -24.239  0.00  0.00    -0.046 C 
ATOM      7  C   UNL     1      33.732 -11.470 -24.833  0.00  0.00    +0.003 C 
ATOM      8  C   UNL     1      32.998 -11.069 -23.582  0.00  0.00    -0.027 C 
ATOM      9  C   UNL     1      34.246 -15.501 -21.741  0.00  0.00    -0.027 C 
ATOM     10  C   UNL     1      34.463 -15.992 -23.038  0.00  0.00    -0.010 C 
ATOM     11  C   UNL     1      31.981 -11.614 -21.458  0.00  0.00    +0.033 C 
ATOM     12  C   UNL     1      34.968 -17.288 -23.212  0.00  0.00    +0.166 C 
ATOM     13  C   UNL     1      32.649  -9.725 -23.389  0.00  0.00    +0.035 C 
ATOM     14  C   UNL     1      34.573 -16.298 -20.636  0.00  0.00    -0.001 C 
ATOM     15  C   UNL     1      31.626 -10.275 -21.279  0.00  0.00    +0.172 C 
ATOM     16  C   UNL     1      31.967  -9.329 -22.241  0.00  0.00    +0.172 C 
ATOM     17  C   UNL     1      35.281 -18.077 -22.106  0.00  0.00    +0.172 C 
ATOM     18  C   UNL     1      35.087 -17.582 -20.820  0.00  0.00    +0.040 C 
ATOM     19  H   UNL     1      34.920 -13.381 -23.637  0.00  0.00    -0.079 HD
ENDROOT
BRANCH  12  20
ATOM     20  O   UNL     1      35.154 -17.794 -24.466  0.00  0.00    -0.469 OA
ATOM     21  C   UNL     1      34.140 -18.658 -24.971  0.00  0.00    +0.253 C 
ENDBRANCH  12  20
BRANCH  15  22
ATOM     22  O   UNL     1      30.942  -9.908 -20.160  0.00  0.00    -0.468 OA
ATOM     23  C   UNL     1      31.252 -10.603 -18.955  0.00  0.00    +0.253 C 
ENDBRANCH  15  22
BRANCH  16  24
ATOM     24  O   UNL     1      31.631  -8.020 -22.077  0.00  0.00    -0.468 OA
ATOM     25  C   UNL     1      31.076  -7.347 -23.206  0.00  0.00    +0.253 C 
ENDBRANCH  16  24
BRANCH  17  26
ATOM     26  O   UNL     1      35.777 -19.335 -22.270  0.00  0.00    -0.468 OA
ATOM     27  C   UNL     1      35.732 -20.201 -21.138  0.00  0.00    +0.253 C 
ENDBRANCH  17  26
TORSDOF 4
ENDMDL
MODEL 2
REMARK VINA RESULT:      -9.3      2.082      8.713
REMARK  Name = 72301
REMARK  4 active torsions:
REMARK  status: ('A' for Active; 'I' for Inactive)
REMARK    1  A    between atoms: C_12  and  O_20
REMARK    2  A    between atoms: C_15  and  O_22
REMARK    3  A    between atoms: C_16  and  O_24
REMARK    4  A    between atoms: C_17  and  O_26
REMARK                            x       y       z     vdW  Elec       q    Type
REMARK                         _______ _______ _______ _____ _____    ______ ____
ROOT
ATOM      1  N   UNL     1      31.959 -10.664 -22.107  0.00  0.00    +0.394 N 
ATOM      2  C   UNL     1      32.628 -11.427 -23.190  0.00  0.00    -0.030 C 
ATOM      3  C   UNL     1      33.874 -10.614 -23.622  0.00  0.00    +0.010 C 
ATOM      4  C   UNL     1      30.914 -11.460 -21.456  0.00  0.00    -0.072 C 
ATOM      5  C   UNL     1      32.995 -12.855 -22.792  0.00  0.00    -0.042 C 
ATOM      6  C   UNL     1      31.395  -9.410 -22.634  0.00  0.00    -0.046 C 
ATOM      7  C   UNL     1      31.559 -12.633 -20.723  0.00  0.00    +0.003 C 
ATOM      8  C   UNL     1      32.462 -13.432 -21.624  0.00  0.00    -0.027 C 
ATOM      9  C   UNL     1      33.588  -9.153 -23.861  0.00  0.00    -0.027 C 
ATOM     10  C   UNL     1      32.415  -8.568 -23.358  0.00  0.00    -0.010 C 
ATOM     11  C   UNL     1      33.808 -13.648 -23.620  0.00  0.00    +0.033 C 
ATOM     12  C   UNL     1      32.170  -7.206 -23.582  0.00  0.00    +0.166 C 
ATOM     13  C   UNL     1      32.798 -14.747 -21.271  0.00  0.00    +0.035 C 
ATOM     14  C   UNL     1      34.518  -8.359 -24.546  0.00  0.00    -0.001 C 
ATOM     15  C   UNL     1      34.128 -14.962 -23.268  0.00  0.00    +0.172 C 
ATOM     16  C   UNL     1      33.629 -15.508 -22.090  0.00  0.00    +0.172 C 
ATOM     17  C   UNL     1      33.097  -6.427 -24.274  0.00  0.00    +0.172 C 
ATOM     18  C   UNL     1      34.271  -7.002 -24.752  0.00  0.00    +0.040 C 
ATOM     19  H   UNL     1      32.664 -10.441 -21.405  0.00  0.00    -0.079 HD
ENDROOT
BRANCH  12  20
ATOM     20  O   UNL     1      31.019  -6.627 -23.130  0.00  0.00    -0.469 OA
ATOM     21  C   UNL     1      31.102  -5.890 -21.913  0.00  0.00    +0.253 C 
ENDBRANCH  12  20
BRANCH  15  22
ATOM     22  O   UNL     1      34.927 -15.699 -24.089  0.00  0.00    -0.468 OA
ATOM     23  C   UNL     1      34.292 -16.387 -25.164  0.00  0.00    +0.253 C 
ENDBRANCH  15  22
BRANCH  16  24
ATOM     24  O   UNL     1      33.936 -16.786 -21.733  0.00  0.00    -0.468 OA
ATOM     25  C   UNL     1      35.100 -16.972 -20.929  0.00  0.00    +0.253 C 
ENDBRANCH  16  24
BRANCH  17  26
ATOM     26  O   UNL     1      32.865  -5.102 -24.490  0.00  0.00    -0.468 OA
ATOM     27  C   UNL     1      32.468  -4.720 -25.806  0.00  0.00    +0.253 C 
ENDBRANCH  17  26
TORSDOF 4
ENDMDL
MODEL 3
REMARK VINA RESULT:      -9.2      7.079     12.958
REMARK  Name = 72301
REMARK  4 active torsions:
REMARK  status: ('A' for Active; 'I' for Inactive)
REMARK    1  A    between atoms: C_12  and  O_20
REMARK    2  A    between atoms: C_15  and  O_22
REMARK    3  A    between atoms: C_16  and  O_24
REMARK    4  A    between atoms: C_17  and  O_26
REMARK                            x       y       z     vdW  Elec       q    Type
REMARK                         _______ _______ _______ _____ _____    ______ ____
ROOT
ATOM      1  N   UNL     1      33.770 -22.658 -16.731  0.00  0.00    +0.394 N 
ATOM      2  C   UNL     1      35.070 -23.364 -16.601  0.00  0.00    -0.030 C 
ATOM      3  C   UNL     1      36.174 -22.382 -17.066  0.00  0.00    +0.010 C 
ATOM      4  C   UNL     1      32.687 -23.405 -16.085  0.00  0.00    -0.072 C 
ATOM      5  C   UNL     1      35.339 -23.891 -15.193  0.00  0.00    -0.042 C 
ATOM      6  C   UNL     1      33.454 -22.419 -18.149  0.00  0.00    -0.046 C 
ATOM      7  C   UNL     1      32.928 -23.439 -14.578  0.00  0.00    +0.003 C 
ATOM      8  C   UNL     1      34.304 -23.945 -14.240  0.00  0.00    -0.027 C 
ATOM      9  C   UNL     1      35.866 -21.704 -18.378  0.00  0.00    -0.027 C 
ATOM     10  C   UNL     1      34.556 -21.694 -18.881  0.00  0.00    -0.010 C 
ATOM     11  C   UNL     1      36.599 -24.404 -14.843  0.00  0.00    +0.033 C 
ATOM     12  C   UNL     1      34.287 -21.052 -20.098  0.00  0.00    +0.166 C 
ATOM     13  C   UNL     1      34.558 -24.439 -12.952  0.00  0.00    +0.035 C 
ATOM     14  C   UNL     1      36.881 -21.039 -19.079  0.00  0.00    -0.001 C 
ATOM     15  C   UNL     1      36.841 -24.906 -13.563  0.00  0.00    +0.172 C 
ATOM     16  C   UNL     1      35.822 -24.917 -12.615  0.00  0.00    +0.172 C 
ATOM     17  C   UNL     1      35.306 -20.402 -20.792  0.00  0.00    +0.172 C 
ATOM     18  C   UNL     1      36.601 -20.393 -20.282  0.00  0.00    +0.040 C 
ATOM     19  H   UNL     1      33.857 -21.760 -16.256  0.00  0.00    -0.079 HD
ENDROOT
BRANCH  12  20
ATOM     20  O   UNL     1      33.025 -21.061 -20.619  0.00  0.00    -0.469 OA
ATOM     21  C   UNL     1      32.314 -19.825 -20.609  0.00  0.00    +0.253 C 
ENDBRANCH  12  20
BRANCH  15  22
ATOM     22  O   UNL     1      38.078 -25.387 -13.255  0.00  0.00    -0.468 OA
ATOM     23  C   UNL     1      38.913 -25.772 -14.344  0.00  0.00    +0.253 C 
ENDBRANCH  15  22
BRANCH  16  24
ATOM     24  O   UNL     1      36.046 -25.399 -11.361  0.00  0.00    -0.468 OA
ATOM     25  C   UNL     1      35.693 -24.553 -10.269  0.00  0.00    +0.253 C 
ENDBRANCH  16  24
BRANCH  17  26
ATOM     26  O   UNL     1      35.049 -19.773 -21.973  0.00  0.00    -0.468 OA
ATOM     27  C   UNL     1      35.564 -18.453 -22.129  0.00  0.00    +0.253 C 
ENDBRANCH  17  26
TORSDOF 4
ENDMDL
MODEL 4
REMARK VINA RESULT:      -8.8      1.313      7.870
REMARK  Name = 72301
REMARK  4 active torsions:
REMARK  status: ('A' for Active; 'I' for Inactive)
REMARK    1  A    between atoms: C_12  and  O_20
REMARK    2  A    between atoms: C_15  and  O_22
REMARK    3  A    between atoms: C_16  and  O_24
REMARK    4  A    between atoms: C_17  and  O_26
REMARK                            x       y       z     vdW  Elec       q    Type
REMARK                         _______ _______ _______ _____ _____    ______ ____
ROOT
ATOM      1  N   UNL     1      33.262 -13.638 -24.231  0.00  0.00    +0.394 N 
ATOM      2  C   UNL     1      33.878 -14.316 -23.063  0.00  0.00    -0.030 C 
ATOM      3  C   UNL     1      32.949 -14.070 -21.848  0.00  0.00    +0.010 C 
ATOM      4  C   UNL     1      33.926 -14.016 -25.483  0.00  0.00    -0.072 C 
ATOM      5  C   UNL     1      34.134 -15.804 -23.287  0.00  0.00    -0.042 C 
ATOM      6  C   UNL     1      33.294 -12.176 -24.055  0.00  0.00    -0.046 C 
ATOM      7  C   UNL     1      33.681 -15.497 -25.755  0.00  0.00    +0.003 C 
ATOM      8  C   UNL     1      34.060 -16.357 -24.580  0.00  0.00    -0.027 C 
ATOM      9  C   UNL     1      32.531 -12.629 -21.689  0.00  0.00    -0.027 C 
ATOM     10  C   UNL     1      32.666 -11.729 -22.758  0.00  0.00    -0.010 C 
ATOM     11  C   UNL     1      34.523 -16.637 -22.224  0.00  0.00    +0.033 C 
ATOM     12  C   UNL     1      32.263 -10.397 -22.596  0.00  0.00    +0.166 C 
ATOM     13  C   UNL     1      34.305 -17.723 -24.777  0.00  0.00    +0.035 C 
ATOM     14  C   UNL     1      31.960 -12.193 -20.486  0.00  0.00    -0.001 C 
ATOM     15  C   UNL     1      34.778 -17.995 -22.431  0.00  0.00    +0.172 C 
ATOM     16  C   UNL     1      34.661 -18.539 -23.706  0.00  0.00    +0.172 C 
ATOM     17  C   UNL     1      31.705  -9.970 -21.392  0.00  0.00    +0.172 C 
ATOM     18  C   UNL     1      31.551 -10.868 -20.339  0.00  0.00    +0.040 C 
ATOM     19  H   UNL     1      32.291 -13.943 -24.290  0.00  0.00    -0.079 HD
ENDROOT
BRANCH  12  20
ATOM     20  O   UNL     1      32.417  -9.500 -23.613  0.00  0.00    -0.469 OA
ATOM     21  C   UNL     1      33.640  -8.769 -23.650  0.00  0.00    +0.253 C 
ENDBRANCH  12  20
BRANCH  15  22
ATOM     22  O   UNL     1      35.143 -18.775 -21.376  0.00  0.00    -0.468 OA
ATOM     23  C   UNL     1      36.539 -18.914 -21.126  0.00  0.00    +0.253 C 
ENDBRANCH  15  22
BRANCH  16  24
ATOM     24  O   UNL     1      34.902 -19.862 -23.921  0.00  0.00    -0.468 OA
ATOM     25  C   UNL     1      34.868 -20.316 -25.272  0.00  0.00    +0.253 C 
ENDBRANCH  16  24
BRANCH  17  26
ATOM     26  O   UNL     1      31.309  -8.677 -21.230  0.00  0.00    -0.468 OA
ATOM     27  C   UNL     1      32.121  -7.849 -20.399  0.00  0.00    +0.253 C 
ENDBRANCH  17  26
TORSDOF 4
ENDMDL
MODEL 5
REMARK VINA RESULT:      -8.6      1.286      8.334
REMARK  Name = 72301
REMARK  4 active torsions:
REMARK  status: ('A' for Active; 'I' for Inactive)
REMARK    1  A    between atoms: C_12  and  O_20
REMARK    2  A    between atoms: C_15  and  O_22
REMARK    3  A    between atoms: C_16  and  O_24
REMARK    4  A    between atoms: C_17  and  O_26
REMARK                            x       y       z     vdW  Elec       q    Type
REMARK                         _______ _______ _______ _____ _____    ______ ____
ROOT
ATOM      1  N   UNL     1      32.899 -13.546 -21.446  0.00  0.00    +0.394 N 
ATOM      2  C   UNL     1      33.144 -14.265 -22.721  0.00  0.00    -0.030 C 
ATOM      3  C   UNL     1      34.062 -13.366 -23.586  0.00  0.00    +0.010 C 
ATOM      4  C   UNL     1      32.249 -14.412 -20.458  0.00  0.00    -0.072 C 
ATOM      5  C   UNL     1      33.736 -15.660 -22.531  0.00  0.00    -0.042 C 
ATOM      6  C   UNL     1      32.088 -12.340 -21.682  0.00  0.00    -0.046 C 
ATOM      7  C   UNL     1      33.209 -15.531 -20.061  0.00  0.00    +0.003 C 
ATOM      8  C   UNL     1      33.742 -16.268 -21.261  0.00  0.00    -0.027 C 
ATOM      9  C   UNL     1      33.606 -11.930 -23.661  0.00  0.00    -0.027 C 
ATOM     10  C   UNL     1      32.684 -11.430 -22.728  0.00  0.00    -0.010 C 
ATOM     11  C   UNL     1      34.214 -16.397 -23.628  0.00  0.00    +0.033 C 
ATOM     12  C   UNL     1      32.277 -10.091 -22.807  0.00  0.00    +0.166 C 
ATOM     13  C   UNL     1      34.279 -17.552 -21.097  0.00  0.00    +0.035 C 
ATOM     14  C   UNL     1      34.136 -11.075 -24.635  0.00  0.00    -0.001 C 
ATOM     15  C   UNL     1      34.736 -17.681 -23.458  0.00  0.00    +0.172 C 
ATOM     16  C   UNL     1      34.776 -18.256 -22.192  0.00  0.00    +0.172 C 
ATOM     17  C   UNL     1      32.803  -9.251 -23.787  0.00  0.00    +0.172 C 
ATOM     18  C   UNL     1      33.734  -9.741 -24.698  0.00  0.00    +0.040 C 
ATOM     19  H   UNL     1      33.804 -13.268 -21.069  0.00  0.00    -0.079 HD
ENDROOT
BRANCH  12  20
ATOM     20  O   UNL     1      31.357  -9.595 -21.929  0.00  0.00    -0.469 OA
ATOM     21  C   UNL     1      31.857  -9.023 -20.723  0.00  0.00    +0.253 C 
ENDBRANCH  12  20
BRANCH  15  22
ATOM     22  O   UNL     1      35.200 -18.363 -24.542  0.00  0.00    -0.468 OA
ATOM     23  C   UNL     1      34.239 -19.060 -25.330  0.00  0.00    +0.253 C 
ENDBRANCH  15  22
BRANCH  16  24
ATOM     24  O   UNL     1      35.286 -19.505 -22.012  0.00  0.00    -0.468 OA
ATOM     25  C   UNL     1      35.049 -20.127 -20.751  0.00  0.00    +0.253 C 
ENDBRANCH  16  24
BRANCH  17  26
ATOM     26  O   UNL     1      32.414  -7.947 -23.865  0.00  0.00    -0.468 OA
ATOM     27  C   UNL     1      33.381  -6.960 -23.511  0.00  0.00    +0.253 C 
ENDBRANCH  17  26
TORSDOF 4
ENDMDL
MODEL 6
REMARK VINA RESULT:      -8.4      1.405      3.187
REMARK  Name = 72301
REMARK  4 active torsions:
REMARK  status: ('A' for Active; 'I' for Inactive)
REMARK    1  A    between atoms: C_12  and  O_20
REMARK    2  A    between atoms: C_15  and  O_22
REMARK    3  A    between atoms: C_16  and  O_24
REMARK    4  A    between atoms: C_17  and  O_26
REMARK                            x       y       z     vdW  Elec       q    Type
REMARK                         _______ _______ _______ _____ _____    ______ ____
ROOT
ATOM      1  N   UNL     1      32.828 -14.423 -21.718  0.00  0.00    +0.394 N 
ATOM      2  C   UNL     1      33.558 -13.484 -22.606  0.00  0.00    -0.030 C 
ATOM      3  C   UNL     1      33.591 -14.121 -24.019  0.00  0.00    +0.010 C 
ATOM      4  C   UNL     1      32.522 -13.808 -20.423  0.00  0.00    -0.072 C 
ATOM      5  C   UNL     1      32.959 -12.080 -22.633  0.00  0.00    -0.042 C 
ATOM      6  C   UNL     1      33.604 -15.660 -21.528  0.00  0.00    -0.046 C 
ATOM      7  C   UNL     1      31.532 -12.666 -20.630  0.00  0.00    +0.003 C 
ATOM      8  C   UNL     1      32.008 -11.689 -21.671  0.00  0.00    -0.027 C 
ATOM      9  C   UNL     1      34.015 -15.568 -24.019  0.00  0.00    -0.027 C 
ATOM     10  C   UNL     1      33.990 -16.315 -22.830  0.00  0.00    -0.010 C 
ATOM     11  C   UNL     1      33.398 -11.126 -23.567  0.00  0.00    +0.033 C 
ATOM     12  C   UNL     1      34.379 -17.662 -22.851  0.00  0.00    +0.166 C 
ATOM     13  C   UNL     1      31.470 -10.395 -21.698  0.00  0.00    +0.035 C 
ATOM     14  C   UNL     1      34.392 -16.188 -25.217  0.00  0.00    -0.001 C 
ATOM     15  C   UNL     1      32.866  -9.835 -23.579  0.00  0.00    +0.172 C 
ATOM     16  C   UNL     1      31.897  -9.471 -22.650  0.00  0.00    +0.172 C 
ATOM     17  C   UNL     1      34.762 -18.267 -24.047  0.00  0.00    +0.172 C 
ATOM     18  C   UNL     1      34.766 -17.532 -25.230  0.00  0.00    +0.040 C 
ATOM     19  H   UNL     1      31.944 -14.653 -22.170  0.00  0.00    -0.079 HD
ENDROOT
BRANCH  12  20
ATOM     20  O   UNL     1      34.393 -18.395 -21.700  0.00  0.00    -0.469 OA
ATOM     21  C   UNL     1      35.658 -18.594 -21.076  0.00  0.00    +0.253 C 
ENDBRANCH  12  20
BRANCH  15  22
ATOM     22  O   UNL     1      33.308  -8.938 -24.505  0.00  0.00    -0.468 OA
ATOM     23  C   UNL     1      34.552  -8.295 -24.242  0.00  0.00    +0.253 C 
ENDBRANCH  15  22
BRANCH  16  24
ATOM     24  O   UNL     1      31.367  -8.217 -22.654  0.00  0.00    -0.468 OA
ATOM     25  C   UNL     1      31.901  -7.284 -21.717  0.00  0.00    +0.253 C 
ENDBRANCH  16  24
BRANCH  17  26
ATOM     26  O   UNL     1      35.138 -19.576 -24.074  0.00  0.00    -0.468 OA
ATOM     27  C   UNL     1      34.833 -20.314 -25.256  0.00  0.00    +0.253 C 
ENDBRANCH  17  26
TORSDOF 4
ENDMDL
MODEL 7
REMARK VINA RESULT:      -8.2      1.948      3.257
REMARK  Name = 72301
REMARK  4 active torsions:
REMARK  status: ('A' for Active; 'I' for Inactive)
REMARK    1  A    between atoms: C_12  and  O_20
REMARK    2  A    between atoms: C_15  and  O_22
REMARK    3  A    between atoms: C_16  and  O_24
REMARK    4  A    between atoms: C_17  and  O_26
REMARK                            x       y       z     vdW  Elec       q    Type
REMARK                         _______ _______ _______ _____ _____    ______ ____
ROOT
ATOM      1  N   UNL     1      34.269 -11.245 -23.953  0.00  0.00    +0.394 N 
ATOM      2  C   UNL     1      32.913 -10.750 -23.607  0.00  0.00    -0.030 C 
ATOM      3  C   UNL     1      32.557 -11.322 -22.212  0.00  0.00    +0.010 C 
ATOM      4  C   UNL     1      34.804 -10.564 -25.136  0.00  0.00    -0.072 C 
ATOM      5  C   UNL     1      32.793  -9.228 -23.641  0.00  0.00    -0.042 C 
ATOM      6  C   UNL     1      34.247 -12.702 -24.166  0.00  0.00    -0.046 C 
ATOM      7  C   UNL     1      35.031  -9.091 -24.808  0.00  0.00    +0.003 C 
ATOM      8  C   UNL     1      33.798  -8.443 -24.237  0.00  0.00    -0.027 C 
ATOM      9  C   UNL     1      32.825 -12.801 -22.080  0.00  0.00    -0.027 C 
ATOM     10  C   UNL     1      33.661 -13.455 -22.998  0.00  0.00    -0.010 C 
ATOM     11  C   UNL     1      31.645  -8.584 -23.149  0.00  0.00    +0.033 C 
ATOM     12  C   UNL     1      33.906 -14.828 -22.854  0.00  0.00    +0.166 C 
ATOM     13  C   UNL     1      33.675  -7.047 -24.271  0.00  0.00    +0.035 C 
ATOM     14  C   UNL     1      32.276 -13.520 -21.010  0.00  0.00    -0.001 C 
ATOM     15  C   UNL     1      31.524  -7.193 -23.199  0.00  0.00    +0.172 C 
ATOM     16  C   UNL     1      32.543  -6.424 -23.753  0.00  0.00    +0.172 C 
ATOM     17  C   UNL     1      33.346 -15.537 -21.792  0.00  0.00    +0.172 C 
ATOM     18  C   UNL     1      32.535 -14.883 -20.868  0.00  0.00    +0.040 C 
ATOM     19  H   UNL     1      34.885 -11.035 -23.167  0.00  0.00    -0.079 HD
ENDROOT
BRANCH  12  20
ATOM     20  O   UNL     1      34.689 -15.488 -23.756  0.00  0.00    -0.469 OA
ATOM     21  C   UNL     1      34.031 -16.077 -24.874  0.00  0.00    +0.253 C 
ENDBRANCH  12  20
BRANCH  15  22
ATOM     22  O   UNL     1      30.401  -6.601 -22.704  0.00  0.00    -0.468 OA
ATOM     23  C   UNL     1      30.571  -5.699 -21.613  0.00  0.00    +0.253 C 
ENDBRANCH  15  22
BRANCH  16  24
ATOM     24  O   UNL     1      32.440  -5.068 -23.803  0.00  0.00    -0.468 OA
ATOM     25  C   UNL     1      32.142  -4.486 -25.071  0.00  0.00    +0.253 C 
ENDBRANCH  16  24
BRANCH  17  26
ATOM     26  O   UNL     1      33.584 -16.870 -21.645  0.00  0.00    -0.468 OA
ATOM     27  C   UNL     1      34.832 -17.246 -21.067  0.00  0.00    +0.253 C 
ENDBRANCH  17  26
TORSDOF 4
ENDMDL
MODEL 8
REMARK VINA RESULT:      -8.2      1.813      8.666
REMARK  Name = 72301
REMARK  4 active torsions:
REMARK  status: ('A' for Active; 'I' for Inactive)
REMARK    1  A    between atoms: C_12  and  O_20
REMARK    2  A    between atoms: C_15  and  O_22
REMARK    3  A    between atoms: C_16  and  O_24
REMARK    4  A    between atoms: C_17  and  O_26
REMARK                            x       y       z     vdW  Elec       q    Type
REMARK                         _______ _______ _______ _____ _____    ______ ____
ROOT
ATOM      1  N   UNL     1      32.545 -11.489 -21.669  0.00  0.00    +0.394 N 
ATOM      2  C   UNL     1      32.509 -11.781 -23.124  0.00  0.00    -0.030 C 
ATOM      3  C   UNL     1      33.376 -10.707 -23.829  0.00  0.00    +0.010 C 
ATOM      4  C   UNL     1      31.965 -12.585 -20.887  0.00  0.00    -0.072 C 
ATOM      5  C   UNL     1      32.966 -13.195 -23.474  0.00  0.00    -0.042 C 
ATOM      6  C   UNL     1      31.845 -10.226 -21.379  0.00  0.00    -0.046 C 
ATOM      7  C   UNL     1      32.845 -13.824 -21.028  0.00  0.00    +0.003 C 
ATOM      8  C   UNL     1      33.101 -14.172 -22.469  0.00  0.00    -0.027 C 
ATOM      9  C   UNL     1      33.073  -9.299 -23.383  0.00  0.00    -0.027 C 
ATOM     10  C   UNL     1      32.368  -9.067 -22.191  0.00  0.00    -0.010 C 
ATOM     11  C   UNL     1      33.185 -13.573 -24.809  0.00  0.00    +0.033 C 
ATOM     12  C   UNL     1      32.104  -7.751 -21.788  0.00  0.00    +0.166 C 
ATOM     13  C   UNL     1      33.513 -15.471 -22.801  0.00  0.00    +0.035 C 
ATOM     14  C   UNL     1      33.538  -8.210 -24.133  0.00  0.00    -0.001 C 
ATOM     15  C   UNL     1      33.582 -14.872 -25.133  0.00  0.00    +0.172 C 
ATOM     16  C   UNL     1      33.754 -15.819 -24.128  0.00  0.00    +0.172 C 
ATOM     17  C   UNL     1      32.561  -6.676 -22.547  0.00  0.00    +0.172 C 
ATOM     18  C   UNL     1      33.280  -6.905 -23.717  0.00  0.00    +0.040 C 
ATOM     19  H   UNL     1      33.523 -11.395 -21.396  0.00  0.00    -0.079 HD
ENDROOT
BRANCH  12  20
ATOM     20  O   UNL     1      31.390  -7.508 -20.649  0.00  0.00    -0.469 OA
ATOM     21  C   UNL     1      32.135  -7.302 -19.452  0.00  0.00    +0.253 C 
ENDBRANCH  12  20
BRANCH  15  22
ATOM     22  O   UNL     1      33.795 -15.201 -26.437  0.00  0.00    -0.468 OA
ATOM     23  C   UNL     1      33.457 -14.222 -27.416  0.00  0.00    +0.253 C 
ENDBRANCH  15  22
BRANCH  16  24
ATOM     24  O   UNL     1      34.146 -17.088 -24.429  0.00  0.00    -0.468 OA
ATOM     25  C   UNL     1      34.896 -17.787 -23.439  0.00  0.00    +0.253 C 
ENDBRANCH  16  24
BRANCH  17  26
ATOM     26  O   UNL     1      32.310  -5.395 -22.157  0.00  0.00    -0.468 OA
ATOM     27  C   UNL     1      31.243  -4.714 -22.814  0.00  0.00    +0.253 C 
ENDBRANCH  17  26
TORSDOF 4
ENDMDL
MODEL 9
REMARK VINA RESULT:      -7.9      1.394      7.871
REMARK  Name = 72301
REMARK  4 active torsions:
REMARK  status: ('A' for Active; 'I' for Inactive)
REMARK    1  A    between atoms: C_12  and  O_20
REMARK    2  A    between atoms: C_15  and  O_22
REMARK    3  A    between atoms: C_16  and  O_24
REMARK    4  A    between atoms: C_17  and  O_26
REMARK                            x       y       z     vdW  Elec       q    Type
REMARK                         _______ _______ _______ _____ _____    ______ ____
ROOT
ATOM      1  N   UNL     1      33.150 -12.392 -24.727  0.00  0.00    +0.394 N 
ATOM      2  C   UNL     1      33.656 -13.229 -23.610  0.00  0.00    -0.030 C 
ATOM      3  C   UNL     1      32.715 -12.999 -22.401  0.00  0.00    +0.010 C 
ATOM      4  C   UNL     1      33.816 -12.723 -25.990  0.00  0.00    -0.072 C 
ATOM      5  C   UNL     1      33.771 -14.711 -23.962  0.00  0.00    -0.042 C 
ATOM      6  C   UNL     1      33.320 -10.963 -24.417  0.00  0.00    -0.046 C 
ATOM      7  C   UNL     1      33.435 -14.142 -26.403  0.00  0.00    +0.003 C 
ATOM      8  C   UNL     1      33.688 -15.136 -25.302  0.00  0.00    -0.027 C 
ATOM      9  C   UNL     1      32.435 -11.543 -22.123  0.00  0.00    -0.027 C 
ATOM     10  C   UNL     1      32.694 -10.571 -23.101  0.00  0.00    -0.010 C 
ATOM     11  C   UNL     1      34.040 -15.669 -22.970  0.00  0.00    +0.033 C 
ATOM     12  C   UNL     1      32.420  -9.224 -22.828  0.00  0.00    +0.166 C 
ATOM     13  C   UNL     1      33.803 -16.498 -25.616  0.00  0.00    +0.035 C 
ATOM     14  C   UNL     1      31.869 -11.159 -20.900  0.00  0.00    -0.001 C 
ATOM     15  C   UNL     1      34.166 -17.022 -23.294  0.00  0.00    +0.172 C 
ATOM     16  C   UNL     1      34.041 -17.437 -24.616  0.00  0.00    +0.172 C 
ATOM     17  C   UNL     1      31.866  -8.851 -21.604  0.00  0.00    +0.172 C 
ATOM     18  C   UNL     1      31.587  -9.818 -20.642  0.00  0.00    +0.040 C 
ATOM     19  H   UNL     1      32.156 -12.591 -24.837  0.00  0.00    -0.079 HD
ENDROOT
BRANCH  12  20
ATOM     20  O   UNL     1      32.696  -8.260 -23.755  0.00  0.00    -0.469 OA
ATOM     21  C   UNL     1      33.959  -7.608 -23.652  0.00  0.00    +0.253 C 
ENDBRANCH  12  20
BRANCH  15  22
ATOM     22  O   UNL     1      34.417 -17.925 -22.305  0.00  0.00    -0.468 OA
ATOM     23  C   UNL     1      35.157 -17.464 -21.178  0.00  0.00    +0.253 C 
ENDBRANCH  15  22
BRANCH  16  24
ATOM     24  O   UNL     1      34.157 -18.753 -24.944  0.00  0.00    -0.468 OA
ATOM     25  C   UNL     1      35.256 -19.467 -24.381  0.00  0.00    +0.253 C 
ENDBRANCH  16  24
BRANCH  17  26
ATOM     26  O   UNL     1      31.593  -7.543 -21.336  0.00  0.00    -0.468 OA
ATOM     27  C   UNL     1      32.346  -6.926 -20.293  0.00  0.00    +0.253 C 
ENDBRANCH  17  26
TORSDOF 4
ENDMDL
