MODEL 1
REMARK VINA RESULT:      -7.1      0.000      0.000
REMARK  Name = 3045
REMARK  4 active torsions:
REMARK  status: ('A' for Active; 'I' for Inactive)
REMARK    1  A    between atoms: C_1  and  C_9
REMARK    2  A    between atoms: C_4  and  O_13
REMARK    3  A    between atoms: C_5  and  O_15
REMARK    4  A    between atoms: N_8  and  O_11
REMARK                            x       y       z     vdW  Elec       q    Type
REMARK                         _______ _______ _______ _____ _____    ______ ____
ROOT
ATOM      1  C   UNL     1      34.995 -19.439 -21.099  0.00  0.00    +0.059 C 
ATOM      2  C   UNL     1      35.639 -20.438 -20.371  0.00  0.00    +0.044 C 
ATOM      3  C   UNL     1      33.602 -19.355 -21.088  0.00  0.00    +0.008 C 
ATOM      4  C   UNL     1      34.891 -21.355 -19.630  0.00  0.00    +0.168 C 
ATOM      5  C   UNL     1      33.499 -21.271 -19.619  0.00  0.00    +0.167 C 
ATOM      6  C   UNL     1      32.855 -20.271 -20.348  0.00  0.00    +0.040 C 
ENDROOT
BRANCH   1   9
ATOM      7  O   UNL     1      37.017 -18.548 -21.894  0.00  0.00    -0.268 OA
ATOM      8  N   UNL     1      35.073 -17.503 -22.558  0.00  0.00    -0.193 N 
ATOM      9  C   UNL     1      35.774 -18.484 -21.871  0.00  0.00    +0.268 C 
ATOM     10  H   UNL     1      34.090 -17.459 -22.535  0.00  0.00    +0.183 HD
BRANCH   8  11
ATOM     11  O   UNL     1      35.832 -16.578 -23.289  0.00  0.00    -0.295 OA
ATOM     12  H   UNL     1      36.422 -17.051 -23.897  0.00  0.00    +0.241 HD
ENDBRANCH   8  11
ENDBRANCH   1   9
BRANCH   4  13
ATOM     13  O   UNL     1      35.532 -22.327 -18.924  0.00  0.00    -0.503 OA
ATOM     14  H   UNL     1      36.468 -22.335 -18.881  0.00  0.00    +0.292 HD
ENDBRANCH   4  13
BRANCH   5  15
ATOM     15  O   UNL     1      32.757 -22.159 -18.901  0.00  0.00    -0.503 OA
ATOM     16  H   UNL     1      32.308 -21.878 -18.128  0.00  0.00    +0.292 HD
ENDBRANCH   5  15
TORSDOF 4
ENDMDL
MODEL 2
REMARK VINA RESULT:      -7.1      1.197      2.171
REMARK  Name = 3045
REMARK  4 active torsions:
REMARK  status: ('A' for Active; 'I' for Inactive)
REMARK    1  A    between atoms: C_1  and  C_9
REMARK    2  A    between atoms: C_4  and  O_13
REMARK    3  A    between atoms: C_5  and  O_15
REMARK    4  A    between atoms: N_8  and  O_11
REMARK                            x       y       z     vdW  Elec       q    Type
REMARK                         _______ _______ _______ _____ _____    ______ ____
ROOT
ATOM      1  C   UNL     1      35.269 -18.815 -21.075  0.00  0.00    +0.059 C 
ATOM      2  C   UNL     1      34.038 -19.429 -20.853  0.00  0.00    +0.044 C 
ATOM      3  C   UNL     1      36.447 -19.444 -20.670  0.00  0.00    +0.008 C 
ATOM      4  C   UNL     1      33.982 -20.674 -20.225  0.00  0.00    +0.168 C 
ATOM      5  C   UNL     1      35.159 -21.304 -19.820  0.00  0.00    +0.167 C 
ATOM      6  C   UNL     1      36.391 -20.689 -20.043  0.00  0.00    +0.040 C 
ENDROOT
BRANCH   1   9
ATOM      7  O   UNL     1      35.000 -16.482 -21.120  0.00  0.00    -0.268 OA
ATOM      8  N   UNL     1      35.747 -17.492 -23.052  0.00  0.00    -0.193 N 
ATOM      9  C   UNL     1      35.328 -17.517 -21.729  0.00  0.00    +0.268 C 
ATOM     10  H   UNL     1      36.004 -18.316 -23.527  0.00  0.00    +0.183 HD
BRANCH   8  11
ATOM     11  O   UNL     1      35.787 -16.240 -23.679  0.00  0.00    -0.295 OA
ATOM     12  H   UNL     1      34.937 -16.068 -24.115  0.00  0.00    +0.241 HD
ENDBRANCH   8  11
ENDBRANCH   1   9
BRANCH   4  13
ATOM     13  O   UNL     1      32.773 -21.264 -20.013  0.00  0.00    -0.503 OA
ATOM     14  H   UNL     1      32.096 -21.190 -20.657  0.00  0.00    +0.292 HD
ENDBRANCH   4  13
BRANCH   5  15
ATOM     15  O   UNL     1      35.119 -22.519 -19.206  0.00  0.00    -0.503 OA
ATOM     16  H   UNL     1      35.823 -23.126 -19.322  0.00  0.00    +0.292 HD
ENDBRANCH   5  15
TORSDOF 4
ENDMDL
MODEL 3
REMARK VINA RESULT:      -7.1      8.529      9.458
REMARK  Name = 3045
REMARK  4 active torsions:
REMARK  status: ('A' for Active; 'I' for Inactive)
REMARK    1  A    between atoms: C_1  and  C_9
REMARK    2  A    between atoms: C_4  and  O_13
REMARK    3  A    between atoms: C_5  and  O_15
REMARK    4  A    between atoms: N_8  and  O_11
REMARK                            x       y       z     vdW  Elec       q    Type
REMARK                         _______ _______ _______ _____ _____    ______ ____
ROOT
ATOM      1  C   UNL     1      37.128 -25.346 -14.118  0.00  0.00    +0.059 C 
ATOM      2  C   UNL     1      36.860 -25.513 -12.760  0.00  0.00    +0.044 C 
ATOM      3  C   UNL     1      36.292 -24.551 -14.901  0.00  0.00    +0.008 C 
ATOM      4  C   UNL     1      35.756 -24.884 -12.184  0.00  0.00    +0.168 C 
ATOM      5  C   UNL     1      34.920 -24.088 -12.967  0.00  0.00    +0.167 C 
ATOM      6  C   UNL     1      35.188 -23.922 -14.326  0.00  0.00    +0.040 C 
ENDROOT
BRANCH   1   9
ATOM      7  O   UNL     1      38.412 -27.238 -14.654  0.00  0.00    -0.268 OA
ATOM      8  N   UNL     1      39.213 -25.191 -15.347  0.00  0.00    -0.193 N 
ATOM      9  C   UNL     1      38.279 -26.002 -14.719  0.00  0.00    +0.268 C 
ATOM     10  H   UNL     1      39.100 -24.214 -15.394  0.00  0.00    +0.183 HD
BRANCH   8  11
ATOM     11  O   UNL     1      40.326 -25.830 -15.912  0.00  0.00    -0.295 OA
ATOM     12  H   UNL     1      40.130 -26.071 -16.831  0.00  0.00    +0.241 HD
ENDBRANCH   8  11
ENDBRANCH   1   9
BRANCH   4  13
ATOM     13  O   UNL     1      35.504 -25.055 -10.857  0.00  0.00    -0.503 OA
ATOM     14  H   UNL     1      36.109 -25.533 -10.322  0.00  0.00    +0.292 HD
ENDBRANCH   4  13
BRANCH   5  15
ATOM     15  O   UNL     1      33.839 -23.469 -12.417  0.00  0.00    -0.503 OA
ATOM     16  H   UNL     1      33.524 -23.735 -11.576  0.00  0.00    +0.292 HD
ENDBRANCH   5  15
TORSDOF 4
ENDMDL
MODEL 4
REMARK VINA RESULT:      -7.0      8.347      9.121
REMARK  Name = 3045
REMARK  4 active torsions:
REMARK  status: ('A' for Active; 'I' for Inactive)
REMARK    1  A    between atoms: C_1  and  C_9
REMARK    2  A    between atoms: C_4  and  O_13
REMARK    3  A    between atoms: C_5  and  O_15
REMARK    4  A    between atoms: N_8  and  O_11
REMARK                            x       y       z     vdW  Elec       q    Type
REMARK                         _______ _______ _______ _____ _____    ______ ____
ROOT
ATOM      1  C   UNL     1      29.086 -23.586 -15.661  0.00  0.00    +0.059 C 
ATOM      2  C   UNL     1      30.101 -22.750 -15.197  0.00  0.00    +0.044 C 
ATOM      3  C   UNL     1      29.097 -24.943 -15.337  0.00  0.00    +0.008 C 
ATOM      4  C   UNL     1      31.127 -23.270 -14.408  0.00  0.00    +0.168 C 
ATOM      5  C   UNL     1      31.138 -24.627 -14.084  0.00  0.00    +0.167 C 
ATOM      6  C   UNL     1      30.123 -25.463 -14.548  0.00  0.00    +0.040 C 
ENDROOT
BRANCH   1   9
ATOM      7  O   UNL     1      28.016 -23.212 -17.718  0.00  0.00    -0.268 OA
ATOM      8  N   UNL     1      27.018 -22.330 -15.836  0.00  0.00    -0.193 N 
ATOM      9  C   UNL     1      28.016 -23.044 -16.485  0.00  0.00    +0.268 C 
ATOM     10  H   UNL     1      27.027 -22.202 -14.860  0.00  0.00    +0.183 HD
BRANCH   8  11
ATOM     11  O   UNL     1      25.998 -21.799 -16.638  0.00  0.00    -0.295 OA
ATOM     12  H   UNL     1      25.199 -21.672 -16.103  0.00  0.00    +0.241 HD
ENDBRANCH   8  11
ENDBRANCH   1   9
BRANCH   4  13
ATOM     13  O   UNL     1      32.113 -22.444 -13.961  0.00  0.00    -0.503 OA
ATOM     14  H   UNL     1      31.990 -21.514 -13.981  0.00  0.00    +0.292 HD
ENDBRANCH   4  13
BRANCH   5  15
ATOM     15  O   UNL     1      32.134 -25.147 -13.314  0.00  0.00    -0.503 OA
ATOM     16  H   UNL     1      33.027 -25.065 -13.586  0.00  0.00    +0.292 HD
ENDBRANCH   5  15
TORSDOF 4
ENDMDL
MODEL 5
REMARK VINA RESULT:      -6.9      2.435      5.304
REMARK  Name = 3045
REMARK  4 active torsions:
REMARK  status: ('A' for Active; 'I' for Inactive)
REMARK    1  A    between atoms: C_1  and  C_9
REMARK    2  A    between atoms: C_4  and  O_13
REMARK    3  A    between atoms: C_5  and  O_15
REMARK    4  A    between atoms: N_8  and  O_11
REMARK                            x       y       z     vdW  Elec       q    Type
REMARK                         _______ _______ _______ _____ _____    ______ ____
ROOT
ATOM      1  C   UNL     1      35.050 -18.676 -22.364  0.00  0.00    +0.059 C 
ATOM      2  C   UNL     1      35.131 -17.285 -22.321  0.00  0.00    +0.044 C 
ATOM      3  C   UNL     1      34.790 -19.324 -23.571  0.00  0.00    +0.008 C 
ATOM      4  C   UNL     1      34.952 -16.539 -23.487  0.00  0.00    +0.168 C 
ATOM      5  C   UNL     1      34.692 -17.187 -24.695  0.00  0.00    +0.167 C 
ATOM      6  C   UNL     1      34.611 -18.579 -24.737  0.00  0.00    +0.040 C 
ENDROOT
BRANCH   1   9
ATOM      7  O   UNL     1      34.302 -20.123 -20.672  0.00  0.00    -0.268 OA
ATOM      8  N   UNL     1      36.487 -19.400 -20.548  0.00  0.00    -0.193 N 
ATOM      9  C   UNL     1      35.237 -19.454 -21.148  0.00  0.00    +0.268 C 
ATOM     10  H   UNL     1      37.221 -18.868 -20.931  0.00  0.00    +0.183 HD
BRANCH   8  11
ATOM     11  O   UNL     1      36.655 -20.141 -19.370  0.00  0.00    -0.295 OA
ATOM     12  H   UNL     1      36.521 -19.563 -18.602  0.00  0.00    +0.241 HD
ENDBRANCH   8  11
ENDBRANCH   1   9
BRANCH   4  13
ATOM     13  O   UNL     1      35.033 -15.181 -23.433  0.00  0.00    -0.503 OA
ATOM     14  H   UNL     1      34.407 -14.656 -23.894  0.00  0.00    +0.292 HD
ENDBRANCH   4  13
BRANCH   5  15
ATOM     15  O   UNL     1      34.515 -16.471 -25.840  0.00  0.00    -0.503 OA
ATOM     16  H   UNL     1      34.709 -16.860 -26.671  0.00  0.00    +0.292 HD
ENDBRANCH   5  15
TORSDOF 4
ENDMDL
MODEL 6
REMARK VINA RESULT:      -6.7      3.310      4.651
REMARK  Name = 3045
REMARK  4 active torsions:
REMARK  status: ('A' for Active; 'I' for Inactive)
REMARK    1  A    between atoms: C_1  and  C_9
REMARK    2  A    between atoms: C_4  and  O_13
REMARK    3  A    between atoms: C_5  and  O_15
REMARK    4  A    between atoms: N_8  and  O_11
REMARK                            x       y       z     vdW  Elec       q    Type
REMARK                         _______ _______ _______ _____ _____    ______ ____
ROOT
ATOM      1  C   UNL     1      34.549 -16.665 -23.736  0.00  0.00    +0.059 C 
ATOM      2  C   UNL     1      34.539 -16.065 -22.478  0.00  0.00    +0.044 C 
ATOM      3  C   UNL     1      35.064 -17.952 -23.891  0.00  0.00    +0.008 C 
ATOM      4  C   UNL     1      35.042 -16.752 -21.372  0.00  0.00    +0.168 C 
ATOM      5  C   UNL     1      35.556 -18.039 -21.527  0.00  0.00    +0.167 C 
ATOM      6  C   UNL     1      35.567 -18.639 -22.786  0.00  0.00    +0.040 C 
ENDROOT
BRANCH   1   9
ATOM      7  O   UNL     1      34.237 -16.360 -26.044  0.00  0.00    -0.268 OA
ATOM      8  N   UNL     1      33.298 -14.793 -24.639  0.00  0.00    -0.193 N 
ATOM      9  C   UNL     1      34.025 -15.948 -24.889  0.00  0.00    +0.268 C 
ATOM     10  H   UNL     1      33.135 -14.474 -23.722  0.00  0.00    +0.183 HD
BRANCH   8  11
ATOM     11  O   UNL     1      32.808 -14.101 -25.755  0.00  0.00    -0.295 OA
ATOM     12  H   UNL     1      32.731 -14.711 -26.506  0.00  0.00    +0.241 HD
ENDBRANCH   8  11
ENDBRANCH   1   9
BRANCH   4  13
ATOM     13  O   UNL     1      35.027 -16.155 -20.149  0.00  0.00    -0.503 OA
ATOM     14  H   UNL     1      34.483 -16.499 -19.466  0.00  0.00    +0.292 HD
ENDBRANCH   4  13
BRANCH   5  15
ATOM     15  O   UNL     1      36.051 -18.721 -20.457  0.00  0.00    -0.503 OA
ATOM     16  H   UNL     1      36.303 -18.257 -19.682  0.00  0.00    +0.292 HD
ENDBRANCH   5  15
TORSDOF 4
ENDMDL
MODEL 7
REMARK VINA RESULT:      -6.6      5.362      6.869
REMARK  Name = 3045
REMARK  4 active torsions:
REMARK  status: ('A' for Active; 'I' for Inactive)
REMARK    1  A    between atoms: C_1  and  C_9
REMARK    2  A    between atoms: C_4  and  O_13
REMARK    3  A    between atoms: C_5  and  O_15
REMARK    4  A    between atoms: N_8  and  O_11
REMARK                            x       y       z     vdW  Elec       q    Type
REMARK                         _______ _______ _______ _____ _____    ______ ____
ROOT
ATOM      1  C   UNL     1      32.523 -23.429 -16.205  0.00  0.00    +0.059 C 
ATOM      2  C   UNL     1      33.262 -23.917 -15.129  0.00  0.00    +0.044 C 
ATOM      3  C   UNL     1      31.134 -23.332 -16.111  0.00  0.00    +0.008 C 
ATOM      4  C   UNL     1      32.614 -24.310 -13.957  0.00  0.00    +0.168 C 
ATOM      5  C   UNL     1      31.225 -24.214 -13.864  0.00  0.00    +0.167 C 
ATOM      6  C   UNL     1      30.486 -23.725 -14.941  0.00  0.00    +0.040 C 
ENDROOT
BRANCH   1   9
ATOM      7  O   UNL     1      34.412 -23.245 -17.588  0.00  0.00    -0.268 OA
ATOM      8  N   UNL     1      32.436 -22.362 -18.383  0.00  0.00    -0.193 N 
ATOM      9  C   UNL     1      33.198 -23.019 -17.427  0.00  0.00    +0.268 C 
ATOM     10  H   UNL     1      31.477 -22.188 -18.247  0.00  0.00    +0.183 HD
BRANCH   8  11
ATOM     11  O   UNL     1      33.098 -21.959 -19.551  0.00  0.00    -0.295 OA
ATOM     12  H   UNL     1      34.055 -21.946 -19.393  0.00  0.00    +0.241 HD
ENDBRANCH   8  11
ENDBRANCH   1   9
BRANCH   4  13
ATOM     13  O   UNL     1      33.346 -24.787 -12.913  0.00  0.00    -0.503 OA
ATOM     14  H   UNL     1      34.105 -25.313 -13.075  0.00  0.00    +0.292 HD
ENDBRANCH   4  13
BRANCH   5  15
ATOM     15  O   UNL     1      30.580 -24.594 -12.726  0.00  0.00    -0.503 OA
ATOM     16  H   UNL     1      30.809 -24.205 -11.905  0.00  0.00    +0.292 HD
ENDBRANCH   5  15
TORSDOF 4
ENDMDL
MODEL 8
REMARK VINA RESULT:      -6.6      9.627     10.316
REMARK  Name = 3045
REMARK  4 active torsions:
REMARK  status: ('A' for Active; 'I' for Inactive)
REMARK    1  A    between atoms: C_1  and  C_9
REMARK    2  A    between atoms: C_4  and  O_13
REMARK    3  A    between atoms: C_5  and  O_15
REMARK    4  A    between atoms: N_8  and  O_11
REMARK                            x       y       z     vdW  Elec       q    Type
REMARK                         _______ _______ _______ _____ _____    ______ ____
ROOT
ATOM      1  C   UNL     1      37.491 -25.497 -13.533  0.00  0.00    +0.059 C 
ATOM      2  C   UNL     1      36.417 -25.667 -12.660  0.00  0.00    +0.044 C 
ATOM      3  C   UNL     1      38.390 -24.448 -13.338  0.00  0.00    +0.008 C 
ATOM      4  C   UNL     1      36.240 -24.786 -11.592  0.00  0.00    +0.168 C 
ATOM      5  C   UNL     1      37.139 -23.737 -11.398  0.00  0.00    +0.167 C 
ATOM      6  C   UNL     1      38.213 -23.568 -12.271  0.00  0.00    +0.040 C 
ENDROOT
BRANCH   1   9
ATOM      7  O   UNL     1      38.787 -26.928 -14.870  0.00  0.00    -0.268 OA
ATOM      8  N   UNL     1      36.569 -26.674 -15.443  0.00  0.00    -0.193 N 
ATOM      9  C   UNL     1      37.676 -26.415 -14.647  0.00  0.00    +0.268 C 
ATOM     10  H   UNL     1      35.693 -26.264 -15.259  0.00  0.00    +0.183 HD
BRANCH   8  11
ATOM     11  O   UNL     1      36.759 -27.548 -16.523  0.00  0.00    -0.295 OA
ATOM     12  H   UNL     1      36.589 -28.460 -16.235  0.00  0.00    +0.241 HD
ENDBRANCH   8  11
ENDBRANCH   1   9
BRANCH   4  13
ATOM     13  O   UNL     1      35.187 -24.961 -10.747  0.00  0.00    -0.503 OA
ATOM     14  H   UNL     1      34.770 -25.799 -10.684  0.00  0.00    +0.292 HD
ENDBRANCH   4  13
BRANCH   5  15
ATOM     15  O   UNL     1      36.977 -22.871 -10.359  0.00  0.00    -0.503 OA
ATOM     16  H   UNL     1      36.186 -22.374 -10.281  0.00  0.00    +0.292 HD
ENDBRANCH   5  15
TORSDOF 4
ENDMDL
MODEL 9
REMARK VINA RESULT:      -6.6      2.005      5.041
REMARK  Name = 3045
REMARK  4 active torsions:
REMARK  status: ('A' for Active; 'I' for Inactive)
REMARK    1  A    between atoms: C_1  and  C_9
REMARK    2  A    between atoms: C_4  and  O_13
REMARK    3  A    between atoms: C_5  and  O_15
REMARK    4  A    between atoms: N_8  and  O_11
REMARK                            x       y       z     vdW  Elec       q    Type
REMARK                         _______ _______ _______ _____ _____    ______ ____
ROOT
ATOM      1  C   UNL     1      34.627 -19.135 -21.450  0.00  0.00    +0.059 C 
ATOM      2  C   UNL     1      34.571 -17.834 -20.950  0.00  0.00    +0.044 C 
ATOM      3  C   UNL     1      34.967 -19.356 -22.784  0.00  0.00    +0.008 C 
ATOM      4  C   UNL     1      34.856 -16.753 -21.785  0.00  0.00    +0.168 C 
ATOM      5  C   UNL     1      35.196 -16.974 -23.120  0.00  0.00    +0.167 C 
ATOM      6  C   UNL     1      35.252 -18.275 -23.619  0.00  0.00    +0.040 C 
ENDROOT
BRANCH   1   9
ATOM      7  O   UNL     1      35.244 -20.874 -19.997  0.00  0.00    -0.268 OA
ATOM      8  N   UNL     1      32.996 -20.624 -20.445  0.00  0.00    -0.193 N 
ATOM      9  C   UNL     1      34.329 -20.262 -20.579  0.00  0.00    +0.268 C 
ATOM     10  H   UNL     1      32.279 -20.134 -20.909  0.00  0.00    +0.183 HD
BRANCH   8  11
ATOM     11  O   UNL     1      32.720 -21.720 -19.615  0.00  0.00    -0.295 OA
ATOM     12  H   UNL     1      33.133 -21.582 -18.748  0.00  0.00    +0.241 HD
ENDBRANCH   8  11
ENDBRANCH   1   9
BRANCH   4  13
ATOM     13  O   UNL     1      34.797 -15.488 -21.287  0.00  0.00    -0.503 OA
ATOM     14  H   UNL     1      34.026 -15.195 -20.840  0.00  0.00    +0.292 HD
ENDBRANCH   4  13
BRANCH   5  15
ATOM     15  O   UNL     1      35.476 -15.928 -23.946  0.00  0.00    -0.503 OA
ATOM     16  H   UNL     1      36.024 -15.228 -23.647  0.00  0.00    +0.292 HD
ENDBRANCH   5  15
TORSDOF 4
ENDMDL
