MODEL 1
REMARK VINA RESULT:      -9.5      0.000      0.000
REMARK  Name = 46937176
REMARK  10 active torsions:
REMARK  status: ('A' for Active; 'I' for Inactive)
REMARK    1  A    between atoms: C_1  and  N_4
REMARK    2  A    between atoms: C_1  and  C_14
REMARK    3  A    between atoms: C_1  and  C_29
REMARK    4  A    between atoms: N_13  and  C_16
REMARK    5  A    between atoms: C_16  and  C_19
REMARK    6  A    between atoms: C_16  and  C_20
REMARK    7  A    between atoms: C_20  and  O_21
REMARK    8  A    between atoms: O_21  and  C_22
REMARK    9  A    between atoms: C_22  and  C_23
REMARK   10  A    between atoms: C_29  and  C_30
REMARK                            x       y       z     vdW  Elec       q    Type
REMARK                         _______ _______ _______ _____ _____    ______ ____
ROOT
ATOM      1  C   UNL     1      33.795 -23.297 -15.361  0.00  0.00    +0.150 C 
ENDROOT
BRANCH   1   4
ATOM      2  O   UNL     1      27.476 -23.445 -16.476  0.00  0.00    -0.350 OA
ATOM      3  O   UNL     1      31.603 -22.004 -14.159  0.00  0.00    -0.253 OA
ATOM      4  N   UNL     1      32.401 -23.561 -15.643  0.00  0.00    -0.282 N 
ATOM      5  N   UNL     1      30.073 -23.249 -15.379  0.00  0.00    -0.259 N 
ATOM      6  C   UNL     1      31.375 -22.875 -15.003  0.00  0.00    +0.304 C 
ATOM      7  C   UNL     1      28.930 -22.583 -14.750  0.00  0.00    +0.127 C 
ATOM      8  C   UNL     1      29.711 -24.373 -16.255  0.00  0.00    +0.127 C 
ATOM      9  C   UNL     1      28.582 -23.980 -17.202  0.00  0.00    +0.164 C 
ATOM     10  C   UNL     1      27.855 -22.259 -15.776  0.00  0.00    +0.164 C 
ATOM     11  H   UNL     1      32.172 -24.249 -16.309  0.00  0.00    +0.151 HD
ENDBRANCH   1   4
BRANCH   1  14
ATOM     12  O   UNL     1      35.693 -23.259 -16.870  0.00  0.00    -0.273 OA
ATOM     13  N   UNL     1      33.614 -22.617 -17.674  0.00  0.00    -0.293 N 
ATOM     14  C   UNL     1      34.494 -23.050 -16.693  0.00  0.00    +0.241 C 
ATOM     15  H   UNL     1      32.670 -22.477 -17.433  0.00  0.00    +0.150 HD
BRANCH  13  16
ATOM     16  C   UNL     1      34.028 -22.362 -19.034  0.00  0.00    +0.164 C 
ATOM     17  C   UNL     1      33.004 -21.431 -19.696  0.00  0.00    +0.038 C 
BRANCH  16  19
ATOM     18  N   UNL     1      34.108 -24.645 -20.355  0.00  0.00    -0.194 NA
ATOM     19  C   UNL     1      34.073 -23.641 -19.773  0.00  0.00    +0.092 C 
ENDBRANCH  16  19
BRANCH  16  20
ATOM     20  C   UNL     1      35.412 -21.691 -19.049  0.00  0.00    +0.175 C 
BRANCH  20  21
ATOM     21  O   UNL     1      35.717 -21.200 -20.351  0.00  0.00    -0.346 OA
BRANCH  21  22
ATOM     22  C   UNL     1      36.317 -19.915 -20.292  0.00  0.00    +0.169 C 
BRANCH  22  23
ATOM     23  C   UNL     1      35.703 -19.039 -21.345  0.00  0.00    +0.007 C 
ATOM     24  C   UNL     1      35.356 -19.576 -22.584  0.00  0.00    -0.002 C 
ATOM     25  C   UNL     1      35.479 -17.687 -21.082  0.00  0.00    -0.002 C 
ATOM     26  C   UNL     1      34.786 -18.761 -23.562  0.00  0.00    -0.000 C 
ATOM     27  C   UNL     1      34.908 -16.872 -22.061  0.00  0.00    -0.000 C 
ATOM     28  C   UNL     1      34.561 -17.409 -23.301  0.00  0.00    -0.000 C 
ENDBRANCH  22  23
ENDBRANCH  21  22
ENDBRANCH  20  21
ENDBRANCH  16  20
ENDBRANCH  13  16
ENDBRANCH   1  14
BRANCH   1  29
ATOM     29  C   UNL     1      34.458 -24.456 -14.614  0.00  0.00    +0.029 C 
BRANCH  29  30
ATOM     30  C   UNL     1      35.721 -24.028 -13.870  0.00  0.00    +0.002 C 
ATOM     31  C   UNL     1      35.436 -23.857 -12.372  0.00  0.00    +0.000 C 
ATOM     32  C   UNL     1      36.853 -25.038 -14.098  0.00  0.00    +0.000 C 
ATOM     33  C   UNL     1      36.696 -23.480 -11.597  0.00  0.00    +0.000 C 
ATOM     34  C   UNL     1      38.112 -24.659 -13.320  0.00  0.00    +0.000 C 
ATOM     35  C   UNL     1      37.822 -24.482 -11.832  0.00  0.00    +0.000 C 
ENDBRANCH  29  30
ENDBRANCH   1  29
TORSDOF 10
ENDMDL
MODEL 2
REMARK VINA RESULT:      -9.1      2.109      8.209
REMARK  Name = 46937176
REMARK  10 active torsions:
REMARK  status: ('A' for Active; 'I' for Inactive)
REMARK    1  A    between atoms: C_1  and  N_4
REMARK    2  A    between atoms: C_1  and  C_14
REMARK    3  A    between atoms: C_1  and  C_29
REMARK    4  A    between atoms: N_13  and  C_16
REMARK    5  A    between atoms: C_16  and  C_19
REMARK    6  A    between atoms: C_16  and  C_20
REMARK    7  A    between atoms: C_20  and  O_21
REMARK    8  A    between atoms: O_21  and  C_22
REMARK    9  A    between atoms: C_22  and  C_23
REMARK   10  A    between atoms: C_29  and  C_30
REMARK                            x       y       z     vdW  Elec       q    Type
REMARK                         _______ _______ _______ _____ _____    ______ ____
ROOT
ATOM      1  C   UNL     1      34.330 -22.746 -17.066  0.00  0.00    +0.150 C 
ENDROOT
BRANCH   1   4
ATOM      2  O   UNL     1      38.174 -26.317 -13.369  0.00  0.00    -0.350 OA
ATOM      3  O   UNL     1      36.926 -22.352 -16.054  0.00  0.00    -0.253 OA
ATOM      4  N   UNL     1      35.119 -23.732 -16.360  0.00  0.00    -0.282 N 
ATOM      5  N   UNL     1      37.041 -24.518 -15.231  0.00  0.00    -0.259 N 
ATOM      6  C   UNL     1      36.399 -23.456 -15.891  0.00  0.00    +0.304 C 
ATOM      7  C   UNL     1      38.395 -24.319 -14.710  0.00  0.00    +0.127 C 
ATOM      8  C   UNL     1      36.550 -25.900 -15.129  0.00  0.00    +0.127 C 
ATOM      9  C   UNL     1      36.802 -26.463 -13.734  0.00  0.00    +0.164 C 
ATOM     10  C   UNL     1      38.544 -24.937 -13.328  0.00  0.00    +0.164 C 
ATOM     11  H   UNL     1      34.738 -24.626 -16.208  0.00  0.00    +0.151 HD
ENDBRANCH   1   4
BRANCH   1  14
ATOM     12  O   UNL     1      31.968 -22.897 -17.593  0.00  0.00    -0.273 OA
ATOM     13  N   UNL     1      32.678 -23.487 -15.465  0.00  0.00    -0.293 N 
ATOM     14  C   UNL     1      32.863 -23.027 -16.760  0.00  0.00    +0.241 C 
ATOM     15  H   UNL     1      33.459 -23.556 -14.871  0.00  0.00    +0.150 HD
BRANCH  13  16
ATOM     16  C   UNL     1      31.383 -23.870 -14.952  0.00  0.00    +0.164 C 
ATOM     17  C   UNL     1      30.619 -22.604 -14.543  0.00  0.00    +0.038 C 
BRANCH  16  19
ATOM     18  N   UNL     1      31.712 -25.411 -12.836  0.00  0.00    -0.194 NA
ATOM     19  C   UNL     1      31.567 -24.733 -13.767  0.00  0.00    +0.092 C 
ENDBRANCH  16  19
BRANCH  16  20
ATOM     20  C   UNL     1      30.586 -24.618 -16.034  0.00  0.00    +0.175 C 
BRANCH  20  21
ATOM     21  O   UNL     1      29.200 -24.300 -15.948  0.00  0.00    -0.346 OA
BRANCH  21  22
ATOM     22  C   UNL     1      28.650 -24.031 -17.228  0.00  0.00    +0.169 C 
BRANCH  22  23
ATOM     23  C   UNL     1      27.575 -22.992 -17.091  0.00  0.00    +0.007 C 
ATOM     24  C   UNL     1      27.075 -22.668 -15.830  0.00  0.00    -0.002 C 
ATOM     25  C   UNL     1      27.077 -22.350 -18.225  0.00  0.00    -0.002 C 
ATOM     26  C   UNL     1      26.076 -21.703 -15.702  0.00  0.00    -0.000 C 
ATOM     27  C   UNL     1      26.078 -21.385 -18.098  0.00  0.00    -0.000 C 
ATOM     28  C   UNL     1      25.577 -21.061 -16.836  0.00  0.00    -0.000 C 
ENDBRANCH  22  23
ENDBRANCH  21  22
ENDBRANCH  20  21
ENDBRANCH  16  20
ENDBRANCH  13  16
ENDBRANCH   1  14
BRANCH   1  29
ATOM     29  C   UNL     1      34.580 -22.785 -18.575  0.00  0.00    +0.029 C 
BRANCH  29  30
ATOM     30  C   UNL     1      34.654 -21.390 -19.193  0.00  0.00    +0.002 C 
ATOM     31  C   UNL     1      35.926 -21.238 -20.037  0.00  0.00    +0.000 C 
ATOM     32  C   UNL     1      33.403 -21.104 -20.035  0.00  0.00    +0.000 C 
ATOM     33  C   UNL     1      35.997 -19.869 -20.709  0.00  0.00    +0.000 C 
ATOM     34  C   UNL     1      33.478 -19.735 -20.707  0.00  0.00    +0.000 C 
ATOM     35  C   UNL     1      34.749 -19.584 -21.539  0.00  0.00    +0.000 C 
ENDBRANCH  29  30
ENDBRANCH   1  29
TORSDOF 10
ENDMDL
MODEL 3
REMARK VINA RESULT:      -8.9      5.588     11.360
REMARK  Name = 46937176
REMARK  10 active torsions:
REMARK  status: ('A' for Active; 'I' for Inactive)
REMARK    1  A    between atoms: C_1  and  N_4
REMARK    2  A    between atoms: C_1  and  C_14
REMARK    3  A    between atoms: C_1  and  C_29
REMARK    4  A    between atoms: N_13  and  C_16
REMARK    5  A    between atoms: C_16  and  C_19
REMARK    6  A    between atoms: C_16  and  C_20
REMARK    7  A    between atoms: C_20  and  O_21
REMARK    8  A    between atoms: O_21  and  C_22
REMARK    9  A    between atoms: C_22  and  C_23
REMARK   10  A    between atoms: C_29  and  C_30
REMARK                            x       y       z     vdW  Elec       q    Type
REMARK                         _______ _______ _______ _____ _____    ______ ____
ROOT
ATOM      1  C   UNL     1      34.000 -14.435 -21.582  0.00  0.00    +0.150 C 
ENDROOT
BRANCH   1   4
ATOM      2  O   UNL     1      33.297 -13.506 -27.893  0.00  0.00    -0.350 OA
ATOM      3  O   UNL     1      34.323 -12.182 -23.237  0.00  0.00    -0.253 OA
ATOM      4  N   UNL     1      33.651 -14.362 -22.983  0.00  0.00    -0.282 N 
ATOM      5  N   UNL     1      33.448 -13.288 -25.079  0.00  0.00    -0.259 N 
ATOM      6  C   UNL     1      33.843 -13.206 -23.733  0.00  0.00    +0.304 C 
ATOM      7  C   UNL     1      33.608 -12.115 -25.942  0.00  0.00    +0.127 C 
ATOM      8  C   UNL     1      32.734 -14.409 -25.708  0.00  0.00    +0.127 C 
ATOM      9  C   UNL     1      33.288 -14.693 -27.100  0.00  0.00    +0.164 C 
ATOM     10  C   UNL     1      34.141 -12.512 -27.309  0.00  0.00    +0.164 C 
ATOM     11  H   UNL     1      33.265 -15.154 -23.420  0.00  0.00    +0.151 HD
ENDBRANCH   1   4
BRANCH   1  14
ATOM     12  O   UNL     1      35.031 -16.169 -20.234  0.00  0.00    -0.273 OA
ATOM     13  N   UNL     1      34.480 -16.645 -22.437  0.00  0.00    -0.293 N 
ATOM     14  C   UNL     1      34.577 -15.823 -21.324  0.00  0.00    +0.241 C 
ATOM     15  H   UNL     1      34.102 -16.275 -23.266  0.00  0.00    +0.150 HD
BRANCH  13  16
ATOM     16  C   UNL     1      34.912 -18.023 -22.427  0.00  0.00    +0.164 C 
ATOM     17  C   UNL     1      36.422 -18.067 -22.158  0.00  0.00    +0.038 C 
BRANCH  16  19
ATOM     18  N   UNL     1      34.419 -19.101 -24.784  0.00  0.00    -0.194 NA
ATOM     19  C   UNL     1      34.636 -18.626 -23.748  0.00  0.00    +0.092 C 
ENDBRANCH  16  19
BRANCH  16  20
ATOM     20  C   UNL     1      34.175 -18.800 -21.324  0.00  0.00    +0.175 C 
BRANCH  20  21
ATOM     21  O   UNL     1      35.104 -19.430 -20.447  0.00  0.00    -0.346 OA
BRANCH  21  22
ATOM     22  C   UNL     1      35.186 -20.826 -20.695  0.00  0.00    +0.169 C 
BRANCH  22  23
ATOM     23  C   UNL     1      34.979 -21.566 -19.406  0.00  0.00    +0.007 C 
ATOM     24  C   UNL     1      33.746 -22.157 -19.131  0.00  0.00    -0.002 C 
ATOM     25  C   UNL     1      36.021 -21.664 -18.483  0.00  0.00    -0.002 C 
ATOM     26  C   UNL     1      33.554 -22.845 -17.933  0.00  0.00    -0.000 C 
ATOM     27  C   UNL     1      35.828 -22.351 -17.285  0.00  0.00    -0.000 C 
ATOM     28  C   UNL     1      34.595 -22.942 -17.010  0.00  0.00    -0.000 C 
ENDBRANCH  22  23
ENDBRANCH  21  22
ENDBRANCH  20  21
ENDBRANCH  16  20
ENDBRANCH  13  16
ENDBRANCH   1  14
BRANCH   1  29
ATOM     29  C   UNL     1      32.793 -14.179 -20.676  0.00  0.00    +0.029 C 
BRANCH  29  30
ATOM     30  C   UNL     1      32.444 -12.697 -20.570  0.00  0.00    +0.002 C 
ATOM     31  C   UNL     1      31.383 -12.315 -21.611  0.00  0.00    +0.000 C 
ATOM     32  C   UNL     1      31.967 -12.352 -19.153  0.00  0.00    +0.000 C 
ATOM     33  C   UNL     1      30.976 -10.849 -21.491  0.00  0.00    +0.000 C 
ATOM     34  C   UNL     1      31.560 -10.885 -19.037  0.00  0.00    +0.000 C 
ATOM     35  C   UNL     1      30.510 -10.508 -20.079  0.00  0.00    +0.000 C 
ENDBRANCH  29  30
ENDBRANCH   1  29
TORSDOF 10
ENDMDL
MODEL 4
REMARK VINA RESULT:      -8.5      6.502     12.192
REMARK  Name = 46937176
REMARK  10 active torsions:
REMARK  status: ('A' for Active; 'I' for Inactive)
REMARK    1  A    between atoms: C_1  and  N_4
REMARK    2  A    between atoms: C_1  and  C_14
REMARK    3  A    between atoms: C_1  and  C_29
REMARK    4  A    between atoms: N_13  and  C_16
REMARK    5  A    between atoms: C_16  and  C_19
REMARK    6  A    between atoms: C_16  and  C_20
REMARK    7  A    between atoms: C_20  and  O_21
REMARK    8  A    between atoms: O_21  and  C_22
REMARK    9  A    between atoms: C_22  and  C_23
REMARK   10  A    between atoms: C_29  and  C_30
REMARK                            x       y       z     vdW  Elec       q    Type
REMARK                         _______ _______ _______ _____ _____    ______ ____
ROOT
ATOM      1  C   UNL     1      32.581 -13.464 -23.584  0.00  0.00    +0.150 C 
ENDROOT
BRANCH   1   4
ATOM      2  O   UNL     1      31.746  -8.773 -19.284  0.00  0.00    -0.350 OA
ATOM      3  O   UNL     1      31.699 -13.445 -20.912  0.00  0.00    -0.253 OA
ATOM      4  N   UNL     1      32.306 -12.283 -22.795  0.00  0.00    -0.282 N 
ATOM      5  N   UNL     1      31.640 -11.127 -20.844  0.00  0.00    -0.259 N 
ATOM      6  C   UNL     1      31.871 -12.361 -21.476  0.00  0.00    +0.304 C 
ATOM      7  C   UNL     1      31.174 -11.114 -19.455  0.00  0.00    +0.127 C 
ATOM      8  C   UNL     1      31.673  -9.804 -21.484  0.00  0.00    +0.127 C 
ATOM      9  C   UNL     1      32.350  -8.780 -20.578  0.00  0.00    +0.164 C 
ATOM     10  C   UNL     1      31.893 -10.044 -18.649  0.00  0.00    +0.164 C 
ATOM     11  H   UNL     1      32.429 -11.397 -23.204  0.00  0.00    +0.151 HD
ENDBRANCH   1   4
BRANCH   1  14
ATOM     12  O   UNL     1      34.815 -13.860 -22.728  0.00  0.00    -0.273 OA
ATOM     13  N   UNL     1      33.168 -15.445 -22.330  0.00  0.00    -0.293 N 
ATOM     14  C   UNL     1      33.659 -14.261 -22.859  0.00  0.00    +0.241 C 
ATOM     15  H   UNL     1      32.226 -15.679 -22.490  0.00  0.00    +0.150 HD
BRANCH  13  16
ATOM     16  C   UNL     1      33.985 -16.350 -21.555  0.00  0.00    +0.164 C 
ATOM     17  C   UNL     1      34.635 -15.569 -20.407  0.00  0.00    +0.038 C 
BRANCH  16  19
ATOM     18  N   UNL     1      35.872 -17.352 -23.103  0.00  0.00    -0.194 NA
ATOM     19  C   UNL     1      35.041 -16.912 -22.422  0.00  0.00    +0.092 C 
ENDBRANCH  16  19
BRANCH  16  20
ATOM     20  C   UNL     1      33.117 -17.480 -20.976  0.00  0.00    +0.175 C 
BRANCH  20  21
ATOM     21  O   UNL     1      33.435 -18.724 -21.593  0.00  0.00    -0.346 OA
BRANCH  21  22
ATOM     22  C   UNL     1      32.826 -19.811 -20.912  0.00  0.00    +0.169 C 
BRANCH  22  23
ATOM     23  C   UNL     1      33.881 -20.578 -20.171  0.00  0.00    +0.007 C 
ATOM     24  C   UNL     1      33.514 -21.577 -19.270  0.00  0.00    -0.002 C 
ATOM     25  C   UNL     1      35.230 -20.293 -20.385  0.00  0.00    -0.002 C 
ATOM     26  C   UNL     1      34.495 -22.291 -18.581  0.00  0.00    -0.000 C 
ATOM     27  C   UNL     1      36.211 -21.006 -19.696  0.00  0.00    -0.000 C 
ATOM     28  C   UNL     1      35.844 -22.005 -18.794  0.00  0.00    -0.000 C 
ENDBRANCH  22  23
ENDBRANCH  21  22
ENDBRANCH  20  21
ENDBRANCH  16  20
ENDBRANCH  13  16
ENDBRANCH   1  14
BRANCH   1  29
ATOM     29  C   UNL     1      33.037 -13.112 -25.003  0.00  0.00    +0.029 C 
BRANCH  29  30
ATOM     30  C   UNL     1      34.160 -12.078 -25.018  0.00  0.00    +0.002 C 
ATOM     31  C   UNL     1      34.545 -11.717 -26.458  0.00  0.00    +0.000 C 
ATOM     32  C   UNL     1      33.754 -10.825 -24.231  0.00  0.00    +0.000 C 
ATOM     33  C   UNL     1      35.630 -10.644 -26.501  0.00  0.00    +0.000 C 
ATOM     34  C   UNL     1      34.841  -9.754 -24.276  0.00  0.00    +0.000 C 
ATOM     35  C   UNL     1      35.226  -9.403 -25.711  0.00  0.00    +0.000 C 
ENDBRANCH  29  30
ENDBRANCH   1  29
TORSDOF 10
ENDMDL
MODEL 5
REMARK VINA RESULT:      -8.5      1.435      2.071
REMARK  Name = 46937176
REMARK  10 active torsions:
REMARK  status: ('A' for Active; 'I' for Inactive)
REMARK    1  A    between atoms: C_1  and  N_4
REMARK    2  A    between atoms: C_1  and  C_14
REMARK    3  A    between atoms: C_1  and  C_29
REMARK    4  A    between atoms: N_13  and  C_16
REMARK    5  A    between atoms: C_16  and  C_19
REMARK    6  A    between atoms: C_16  and  C_20
REMARK    7  A    between atoms: C_20  and  O_21
REMARK    8  A    between atoms: O_21  and  C_22
REMARK    9  A    between atoms: C_22  and  C_23
REMARK   10  A    between atoms: C_29  and  C_30
REMARK                            x       y       z     vdW  Elec       q    Type
REMARK                         _______ _______ _______ _____ _____    ______ ____
ROOT
ATOM      1  C   UNL     1      33.515 -23.273 -16.563  0.00  0.00    +0.150 C 
ENDROOT
BRANCH   1   4
ATOM      2  O   UNL     1      27.114 -23.163 -16.107  0.00  0.00    -0.350 OA
ATOM      3  O   UNL     1      31.746 -22.226 -14.641  0.00  0.00    -0.253 OA
ATOM      4  N   UNL     1      32.082 -23.469 -16.540  0.00  0.00    -0.282 N 
ATOM      5  N   UNL     1      29.904 -23.200 -15.660  0.00  0.00    -0.259 N 
ATOM      6  C   UNL     1      31.276 -22.915 -15.551  0.00  0.00    +0.304 C 
ATOM      7  C   UNL     1      28.982 -22.663 -14.658  0.00  0.00    +0.127 C 
ATOM      8  C   UNL     1      29.285 -24.129 -16.617  0.00  0.00    +0.127 C 
ATOM      9  C   UNL     1      27.985 -23.553 -17.168  0.00  0.00    +0.164 C 
ATOM     10  C   UNL     1      27.712 -22.139 -15.310  0.00  0.00    +0.164 C 
ATOM     11  H   UNL     1      31.665 -24.012 -17.246  0.00  0.00    +0.151 HD
ENDBRANCH   1   4
BRANCH   1  14
ATOM     12  O   UNL     1      33.693 -23.924 -18.892  0.00  0.00    -0.273 OA
ATOM     13  N   UNL     1      34.552 -21.871 -18.237  0.00  0.00    -0.293 N 
ATOM     14  C   UNL     1      33.931 -23.092 -18.018  0.00  0.00    +0.241 C 
ATOM     15  H   UNL     1      34.698 -21.271 -17.470  0.00  0.00    +0.150 HD
BRANCH  13  16
ATOM     16  C   UNL     1      34.992 -21.444 -19.544  0.00  0.00    +0.164 C 
ATOM     17  C   UNL     1      35.236 -22.684 -20.414  0.00  0.00    +0.038 C 
BRANCH  16  19
ATOM     18  N   UNL     1      37.249 -20.098 -19.300  0.00  0.00    -0.194 NA
ATOM     19  C   UNL     1      36.256 -20.690 -19.407  0.00  0.00    +0.092 C 
ENDBRANCH  16  19
BRANCH  16  20
ATOM     20  C   UNL     1      33.917 -20.563 -20.203  0.00  0.00    +0.175 C 
BRANCH  20  21
ATOM     21  O   UNL     1      34.414 -19.976 -21.402  0.00  0.00    -0.346 OA
BRANCH  21  22
ATOM     22  C   UNL     1      34.528 -18.566 -21.280  0.00  0.00    +0.169 C 
BRANCH  22  23
ATOM     23  C   UNL     1      34.586 -17.959 -22.652  0.00  0.00    +0.007 C 
ATOM     24  C   UNL     1      34.676 -16.576 -22.799  0.00  0.00    -0.002 C 
ATOM     25  C   UNL     1      34.551 -18.780 -23.779  0.00  0.00    -0.002 C 
ATOM     26  C   UNL     1      34.729 -16.011 -24.074  0.00  0.00    -0.000 C 
ATOM     27  C   UNL     1      34.604 -18.216 -25.054  0.00  0.00    -0.000 C 
ATOM     28  C   UNL     1      34.693 -16.832 -25.202  0.00  0.00    -0.000 C 
ENDBRANCH  22  23
ENDBRANCH  21  22
ENDBRANCH  20  21
ENDBRANCH  16  20
ENDBRANCH  13  16
ENDBRANCH   1  14
BRANCH   1  29
ATOM     29  C   UNL     1      34.265 -24.450 -15.933  0.00  0.00    +0.029 C 
BRANCH  29  30
ATOM     30  C   UNL     1      35.272 -24.004 -14.875  0.00  0.00    +0.002 C 
ATOM     31  C   UNL     1      34.659 -24.094 -13.472  0.00  0.00    +0.000 C 
ATOM     32  C   UNL     1      36.556 -24.839 -14.965  0.00  0.00    +0.000 C 
ATOM     33  C   UNL     1      35.665 -23.705 -12.391  0.00  0.00    +0.000 C 
ATOM     34  C   UNL     1      37.559 -24.449 -13.882  0.00  0.00    +0.000 C 
ATOM     35  C   UNL     1      36.943 -24.532 -12.488  0.00  0.00    +0.000 C 
ENDBRANCH  29  30
ENDBRANCH   1  29
TORSDOF 10
ENDMDL
MODEL 6
REMARK VINA RESULT:      -8.4     10.517     15.690
REMARK  Name = 46937176
REMARK  10 active torsions:
REMARK  status: ('A' for Active; 'I' for Inactive)
REMARK    1  A    between atoms: C_1  and  N_4
REMARK    2  A    between atoms: C_1  and  C_14
REMARK    3  A    between atoms: C_1  and  C_29
REMARK    4  A    between atoms: N_13  and  C_16
REMARK    5  A    between atoms: C_16  and  C_19
REMARK    6  A    between atoms: C_16  and  C_20
REMARK    7  A    between atoms: C_20  and  O_21
REMARK    8  A    between atoms: O_21  and  C_22
REMARK    9  A    between atoms: C_22  and  C_23
REMARK   10  A    between atoms: C_29  and  C_30
REMARK                            x       y       z     vdW  Elec       q    Type
REMARK                         _______ _______ _______ _____ _____    ______ ____
ROOT
ATOM      1  C   UNL     1      32.784  -8.134 -23.404  0.00  0.00    +0.150 C 
ENDROOT
BRANCH   1   4
ATOM      2  O   UNL     1      32.607  -2.548 -26.559  0.00  0.00    -0.350 OA
ATOM      3  O   UNL     1      31.313  -5.764 -23.029  0.00  0.00    -0.253 OA
ATOM      4  N   UNL     1      32.756  -7.006 -24.309  0.00  0.00    -0.282 N 
ATOM      5  N   UNL     1      32.070  -4.861 -25.027  0.00  0.00    -0.259 N 
ATOM      6  C   UNL     1      32.000  -5.868 -24.049  0.00  0.00    +0.304 C 
ATOM      7  C   UNL     1      31.301  -3.629 -24.838  0.00  0.00    +0.127 C 
ATOM      8  C   UNL     1      32.737  -4.964 -26.333  0.00  0.00    +0.127 C 
ATOM      9  C   UNL     1      33.478  -3.674 -26.667  0.00  0.00    +0.164 C 
ATOM     10  C   UNL     1      32.122  -2.408 -25.222  0.00  0.00    +0.164 C 
ATOM     11  H   UNL     1      33.288  -7.046 -25.136  0.00  0.00    +0.151 HD
ENDBRANCH   1   4
BRANCH   1  14
ATOM     12  O   UNL     1      35.071  -8.910 -23.624  0.00  0.00    -0.273 OA
ATOM     13  N   UNL     1      33.369 -10.161 -24.584  0.00  0.00    -0.293 N 
ATOM     14  C   UNL     1      33.880  -9.080 -23.881  0.00  0.00    +0.241 C 
ATOM     15  H   UNL     1      32.398 -10.207 -24.739  0.00  0.00    +0.150 HD
BRANCH  13  16
ATOM     16  C   UNL     1      34.204 -11.222 -25.096  0.00  0.00    +0.164 C 
ATOM     17  C   UNL     1      35.479 -10.607 -25.687  0.00  0.00    +0.038 C 
BRANCH  16  19
ATOM     18  N   UNL     1      32.899 -12.509 -26.993  0.00  0.00    -0.194 NA
ATOM     19  C   UNL     1      33.473 -11.943 -26.159  0.00  0.00    +0.092 C 
ENDBRANCH  16  19
BRANCH  16  20
ATOM     20  C   UNL     1      34.583 -12.190 -23.962  0.00  0.00    +0.175 C 
BRANCH  20  21
ATOM     21  O   UNL     1      33.561 -13.164 -23.770  0.00  0.00    -0.346 OA
BRANCH  21  22
ATOM     22  C   UNL     1      33.884 -14.052 -22.711  0.00  0.00    +0.169 C 
BRANCH  22  23
ATOM     23  C   UNL     1      34.269 -15.383 -23.287  0.00  0.00    +0.007 C 
ATOM     24  C   UNL     1      34.970 -16.304 -22.510  0.00  0.00    -0.002 C 
ATOM     25  C   UNL     1      33.922 -15.700 -24.602  0.00  0.00    -0.002 C 
ATOM     26  C   UNL     1      35.327 -17.541 -23.046  0.00  0.00    -0.000 C 
ATOM     27  C   UNL     1      34.279 -16.937 -25.138  0.00  0.00    -0.000 C 
ATOM     28  C   UNL     1      34.982 -17.858 -24.360  0.00  0.00    -0.000 C 
ENDBRANCH  22  23
ENDBRANCH  21  22
ENDBRANCH  20  21
ENDBRANCH  16  20
ENDBRANCH  13  16
ENDBRANCH   1  14
BRANCH   1  29
ATOM     29  C   UNL     1      31.436  -8.858 -23.348  0.00  0.00    +0.029 C 
BRANCH  29  30
ATOM     30  C   UNL     1      31.118  -9.397 -21.956  0.00  0.00    +0.002 C 
ATOM     31  C   UNL     1      31.161 -10.931 -21.946  0.00  0.00    +0.000 C 
ATOM     32  C   UNL     1      32.085  -8.817 -20.916  0.00  0.00    +0.000 C 
ATOM     33  C   UNL     1      30.899 -11.493 -20.551  0.00  0.00    +0.000 C 
ATOM     34  C   UNL     1      31.821  -9.383 -19.522  0.00  0.00    +0.000 C 
ATOM     35  C   UNL     1      31.857 -10.908 -19.518  0.00  0.00    +0.000 C 
ENDBRANCH  29  30
ENDBRANCH   1  29
TORSDOF 10
ENDMDL
MODEL 7
REMARK VINA RESULT:      -8.2      6.836     12.691
REMARK  Name = 46937176
REMARK  10 active torsions:
REMARK  status: ('A' for Active; 'I' for Inactive)
REMARK    1  A    between atoms: C_1  and  N_4
REMARK    2  A    between atoms: C_1  and  C_14
REMARK    3  A    between atoms: C_1  and  C_29
REMARK    4  A    between atoms: N_13  and  C_16
REMARK    5  A    between atoms: C_16  and  C_19
REMARK    6  A    between atoms: C_16  and  C_20
REMARK    7  A    between atoms: C_20  and  O_21
REMARK    8  A    between atoms: O_21  and  C_22
REMARK    9  A    between atoms: C_22  and  C_23
REMARK   10  A    between atoms: C_29  and  C_30
REMARK                            x       y       z     vdW  Elec       q    Type
REMARK                         _______ _______ _______ _____ _____    ______ ____
ROOT
ATOM      1  C   UNL     1      32.433 -12.126 -22.073  0.00  0.00    +0.150 C 
ENDROOT
BRANCH   1   4
ATOM      2  O   UNL     1      34.159 -13.441 -28.113  0.00  0.00    -0.350 OA
ATOM      3  O   UNL     1      34.185 -10.873 -23.884  0.00  0.00    -0.253 OA
ATOM      4  N   UNL     1      32.595 -12.474 -23.468  0.00  0.00    -0.282 N 
ATOM      5  N   UNL     1      33.526 -12.251 -25.629  0.00  0.00    -0.259 N 
ATOM      6  C   UNL     1      33.486 -11.803 -24.298  0.00  0.00    +0.304 C 
ATOM      7  C   UNL     1      34.432 -11.597 -26.576  0.00  0.00    +0.127 C 
ATOM      8  C   UNL     1      32.625 -13.242 -26.238  0.00  0.00    +0.127 C 
ATOM      9  C   UNL     1      33.396 -14.181 -27.160  0.00  0.00    +0.164 C 
ATOM     10  C   UNL     1      35.128 -12.619 -27.460  0.00  0.00    +0.164 C 
ATOM     11  H   UNL     1      32.057 -13.208 -23.841  0.00  0.00    +0.151 HD
ENDBRANCH   1   4
BRANCH   1  14
ATOM     12  O   UNL     1      32.337 -13.485 -20.066  0.00  0.00    -0.273 OA
ATOM     13  N   UNL     1      33.154 -14.433 -22.020  0.00  0.00    -0.293 N 
ATOM     14  C   UNL     1      32.640 -13.396 -21.256  0.00  0.00    +0.241 C 
ATOM     15  H   UNL     1      33.365 -14.263 -22.966  0.00  0.00    +0.150 HD
BRANCH  13  16
ATOM     16  C   UNL     1      33.391 -15.753 -21.484  0.00  0.00    +0.164 C 
ATOM     17  C   UNL     1      32.072 -16.306 -20.930  0.00  0.00    +0.038 C 
BRANCH  16  19
ATOM     18  N   UNL     1      35.156 -15.588 -19.530  0.00  0.00    -0.194 NA
ATOM     19  C   UNL     1      34.379 -15.660 -20.389  0.00  0.00    +0.092 C 
ENDBRANCH  16  19
BRANCH  16  20
ATOM     20  C   UNL     1      33.910 -16.687 -22.590  0.00  0.00    +0.175 C 
BRANCH  20  21
ATOM     21  O   UNL     1      34.938 -17.536 -22.089  0.00  0.00    -0.346 OA
BRANCH  21  22
ATOM     22  C   UNL     1      34.785 -18.867 -22.557  0.00  0.00    +0.169 C 
BRANCH  22  23
ATOM     23  C   UNL     1      34.527 -19.772 -21.388  0.00  0.00    +0.007 C 
ATOM     24  C   UNL     1      33.222 -19.976 -20.939  0.00  0.00    -0.002 C 
ATOM     25  C   UNL     1      35.592 -20.409 -20.751  0.00  0.00    -0.002 C 
ATOM     26  C   UNL     1      32.982 -20.817 -19.851  0.00  0.00    -0.000 C 
ATOM     27  C   UNL     1      35.352 -21.249 -19.664  0.00  0.00    -0.000 C 
ATOM     28  C   UNL     1      34.047 -21.454 -19.214  0.00  0.00    -0.000 C 
ENDBRANCH  22  23
ENDBRANCH  21  22
ENDBRANCH  20  21
ENDBRANCH  16  20
ENDBRANCH  13  16
ENDBRANCH   1  14
BRANCH   1  29
ATOM     29  C   UNL     1      31.054 -11.524 -21.789  0.00  0.00    +0.029 C 
BRANCH  29  30
ATOM     30  C   UNL     1      31.122 -10.034 -21.459  0.00  0.00    +0.002 C 
ATOM     31  C   UNL     1      32.134  -9.774 -20.336  0.00  0.00    +0.000 C 
ATOM     32  C   UNL     1      31.473  -9.219 -22.711  0.00  0.00    +0.000 C 
ATOM     33  C   UNL     1      32.260  -8.284 -20.025  0.00  0.00    +0.000 C 
ATOM     34  C   UNL     1      31.600  -7.730 -22.396  0.00  0.00    +0.000 C 
ATOM     35  C   UNL     1      32.601  -7.475 -21.272  0.00  0.00    +0.000 C 
ENDBRANCH  29  30
ENDBRANCH   1  29
TORSDOF 10
ENDMDL
MODEL 8
REMARK VINA RESULT:      -8.2      2.020      8.546
REMARK  Name = 46937176
REMARK  10 active torsions:
REMARK  status: ('A' for Active; 'I' for Inactive)
REMARK    1  A    between atoms: C_1  and  N_4
REMARK    2  A    between atoms: C_1  and  C_14
REMARK    3  A    between atoms: C_1  and  C_29
REMARK    4  A    between atoms: N_13  and  C_16
REMARK    5  A    between atoms: C_16  and  C_19
REMARK    6  A    between atoms: C_16  and  C_20
REMARK    7  A    between atoms: C_20  and  O_21
REMARK    8  A    between atoms: O_21  and  C_22
REMARK    9  A    between atoms: C_22  and  C_23
REMARK   10  A    between atoms: C_29  and  C_30
REMARK                            x       y       z     vdW  Elec       q    Type
REMARK                         _______ _______ _______ _____ _____    ______ ____
ROOT
ATOM      1  C   UNL     1      34.034 -22.851 -17.109  0.00  0.00    +0.150 C 
ENDROOT
BRANCH   1   4
ATOM      2  O   UNL     1      38.144 -26.431 -13.720  0.00  0.00    -0.350 OA
ATOM      3  O   UNL     1      36.727 -22.501 -16.371  0.00  0.00    -0.253 OA
ATOM      4  N   UNL     1      34.866 -23.840 -16.460  0.00  0.00    -0.282 N 
ATOM      5  N   UNL     1      36.873 -24.649 -15.508  0.00  0.00    -0.259 N 
ATOM      6  C   UNL     1      36.193 -23.587 -16.127  0.00  0.00    +0.304 C 
ATOM      7  C   UNL     1      38.277 -24.472 -15.128  0.00  0.00    +0.127 C 
ATOM      8  C   UNL     1      36.362 -26.015 -15.320  0.00  0.00    +0.127 C 
ATOM      9  C   UNL     1      36.739 -26.551 -13.943  0.00  0.00    +0.164 C 
ATOM     10  C   UNL     1      38.549 -25.062 -13.753  0.00  0.00    +0.164 C 
ATOM     11  H   UNL     1      34.482 -24.721 -16.247  0.00  0.00    +0.151 HD
ENDBRANCH   1   4
BRANCH   1  14
ATOM     12  O   UNL     1      31.678 -23.170 -17.586  0.00  0.00    -0.273 OA
ATOM     13  N   UNL     1      32.432 -23.494 -15.416  0.00  0.00    -0.293 N 
ATOM     14  C   UNL     1      32.585 -23.167 -16.755  0.00  0.00    +0.241 C 
ATOM     15  H   UNL     1      33.221 -23.461 -14.829  0.00  0.00    +0.150 HD
BRANCH  13  16
ATOM     16  C   UNL     1      31.162 -23.880 -14.849  0.00  0.00    +0.164 C 
ATOM     17  C   UNL     1      30.703 -25.188 -15.506  0.00  0.00    +0.038 C 
BRANCH  16  19
ATOM     18  N   UNL     1      29.387 -21.991 -15.339  0.00  0.00    -0.194 NA
ATOM     19  C   UNL     1      30.167 -22.822 -15.123  0.00  0.00    +0.092 C 
ENDBRANCH  16  19
BRANCH  16  20
ATOM     20  C   UNL     1      31.304 -24.094 -13.332  0.00  0.00    +0.175 C 
BRANCH  20  21
ATOM     21  O   UNL     1      32.554 -23.593 -12.869  0.00  0.00    -0.346 OA
BRANCH  21  22
ATOM     22  C   UNL     1      33.613 -24.491 -13.161  0.00  0.00    +0.169 C 
BRANCH  22  23
ATOM     23  C   UNL     1      34.812 -24.120 -12.339  0.00  0.00    +0.007 C 
ATOM     24  C   UNL     1      35.718 -23.172 -12.813  0.00  0.00    -0.002 C 
ATOM     25  C   UNL     1      35.020 -24.724 -11.098  0.00  0.00    -0.002 C 
ATOM     26  C   UNL     1      36.832 -22.827 -12.048  0.00  0.00    -0.000 C 
ATOM     27  C   UNL     1      36.134 -24.379 -10.333  0.00  0.00    -0.000 C 
ATOM     28  C   UNL     1      37.041 -23.430 -10.808  0.00  0.00    -0.000 C 
ENDBRANCH  22  23
ENDBRANCH  21  22
ENDBRANCH  20  21
ENDBRANCH  16  20
ENDBRANCH  13  16
ENDBRANCH   1  14
BRANCH   1  29
ATOM     29  C   UNL     1      34.227 -22.847 -18.627  0.00  0.00    +0.029 C 
BRANCH  29  30
ATOM     30  C   UNL     1      34.346 -21.435 -19.199  0.00  0.00    +0.002 C 
ATOM     31  C   UNL     1      35.628 -21.293 -20.029  0.00  0.00    +0.000 C 
ATOM     32  C   UNL     1      33.110 -21.086 -20.039  0.00  0.00    +0.000 C 
ATOM     33  C   UNL     1      35.743 -19.906 -20.656  0.00  0.00    +0.000 C 
ATOM     34  C   UNL     1      33.229 -19.699 -20.666  0.00  0.00    +0.000 C 
ATOM     35  C   UNL     1      34.510 -19.559 -21.484  0.00  0.00    +0.000 C 
ENDBRANCH  29  30
ENDBRANCH   1  29
TORSDOF 10
ENDMDL
MODEL 9
REMARK VINA RESULT:      -8.0      7.263     12.909
REMARK  Name = 46937176
REMARK  10 active torsions:
REMARK  status: ('A' for Active; 'I' for Inactive)
REMARK    1  A    between atoms: C_1  and  N_4
REMARK    2  A    between atoms: C_1  and  C_14
REMARK    3  A    between atoms: C_1  and  C_29
REMARK    4  A    between atoms: N_13  and  C_16
REMARK    5  A    between atoms: C_16  and  C_19
REMARK    6  A    between atoms: C_16  and  C_20
REMARK    7  A    between atoms: C_20  and  O_21
REMARK    8  A    between atoms: O_21  and  C_22
REMARK    9  A    between atoms: C_22  and  C_23
REMARK   10  A    between atoms: C_29  and  C_30
REMARK                            x       y       z     vdW  Elec       q    Type
REMARK                         _______ _______ _______ _____ _____    ______ ____
ROOT
ATOM      1  C   UNL     1      32.423 -12.186 -22.656  0.00  0.00    +0.150 C 
ENDROOT
BRANCH   1   4
ATOM      2  O   UNL     1      31.960  -6.176 -20.452  0.00  0.00    -0.350 OA
ATOM      3  O   UNL     1      32.461  -9.671 -23.918  0.00  0.00    -0.253 OA
ATOM      4  N   UNL     1      32.457 -10.905 -21.984  0.00  0.00    -0.282 N 
ATOM      5  N   UNL     1      32.514  -8.544 -21.892  0.00  0.00    -0.259 N 
ATOM      6  C   UNL     1      32.474  -9.704 -22.684  0.00  0.00    +0.304 C 
ATOM      7  C   UNL     1      32.540  -7.234 -22.546  0.00  0.00    +0.127 C 
ATOM      8  C   UNL     1      32.684  -8.496 -20.432  0.00  0.00    +0.127 C 
ATOM      9  C   UNL     1      31.774  -7.439 -19.814  0.00  0.00    +0.164 C 
ATOM     10  C   UNL     1      31.620  -6.252 -21.838  0.00  0.00    +0.164 C 
ATOM     11  H   UNL     1      32.469 -10.884 -21.001  0.00  0.00    +0.151 HD
ENDBRANCH   1   4
BRANCH   1  14
ATOM     12  O   UNL     1      32.230 -13.101 -20.418  0.00  0.00    -0.273 OA
ATOM     13  N   UNL     1      33.055 -14.455 -22.112  0.00  0.00    -0.293 N 
ATOM     14  C   UNL     1      32.563 -13.267 -21.591  0.00  0.00    +0.241 C 
ATOM     15  H   UNL     1      33.294 -14.489 -23.066  0.00  0.00    +0.150 HD
BRANCH  13  16
ATOM     16  C   UNL     1      33.229 -15.644 -21.311  0.00  0.00    +0.164 C 
ATOM     17  C   UNL     1      31.914 -15.946 -20.580  0.00  0.00    +0.038 C 
BRANCH  16  19
ATOM     18  N   UNL     1      35.132 -15.219 -19.534  0.00  0.00    -0.194 NA
ATOM     19  C   UNL     1      34.295 -15.406 -20.316  0.00  0.00    +0.092 C 
ENDBRANCH  16  19
BRANCH  16  20
ATOM     20  C   UNL     1      33.599 -16.837 -22.209  0.00  0.00    +0.175 C 
BRANCH  20  21
ATOM     21  O   UNL     1      34.653 -17.597 -21.625  0.00  0.00    -0.346 OA
BRANCH  21  22
ATOM     22  C   UNL     1      34.720 -18.901 -22.183  0.00  0.00    +0.169 C 
BRANCH  22  23
ATOM     23  C   UNL     1      34.515 -19.912 -21.092  0.00  0.00    +0.007 C 
ATOM     24  C   UNL     1      33.233 -20.157 -20.601  0.00  0.00    -0.002 C 
ATOM     25  C   UNL     1      35.607 -20.606 -20.571  0.00  0.00    -0.002 C 
ATOM     26  C   UNL     1      33.043 -21.096 -19.587  0.00  0.00    -0.000 C 
ATOM     27  C   UNL     1      35.417 -21.545 -19.557  0.00  0.00    -0.000 C 
ATOM     28  C   UNL     1      34.134 -21.791 -19.065  0.00  0.00    -0.000 C 
ENDBRANCH  22  23
ENDBRANCH  21  22
ENDBRANCH  20  21
ENDBRANCH  16  20
ENDBRANCH  13  16
ENDBRANCH   1  14
BRANCH   1  29
ATOM     29  C   UNL     1      33.534 -12.315 -23.701  0.00  0.00    +0.029 C 
BRANCH  29  30
ATOM     30  C   UNL     1      33.033 -12.901 -25.019  0.00  0.00    +0.002 C 
ATOM     31  C   UNL     1      33.694 -12.196 -26.211  0.00  0.00    +0.000 C 
ATOM     32  C   UNL     1      33.288 -14.414 -25.070  0.00  0.00    +0.000 C 
ATOM     33  C   UNL     1      33.250 -12.801 -27.541  0.00  0.00    +0.000 C 
ATOM     34  C   UNL     1      32.845 -15.015 -26.402  0.00  0.00    +0.000 C 
ATOM     35  C   UNL     1      33.497 -14.305 -27.585  0.00  0.00    +0.000 C 
ENDBRANCH  29  30
ENDBRANCH   1  29
TORSDOF 10
ENDMDL
