MODEL 1
REMARK VINA RESULT:      -9.2      0.000      0.000
REMARK  Name = 5281037
REMARK  12 active torsions:
REMARK  status: ('A' for Active; 'I' for Inactive)
REMARK    1  A    between atoms: N_1  and  C_22
REMARK    2  A    between atoms: C_3  and  C_18
REMARK    3  A    between atoms: C_4  and  C_6
REMARK    4  A    between atoms: C_7  and  C_9
REMARK    5  A    between atoms: C_7  and  C_12
REMARK    6  A    between atoms: C_9  and  O_10
REMARK    7  A    between atoms: C_12  and  C_14
REMARK    8  A    between atoms: C_18  and  C_19
REMARK    9  A    between atoms: C_19  and  C_20
REMARK   10  A    between atoms: C_22  and  C_23
REMARK   11  A    between atoms: C_28  and  C_30
REMARK   12  A    between atoms: C_30  and  O_31
REMARK                            x       y       z     vdW  Elec       q    Type
REMARK                         _______ _______ _______ _____ _____    ______ ____
ROOT
ATOM      1  N   UNL     1      34.741 -22.753 -16.564  0.00  0.00    -0.270 N 
ATOM      2  N   UNL     1      33.997 -22.974 -18.645  0.00  0.00    -0.232 NA
ATOM      3  C   UNL     1      34.939 -22.459 -17.884  0.00  0.00    +0.112 C 
ATOM      4  C   UNL     1      33.602 -23.503 -16.476  0.00  0.00    +0.072 C 
ATOM      5  C   UNL     1      33.161 -23.625 -17.773  0.00  0.00    +0.115 C 
ENDROOT
BRANCH   4   6
ATOM      6  C   UNL     1      33.134 -23.960 -15.235  0.00  0.00    +0.019 C 
ATOM      7  C   UNL     1      32.001 -23.509 -14.634  0.00  0.00    +0.059 C 
BRANCH   7   9
ATOM      8  O   UNL     1      30.860 -23.734 -12.521  0.00  0.00    -0.245 OA
ATOM      9  C   UNL     1      31.691 -24.138 -13.320  0.00  0.00    +0.334 C 
BRANCH   9  10
ATOM     10  O   UNL     1      32.454 -25.239 -13.129  0.00  0.00    -0.477 OA
ATOM     11  H   UNL     1      32.283 -25.808 -12.404  0.00  0.00    +0.295 HD
ENDBRANCH   9  10
ENDBRANCH   7   9
BRANCH   7  12
ATOM     12  C   UNL     1      31.051 -22.463 -15.181  0.00  0.00    +0.066 C 
BRANCH  12  14
ATOM     13  S   UNL     1      29.613 -24.710 -15.994  0.00  0.00    -0.090 S 
ATOM     14  C   UNL     1      29.852 -23.016 -15.921  0.00  0.00    +0.012 C 
ATOM     15  C   UNL     1      28.863 -22.325 -16.586  0.00  0.00    +0.003 C 
ATOM     16  C   UNL     1      27.895 -23.198 -17.162  0.00  0.00    +0.007 C 
ATOM     17  C   UNL     1      28.182 -24.523 -16.916  0.00  0.00    +0.035 C 
ENDBRANCH  12  14
ENDBRANCH   7  12
ENDBRANCH   4   6
BRANCH   3  18
ATOM     18  C   UNL     1      36.112 -21.640 -18.360  0.00  0.00    +0.062 C 
BRANCH  18  19
ATOM     19  C   UNL     1      36.163 -21.567 -19.888  0.00  0.00    +0.008 C 
BRANCH  19  20
ATOM     20  C   UNL     1      35.871 -20.152 -20.386  0.00  0.00    +0.000 C 
ATOM     21  C   UNL     1      34.400 -19.973 -20.726  0.00  0.00    +0.000 C 
ENDBRANCH  19  20
ENDBRANCH  18  19
ENDBRANCH   3  18
BRANCH   1  22
ATOM     22  C   UNL     1      35.594 -22.335 -15.472  0.00  0.00    +0.123 C 
BRANCH  22  23
ATOM     23  C   UNL     1      36.751 -23.278 -15.287  0.00  0.00    -0.002 C 
ATOM     24  C   UNL     1      37.992 -22.979 -15.851  0.00  0.00    -0.002 C 
ATOM     25  C   UNL     1      36.584 -24.454 -14.555  0.00  0.00    -0.002 C 
ATOM     26  C   UNL     1      39.065 -23.855 -15.680  0.00  0.00    +0.006 C 
ATOM     27  C   UNL     1      37.657 -25.329 -14.385  0.00  0.00    +0.006 C 
ATOM     28  C   UNL     1      38.897 -25.029 -14.948  0.00  0.00    +0.075 C 
BRANCH  28  30
ATOM     29  O   UNL     1      40.335 -26.485 -13.707  0.00  0.00    -0.245 OA
ATOM     30  C   UNL     1      40.016 -25.941 -14.770  0.00  0.00    +0.338 C 
BRANCH  30  31
ATOM     31  O   UNL     1      40.706 -26.150 -15.925  0.00  0.00    -0.477 OA
ATOM     32  H   UNL     1      40.328 -26.667 -16.609  0.00  0.00    +0.295 HD
ENDBRANCH  30  31
ENDBRANCH  28  30
ENDBRANCH  22  23
ENDBRANCH   1  22
TORSDOF 12
ENDMDL
MODEL 2
REMARK VINA RESULT:      -9.0      2.992      7.545
REMARK  Name = 5281037
REMARK  12 active torsions:
REMARK  status: ('A' for Active; 'I' for Inactive)
REMARK    1  A    between atoms: N_1  and  C_22
REMARK    2  A    between atoms: C_3  and  C_18
REMARK    3  A    between atoms: C_4  and  C_6
REMARK    4  A    between atoms: C_7  and  C_9
REMARK    5  A    between atoms: C_7  and  C_12
REMARK    6  A    between atoms: C_9  and  O_10
REMARK    7  A    between atoms: C_12  and  C_14
REMARK    8  A    between atoms: C_18  and  C_19
REMARK    9  A    between atoms: C_19  and  C_20
REMARK   10  A    between atoms: C_22  and  C_23
REMARK   11  A    between atoms: C_28  and  C_30
REMARK   12  A    between atoms: C_30  and  O_31
REMARK                            x       y       z     vdW  Elec       q    Type
REMARK                         _______ _______ _______ _____ _____    ______ ____
ROOT
ATOM      1  N   UNL     1      34.271 -23.793 -14.825  0.00  0.00    -0.270 N 
ATOM      2  N   UNL     1      35.534 -22.809 -16.364  0.00  0.00    -0.232 NA
ATOM      3  C   UNL     1      34.441 -23.509 -16.151  0.00  0.00    +0.112 C 
ATOM      4  C   UNL     1      35.321 -23.239 -14.149  0.00  0.00    +0.072 C 
ATOM      5  C   UNL     1      36.087 -22.638 -15.120  0.00  0.00    +0.115 C 
ENDROOT
BRANCH   4   6
ATOM      6  C   UNL     1      35.427 -23.365 -12.755  0.00  0.00    +0.019 C 
ATOM      7  C   UNL     1      35.922 -24.462 -12.124  0.00  0.00    +0.059 C 
BRANCH   7   9
ATOM      8  O   UNL     1      35.251 -25.036  -9.879  0.00  0.00    -0.245 OA
ATOM      9  C   UNL     1      35.947 -24.378 -10.637  0.00  0.00    +0.334 C 
BRANCH   9  10
ATOM     10  O   UNL     1      36.865 -23.472 -10.228  0.00  0.00    -0.477 OA
ATOM     11  H   UNL     1      37.417 -23.048 -10.855  0.00  0.00    +0.295 HD
ENDBRANCH   9  10
ENDBRANCH   7   9
BRANCH   7  12
ATOM     12  C   UNL     1      36.448 -25.718 -12.789  0.00  0.00    +0.066 C 
BRANCH  12  14
ATOM     13  S   UNL     1      38.078 -26.164 -15.007  0.00  0.00    -0.090 S 
ATOM     14  C   UNL     1      37.818 -25.582 -13.418  0.00  0.00    +0.012 C 
ATOM     15  C   UNL     1      38.957 -25.028 -12.877  0.00  0.00    +0.003 C 
ATOM     16  C   UNL     1      40.059 -25.082 -13.780  0.00  0.00    +0.007 C 
ATOM     17  C   UNL     1      39.719 -25.675 -14.976  0.00  0.00    +0.035 C 
ENDBRANCH  12  14
ENDBRANCH   7  12
ENDBRANCH   4   6
BRANCH   3  18
ATOM     18  C   UNL     1      33.464 -23.965 -17.205  0.00  0.00    +0.062 C 
BRANCH  18  19
ATOM     19  C   UNL     1      32.878 -22.781 -17.979  0.00  0.00    +0.008 C 
BRANCH  19  20
ATOM     20  C   UNL     1      33.753 -22.415 -19.178  0.00  0.00    +0.000 C 
ATOM     21  C   UNL     1      33.360 -21.069 -19.765  0.00  0.00    +0.000 C 
ENDBRANCH  19  20
ENDBRANCH  18  19
ENDBRANCH   3  18
BRANCH   1  22
ATOM     22  C   UNL     1      33.172 -24.546 -14.260  0.00  0.00    +0.123 C 
BRANCH  22  23
ATOM     23  C   UNL     1      31.844 -23.998 -14.705  0.00  0.00    -0.002 C 
ATOM     24  C   UNL     1      31.544 -22.650 -14.507  0.00  0.00    -0.002 C 
ATOM     25  C   UNL     1      30.909 -24.837 -15.312  0.00  0.00    -0.002 C 
ATOM     26  C   UNL     1      30.311 -22.142 -14.918  0.00  0.00    +0.006 C 
ATOM     27  C   UNL     1      29.678 -24.329 -15.723  0.00  0.00    +0.006 C 
ATOM     28  C   UNL     1      29.378 -22.981 -15.525  0.00  0.00    +0.075 C 
BRANCH  28  30
ATOM     29  O   UNL     1      27.044 -22.505 -15.304  0.00  0.00    -0.245 OA
ATOM     30  C   UNL     1      28.094 -22.451 -15.954  0.00  0.00    +0.338 C 
BRANCH  30  31
ATOM     31  O   UNL     1      28.154 -21.868 -17.182  0.00  0.00    -0.477 OA
ATOM     32  H   UNL     1      27.698 -22.251 -17.905  0.00  0.00    +0.295 HD
ENDBRANCH  30  31
ENDBRANCH  28  30
ENDBRANCH  22  23
ENDBRANCH   1  22
TORSDOF 12
ENDMDL
MODEL 3
REMARK VINA RESULT:      -8.7      8.344     11.859
REMARK  Name = 5281037
REMARK  12 active torsions:
REMARK  status: ('A' for Active; 'I' for Inactive)
REMARK    1  A    between atoms: N_1  and  C_22
REMARK    2  A    between atoms: C_3  and  C_18
REMARK    3  A    between atoms: C_4  and  C_6
REMARK    4  A    between atoms: C_7  and  C_9
REMARK    5  A    between atoms: C_7  and  C_12
REMARK    6  A    between atoms: C_9  and  O_10
REMARK    7  A    between atoms: C_12  and  C_14
REMARK    8  A    between atoms: C_18  and  C_19
REMARK    9  A    between atoms: C_19  and  C_20
REMARK   10  A    between atoms: C_22  and  C_23
REMARK   11  A    between atoms: C_28  and  C_30
REMARK   12  A    between atoms: C_30  and  O_31
REMARK                            x       y       z     vdW  Elec       q    Type
REMARK                         _______ _______ _______ _____ _____    ______ ____
ROOT
ATOM      1  N   UNL     1      33.861 -14.869 -22.879  0.00  0.00    -0.270 N 
ATOM      2  N   UNL     1      33.211 -14.814 -25.002  0.00  0.00    -0.232 NA
ATOM      3  C   UNL     1      34.046 -15.356 -24.143  0.00  0.00    +0.112 C 
ATOM      4  C   UNL     1      32.843 -13.959 -22.935  0.00  0.00    +0.072 C 
ATOM      5  C   UNL     1      32.459 -13.942 -24.255  0.00  0.00    +0.115 C 
ENDROOT
BRANCH   4   6
ATOM      6  C   UNL     1      32.419 -13.281 -21.782  0.00  0.00    +0.019 C 
ATOM      7  C   UNL     1      31.910 -12.020 -21.783  0.00  0.00    +0.059 C 
BRANCH   7   9
ATOM      8  O   UNL     1      30.885 -10.472 -20.244  0.00  0.00    -0.245 OA
ATOM      9  C   UNL     1      31.518 -11.497 -20.445  0.00  0.00    +0.334 C 
BRANCH   9  10
ATOM     10  O   UNL     1      31.951 -12.324 -19.467  0.00  0.00    -0.477 OA
ATOM     11  H   UNL     1      32.855 -12.567 -19.423  0.00  0.00    +0.295 HD
ENDBRANCH   9  10
ENDBRANCH   7   9
BRANCH   7  12
ATOM     12  C   UNL     1      31.701 -11.138 -22.998  0.00  0.00    +0.066 C 
BRANCH  12  14
ATOM     13  S   UNL     1      33.002  -8.678 -22.809  0.00  0.00    -0.090 S 
ATOM     14  C   UNL     1      32.894 -10.289 -23.382  0.00  0.00    +0.012 C 
ATOM     15  C   UNL     1      33.971 -10.631 -24.169  0.00  0.00    +0.003 C 
ATOM     16  C   UNL     1      34.898  -9.556 -24.303  0.00  0.00    +0.007 C 
ATOM     17  C   UNL     1      34.494  -8.435 -23.613  0.00  0.00    +0.035 C 
ENDBRANCH  12  14
ENDBRANCH   7  12
ENDBRANCH   4   6
BRANCH   3  18
ATOM     18  C   UNL     1      35.095 -16.391 -24.462  0.00  0.00    +0.062 C 
BRANCH  18  19
ATOM     19  C   UNL     1      34.561 -17.456 -25.423  0.00  0.00    +0.008 C 
BRANCH  19  20
ATOM     20  C   UNL     1      33.977 -18.647 -24.662  0.00  0.00    +0.000 C 
ATOM     21  C   UNL     1      35.028 -19.715 -24.408  0.00  0.00    +0.000 C 
ENDBRANCH  19  20
ENDBRANCH  18  19
ENDBRANCH   3  18
BRANCH   1  22
ATOM     22  C   UNL     1      34.617 -15.258 -21.708  0.00  0.00    +0.123 C 
BRANCH  22  23
ATOM     23  C   UNL     1      34.371 -16.698 -21.349  0.00  0.00    -0.002 C 
ATOM     24  C   UNL     1      35.446 -17.581 -21.232  0.00  0.00    -0.002 C 
ATOM     25  C   UNL     1      33.070 -17.153 -21.137  0.00  0.00    -0.002 C 
ATOM     26  C   UNL     1      35.218 -18.917 -20.901  0.00  0.00    +0.006 C 
ATOM     27  C   UNL     1      32.843 -18.489 -20.806  0.00  0.00    +0.006 C 
ATOM     28  C   UNL     1      33.917 -19.371 -20.689  0.00  0.00    +0.075 C 
BRANCH  28  30
ATOM     29  O   UNL     1      32.576 -21.317 -20.318  0.00  0.00    -0.245 OA
ATOM     30  C   UNL     1      33.680 -20.764 -20.343  0.00  0.00    +0.338 C 
BRANCH  30  31
ATOM     31  O   UNL     1      34.828 -21.427 -20.038  0.00  0.00    -0.477 OA
ATOM     32  H   UNL     1      34.852 -22.363 -20.073  0.00  0.00    +0.295 HD
ENDBRANCH  30  31
ENDBRANCH  28  30
ENDBRANCH  22  23
ENDBRANCH   1  22
TORSDOF 12
ENDMDL
MODEL 4
REMARK VINA RESULT:      -8.6     11.002     14.829
REMARK  Name = 5281037
REMARK  12 active torsions:
REMARK  status: ('A' for Active; 'I' for Inactive)
REMARK    1  A    between atoms: N_1  and  C_22
REMARK    2  A    between atoms: C_3  and  C_18
REMARK    3  A    between atoms: C_4  and  C_6
REMARK    4  A    between atoms: C_7  and  C_9
REMARK    5  A    between atoms: C_7  and  C_12
REMARK    6  A    between atoms: C_9  and  O_10
REMARK    7  A    between atoms: C_12  and  C_14
REMARK    8  A    between atoms: C_18  and  C_19
REMARK    9  A    between atoms: C_19  and  C_20
REMARK   10  A    between atoms: C_22  and  C_23
REMARK   11  A    between atoms: C_28  and  C_30
REMARK   12  A    between atoms: C_30  and  O_31
REMARK                            x       y       z     vdW  Elec       q    Type
REMARK                         _______ _______ _______ _____ _____    ______ ____
ROOT
ATOM      1  N   UNL     1      31.685 -12.404 -21.846  0.00  0.00    -0.270 N 
ATOM      2  N   UNL     1      32.466 -13.269 -19.955  0.00  0.00    -0.232 NA
ATOM      3  C   UNL     1      31.793 -12.274 -20.490  0.00  0.00    +0.112 C 
ATOM      4  C   UNL     1      32.330 -13.556 -22.200  0.00  0.00    +0.072 C 
ATOM      5  C   UNL     1      32.804 -14.071 -21.016  0.00  0.00    +0.115 C 
ENDROOT
BRANCH   4   6
ATOM      6  C   UNL     1      32.392 -13.964 -23.541  0.00  0.00    +0.019 C 
ATOM      7  C   UNL     1      33.423 -14.672 -24.075  0.00  0.00    +0.059 C 
BRANCH   7   9
ATOM      8  O   UNL     1      34.013 -15.746 -26.153  0.00  0.00    -0.245 OA
ATOM      9  C   UNL     1      33.279 -15.003 -25.520  0.00  0.00    +0.334 C 
BRANCH   9  10
ATOM     10  O   UNL     1      32.204 -14.373 -26.046  0.00  0.00    -0.477 OA
ATOM     11  H   UNL     1      31.701 -14.786 -26.720  0.00  0.00    +0.295 HD
ENDBRANCH   9  10
ENDBRANCH   7   9
BRANCH   7  12
ATOM     12  C   UNL     1      34.658 -15.150 -23.340  0.00  0.00    +0.066 C 
BRANCH  12  14
ATOM     13  S   UNL     1      34.348 -17.170 -21.442  0.00  0.00    -0.090 S 
ATOM     14  C   UNL     1      34.685 -16.632 -23.033  0.00  0.00    +0.012 C 
ATOM     15  C   UNL     1      34.955 -17.679 -23.887  0.00  0.00    +0.003 C 
ATOM     16  C   UNL     1      34.883 -18.940 -23.226  0.00  0.00    +0.007 C 
ATOM     17  C   UNL     1      34.562 -18.808 -21.893  0.00  0.00    +0.035 C 
ENDBRANCH  12  14
ENDBRANCH   7  12
ENDBRANCH   4   6
BRANCH   3  18
ATOM     18  C   UNL     1      31.193 -11.110 -19.743  0.00  0.00    +0.062 C 
BRANCH  18  19
ATOM     19  C   UNL     1      32.246 -10.047 -19.419  0.00  0.00    +0.008 C 
BRANCH  19  20
ATOM     20  C   UNL     1      31.720  -8.640 -19.704  0.00  0.00    +0.000 C 
ATOM     21  C   UNL     1      32.833  -7.710 -20.158  0.00  0.00    +0.000 C 
ENDBRANCH  19  20
ENDBRANCH  18  19
ENDBRANCH   3  18
BRANCH   1  22
ATOM     22  C   UNL     1      31.008 -11.480 -22.729  0.00  0.00    +0.123 C 
BRANCH  22  23
ATOM     23  C   UNL     1      31.901 -10.333 -23.115  0.00  0.00    -0.002 C 
ATOM     24  C   UNL     1      31.377  -9.044 -23.216  0.00  0.00    -0.002 C 
ATOM     25  C   UNL     1      33.253 -10.557 -23.376  0.00  0.00    -0.002 C 
ATOM     26  C   UNL     1      32.205  -7.980 -23.576  0.00  0.00    +0.006 C 
ATOM     27  C   UNL     1      34.080  -9.494 -23.736  0.00  0.00    +0.006 C 
ATOM     28  C   UNL     1      33.557  -8.206 -23.836  0.00  0.00    +0.075 C 
BRANCH  28  30
ATOM     29  O   UNL     1      34.180  -6.270 -25.097  0.00  0.00    -0.245 OA
ATOM     30  C   UNL     1      34.420  -7.096 -24.210  0.00  0.00    +0.338 C 
BRANCH  30  31
ATOM     31  O   UNL     1      35.559  -7.049 -23.467  0.00  0.00    -0.477 OA
ATOM     32  H   UNL     1      36.131  -7.791 -23.439  0.00  0.00    +0.295 HD
ENDBRANCH  30  31
ENDBRANCH  28  30
ENDBRANCH  22  23
ENDBRANCH   1  22
TORSDOF 12
ENDMDL
MODEL 5
REMARK VINA RESULT:      -8.5      9.977     13.797
REMARK  Name = 5281037
REMARK  12 active torsions:
REMARK  status: ('A' for Active; 'I' for Inactive)
REMARK    1  A    between atoms: N_1  and  C_22
REMARK    2  A    between atoms: C_3  and  C_18
REMARK    3  A    between atoms: C_4  and  C_6
REMARK    4  A    between atoms: C_7  and  C_9
REMARK    5  A    between atoms: C_7  and  C_12
REMARK    6  A    between atoms: C_9  and  O_10
REMARK    7  A    between atoms: C_12  and  C_14
REMARK    8  A    between atoms: C_18  and  C_19
REMARK    9  A    between atoms: C_19  and  C_20
REMARK   10  A    between atoms: C_22  and  C_23
REMARK   11  A    between atoms: C_28  and  C_30
REMARK   12  A    between atoms: C_30  and  O_31
REMARK                            x       y       z     vdW  Elec       q    Type
REMARK                         _______ _______ _______ _____ _____    ______ ____
ROOT
ATOM      1  N   UNL     1      32.515 -13.619 -22.394  0.00  0.00    -0.270 N 
ATOM      2  N   UNL     1      32.742 -13.979 -20.214  0.00  0.00    -0.232 NA
ATOM      3  C   UNL     1      32.289 -13.151 -21.130  0.00  0.00    +0.112 C 
ATOM      4  C   UNL     1      33.153 -14.822 -22.278  0.00  0.00    +0.072 C 
ATOM      5  C   UNL     1      33.282 -15.022 -20.924  0.00  0.00    +0.115 C 
ENDROOT
BRANCH   4   6
ATOM      6  C   UNL     1      33.523 -15.555 -23.417  0.00  0.00    +0.019 C 
ATOM      7  C   UNL     1      34.540 -16.455 -23.446  0.00  0.00    +0.059 C 
BRANCH   7   9
ATOM      8  O   UNL     1      34.990 -18.309 -24.921  0.00  0.00    -0.245 OA
ATOM      9  C   UNL     1      34.755 -17.122 -24.760  0.00  0.00    +0.334 C 
BRANCH   9  10
ATOM     10  O   UNL     1      34.640 -16.229 -25.770  0.00  0.00    -0.477 OA
ATOM     11  H   UNL     1      33.975 -15.570 -25.741  0.00  0.00    +0.295 HD
ENDBRANCH   9  10
ENDBRANCH   7   9
BRANCH   7  12
ATOM     12  C   UNL     1      35.436 -16.835 -22.284  0.00  0.00    +0.066 C 
BRANCH  12  14
ATOM     13  S   UNL     1      36.349 -19.156 -21.036  0.00  0.00    -0.090 S 
ATOM     14  C   UNL     1      35.091 -18.149 -21.617  0.00  0.00    +0.012 C 
ATOM     15  C   UNL     1      33.847 -18.695 -21.391  0.00  0.00    +0.003 C 
ATOM     16  C   UNL     1      33.927 -19.956 -20.731  0.00  0.00    +0.007 C 
ATOM     17  C   UNL     1      35.230 -20.326 -20.479  0.00  0.00    +0.035 C 
ENDBRANCH  12  14
ENDBRANCH   7  12
ENDBRANCH   4   6
BRANCH   3  18
ATOM     18  C   UNL     1      31.596 -11.837 -20.870  0.00  0.00    +0.062 C 
BRANCH  18  19
ATOM     19  C   UNL     1      31.669 -11.446 -19.392  0.00  0.00    +0.008 C 
BRANCH  19  20
ATOM     20  C   UNL     1      31.294  -9.979 -19.186  0.00  0.00    +0.000 C 
ATOM     21  C   UNL     1      32.241  -9.051 -19.930  0.00  0.00    +0.000 C 
ENDBRANCH  19  20
ENDBRANCH  18  19
ENDBRANCH   3  18
BRANCH   1  22
ATOM     22  C   UNL     1      32.141 -12.947 -23.620  0.00  0.00    +0.123 C 
BRANCH  22  23
ATOM     23  C   UNL     1      32.792 -11.596 -23.728  0.00  0.00    -0.002 C 
ATOM     24  C   UNL     1      34.100 -11.488 -24.203  0.00  0.00    -0.002 C 
ATOM     25  C   UNL     1      32.091 -10.450 -23.350  0.00  0.00    -0.002 C 
ATOM     26  C   UNL     1      34.704 -10.234 -24.301  0.00  0.00    +0.006 C 
ATOM     27  C   UNL     1      32.696  -9.198 -23.449  0.00  0.00    +0.006 C 
ATOM     28  C   UNL     1      34.003  -9.089 -23.924  0.00  0.00    +0.075 C 
BRANCH  28  30
ATOM     29  O   UNL     1      34.534  -7.014 -24.989  0.00  0.00    -0.245 OA
ATOM     30  C   UNL     1      34.633  -7.783 -24.027  0.00  0.00    +0.338 C 
BRANCH  30  31
ATOM     31  O   UNL     1      35.372  -7.473 -22.927  0.00  0.00    -0.477 OA
ATOM     32  H   UNL     1      35.089  -7.754 -22.079  0.00  0.00    +0.295 HD
ENDBRANCH  30  31
ENDBRANCH  28  30
ENDBRANCH  22  23
ENDBRANCH   1  22
TORSDOF 12
ENDMDL
MODEL 6
REMARK VINA RESULT:      -8.3      8.963     12.293
REMARK  Name = 5281037
REMARK  12 active torsions:
REMARK  status: ('A' for Active; 'I' for Inactive)
REMARK    1  A    between atoms: N_1  and  C_22
REMARK    2  A    between atoms: C_3  and  C_18
REMARK    3  A    between atoms: C_4  and  C_6
REMARK    4  A    between atoms: C_7  and  C_9
REMARK    5  A    between atoms: C_7  and  C_12
REMARK    6  A    between atoms: C_9  and  O_10
REMARK    7  A    between atoms: C_12  and  C_14
REMARK    8  A    between atoms: C_18  and  C_19
REMARK    9  A    between atoms: C_19  and  C_20
REMARK   10  A    between atoms: C_22  and  C_23
REMARK   11  A    between atoms: C_28  and  C_30
REMARK   12  A    between atoms: C_30  and  O_31
REMARK                            x       y       z     vdW  Elec       q    Type
REMARK                         _______ _______ _______ _____ _____    ______ ____
ROOT
ATOM      1  N   UNL     1      33.701 -14.569 -22.968  0.00  0.00    -0.270 N 
ATOM      2  N   UNL     1      33.336 -14.655 -25.157  0.00  0.00    -0.232 NA
ATOM      3  C   UNL     1      34.040 -15.145 -24.160  0.00  0.00    +0.112 C 
ATOM      4  C   UNL     1      32.717 -13.654 -23.219  0.00  0.00    +0.072 C 
ATOM      5  C   UNL     1      32.510 -13.725 -24.577  0.00  0.00    +0.115 C 
ENDROOT
BRANCH   4   6
ATOM      6  C   UNL     1      32.159 -12.893 -22.181  0.00  0.00    +0.019 C 
ATOM      7  C   UNL     1      32.185 -11.534 -22.133  0.00  0.00    +0.059 C 
BRANCH   7   9
ATOM      8  O   UNL     1      32.083 -10.251 -20.093  0.00  0.00    -0.245 OA
ATOM      9  C   UNL     1      31.527 -10.932 -20.940  0.00  0.00    +0.334 C 
BRANCH   9  10
ATOM     10  O   UNL     1      30.208 -11.234 -20.923  0.00  0.00    -0.477 OA
ATOM     11  H   UNL     1      29.769 -11.465 -21.718  0.00  0.00    +0.295 HD
ENDBRANCH   9  10
ENDBRANCH   7   9
BRANCH   7  12
ATOM     12  C   UNL     1      32.797 -10.612 -23.168  0.00  0.00    +0.066 C 
BRANCH  12  14
ATOM     13  S   UNL     1      33.424  -7.973 -22.519  0.00  0.00    -0.090 S 
ATOM     14  C   UNL     1      32.340  -9.171 -23.087  0.00  0.00    +0.012 C 
ATOM     15  C   UNL     1      31.112  -8.642 -23.420  0.00  0.00    +0.003 C 
ATOM     16  C   UNL     1      31.061  -7.233 -23.206  0.00  0.00    +0.007 C 
ATOM     17  C   UNL     1      32.252  -6.740 -22.718  0.00  0.00    +0.035 C 
ENDBRANCH  12  14
ENDBRANCH   7  12
ENDBRANCH   4   6
BRANCH   3  18
ATOM     18  C   UNL     1      35.101 -16.211 -24.266  0.00  0.00    +0.062 C 
BRANCH  18  19
ATOM     19  C   UNL     1      34.791 -17.202 -25.390  0.00  0.00    +0.008 C 
BRANCH  19  20
ATOM     20  C   UNL     1      34.044 -18.426 -24.860  0.00  0.00    +0.000 C 
ATOM     21  C   UNL     1      34.998 -19.443 -24.255  0.00  0.00    +0.000 C 
ENDBRANCH  19  20
ENDBRANCH  18  19
ENDBRANCH   3  18
BRANCH   1  22
ATOM     22  C   UNL     1      34.288 -14.884 -21.683  0.00  0.00    +0.123 C 
BRANCH  22  23
ATOM     23  C   UNL     1      34.137 -16.344 -21.353  0.00  0.00    -0.002 C 
ATOM     24  C   UNL     1      35.267 -17.154 -21.244  0.00  0.00    -0.002 C 
ATOM     25  C   UNL     1      32.867 -16.888 -21.158  0.00  0.00    -0.002 C 
ATOM     26  C   UNL     1      35.127 -18.509 -20.938  0.00  0.00    +0.006 C 
ATOM     27  C   UNL     1      32.728 -18.241 -20.854  0.00  0.00    +0.006 C 
ATOM     28  C   UNL     1      33.857 -19.052 -20.744  0.00  0.00    +0.075 C 
BRANCH  28  30
ATOM     29  O   UNL     1      32.644 -21.085 -20.397  0.00  0.00    -0.245 OA
ATOM     30  C   UNL     1      33.712 -20.464 -20.425  0.00  0.00    +0.338 C 
BRANCH  30  31
ATOM     31  O   UNL     1      34.903 -21.061 -20.151  0.00  0.00    -0.477 OA
ATOM     32  H   UNL     1      35.684 -20.545 -20.094  0.00  0.00    +0.295 HD
ENDBRANCH  30  31
ENDBRANCH  28  30
ENDBRANCH  22  23
ENDBRANCH   1  22
TORSDOF 12
ENDMDL
MODEL 7
REMARK VINA RESULT:      -8.1     12.907     16.744
REMARK  Name = 5281037
REMARK  12 active torsions:
REMARK  status: ('A' for Active; 'I' for Inactive)
REMARK    1  A    between atoms: N_1  and  C_22
REMARK    2  A    between atoms: C_3  and  C_18
REMARK    3  A    between atoms: C_4  and  C_6
REMARK    4  A    between atoms: C_7  and  C_9
REMARK    5  A    between atoms: C_7  and  C_12
REMARK    6  A    between atoms: C_9  and  O_10
REMARK    7  A    between atoms: C_12  and  C_14
REMARK    8  A    between atoms: C_18  and  C_19
REMARK    9  A    between atoms: C_19  and  C_20
REMARK   10  A    between atoms: C_22  and  C_23
REMARK   11  A    between atoms: C_28  and  C_30
REMARK   12  A    between atoms: C_30  and  O_31
REMARK                            x       y       z     vdW  Elec       q    Type
REMARK                         _______ _______ _______ _____ _____    ______ ____
ROOT
ATOM      1  N   UNL     1      32.637 -10.151 -22.345  0.00  0.00    -0.270 N 
ATOM      2  N   UNL     1      31.442 -10.488 -20.504  0.00  0.00    -0.232 NA
ATOM      3  C   UNL     1      32.265  -9.669 -21.122  0.00  0.00    +0.112 C 
ATOM      4  C   UNL     1      32.011 -11.354 -22.520  0.00  0.00    +0.072 C 
ATOM      5  C   UNL     1      31.280 -11.540 -21.370  0.00  0.00    +0.115 C 
ENDROOT
BRANCH   4   6
ATOM      6  C   UNL     1      32.199 -12.100 -23.694  0.00  0.00    +0.019 C 
ATOM      7  C   UNL     1      33.157 -13.052 -23.846  0.00  0.00    +0.059 C 
BRANCH   7   9
ATOM      8  O   UNL     1      32.949 -14.909 -25.372  0.00  0.00    -0.245 OA
ATOM      9  C   UNL     1      33.173 -13.724 -25.175  0.00  0.00    +0.334 C 
BRANCH   9  10
ATOM     10  O   UNL     1      33.460 -12.835 -26.153  0.00  0.00    -0.477 OA
ATOM     11  H   UNL     1      33.862 -12.016 -25.940  0.00  0.00    +0.295 HD
ENDBRANCH   9  10
ENDBRANCH   7   9
BRANCH   7  12
ATOM     12  C   UNL     1      34.168 -13.482 -22.803  0.00  0.00    +0.066 C 
BRANCH  12  14
ATOM     13  S   UNL     1      34.745 -16.165 -22.303  0.00  0.00    -0.090 S 
ATOM     14  C   UNL     1      33.813 -14.749 -22.055  0.00  0.00    +0.012 C 
ATOM     15  C   UNL     1      32.795 -14.953 -21.150  0.00  0.00    +0.003 C 
ATOM     16  C   UNL     1      32.779 -16.289 -20.654  0.00  0.00    +0.007 C 
ATOM     17  C   UNL     1      33.786 -17.055 -21.199  0.00  0.00    +0.035 C 
ENDBRANCH  12  14
ENDBRANCH   7  12
ENDBRANCH   4   6
BRANCH   3  18
ATOM     18  C   UNL     1      32.766  -8.350 -20.590  0.00  0.00    +0.062 C 
BRANCH  18  19
ATOM     19  C   UNL     1      31.615  -7.378 -20.322  0.00  0.00    +0.008 C 
BRANCH  19  20
ATOM     20  C   UNL     1      31.875  -6.018 -20.968  0.00  0.00    +0.000 C 
ATOM     21  C   UNL     1      30.577  -5.323 -21.346  0.00  0.00    +0.000 C 
ENDBRANCH  19  20
ENDBRANCH  18  19
ENDBRANCH   3  18
BRANCH   1  22
ATOM     22  C   UNL     1      33.533  -9.494 -23.272  0.00  0.00    +0.123 C 
BRANCH  22  23
ATOM     23  C   UNL     1      32.948  -8.205 -23.781  0.00  0.00    -0.002 C 
ATOM     24  C   UNL     1      33.779  -7.111 -24.028  0.00  0.00    -0.002 C 
ATOM     25  C   UNL     1      31.575  -8.100 -24.003  0.00  0.00    -0.002 C 
ATOM     26  C   UNL     1      33.236  -5.915 -24.498  0.00  0.00    +0.006 C 
ATOM     27  C   UNL     1      31.033  -6.904 -24.473  0.00  0.00    +0.006 C 
ATOM     28  C   UNL     1      31.864  -5.811 -24.720  0.00  0.00    +0.075 C 
BRANCH  28  30
ATOM     29  O   UNL     1      30.365  -3.946 -24.687  0.00  0.00    -0.245 OA
ATOM     30  C   UNL     1      31.299  -4.564 -25.210  0.00  0.00    +0.338 C 
BRANCH  30  31
ATOM     31  O   UNL     1      31.914  -4.122 -26.340  0.00  0.00    -0.477 OA
ATOM     32  H   UNL     1      32.040  -4.705 -27.064  0.00  0.00    +0.295 HD
ENDBRANCH  30  31
ENDBRANCH  28  30
ENDBRANCH  22  23
ENDBRANCH   1  22
TORSDOF 12
ENDMDL
MODEL 8
REMARK VINA RESULT:      -7.9     11.494     15.509
REMARK  Name = 5281037
REMARK  12 active torsions:
REMARK  status: ('A' for Active; 'I' for Inactive)
REMARK    1  A    between atoms: N_1  and  C_22
REMARK    2  A    between atoms: C_3  and  C_18
REMARK    3  A    between atoms: C_4  and  C_6
REMARK    4  A    between atoms: C_7  and  C_9
REMARK    5  A    between atoms: C_7  and  C_12
REMARK    6  A    between atoms: C_9  and  O_10
REMARK    7  A    between atoms: C_12  and  C_14
REMARK    8  A    between atoms: C_18  and  C_19
REMARK    9  A    between atoms: C_19  and  C_20
REMARK   10  A    between atoms: C_22  and  C_23
REMARK   11  A    between atoms: C_28  and  C_30
REMARK   12  A    between atoms: C_30  and  O_31
REMARK                            x       y       z     vdW  Elec       q    Type
REMARK                         _______ _______ _______ _____ _____    ______ ____
ROOT
ATOM      1  N   UNL     1      32.812 -11.381 -22.936  0.00  0.00    -0.270 N 
ATOM      2  N   UNL     1      33.803 -11.609 -24.910  0.00  0.00    -0.232 NA
ATOM      3  C   UNL     1      33.383 -10.752 -24.006  0.00  0.00    +0.112 C 
ATOM      4  C   UNL     1      32.871 -12.726 -23.172  0.00  0.00    +0.072 C 
ATOM      5  C   UNL     1      33.486 -12.841 -24.396  0.00  0.00    +0.115 C 
ENDROOT
BRANCH   4   6
ATOM      6  C   UNL     1      32.357 -13.644 -22.242  0.00  0.00    +0.019 C 
ATOM      7  C   UNL     1      33.069 -14.678 -21.719  0.00  0.00    +0.059 C 
BRANCH   7   9
ATOM      8  O   UNL     1      31.746 -16.567 -21.012  0.00  0.00    -0.245 OA
ATOM      9  C   UNL     1      32.326 -15.525 -20.745  0.00  0.00    +0.334 C 
BRANCH   9  10
ATOM     10  O   UNL     1      32.389 -14.989 -19.505  0.00  0.00    -0.477 OA
ATOM     11  H   UNL     1      32.931 -14.243 -19.343  0.00  0.00    +0.295 HD
ENDBRANCH   9  10
ENDBRANCH   7   9
BRANCH   7  12
ATOM     12  C   UNL     1      34.514 -15.017 -22.024  0.00  0.00    +0.066 C 
BRANCH  12  14
ATOM     13  S   UNL     1      35.286 -17.691 -22.199  0.00  0.00    -0.090 S 
ATOM     14  C   UNL     1      34.712 -16.237 -22.898  0.00  0.00    +0.012 C 
ATOM     15  C   UNL     1      34.488 -16.366 -24.251  0.00  0.00    +0.003 C 
ATOM     16  C   UNL     1      34.792 -17.677 -24.720  0.00  0.00    +0.007 C 
ATOM     17  C   UNL     1      35.236 -18.499 -23.708  0.00  0.00    +0.035 C 
ENDBRANCH  12  14
ENDBRANCH   7  12
ENDBRANCH   4   6
BRANCH   3  18
ATOM     18  C   UNL     1      33.496  -9.250 -24.091  0.00  0.00    +0.062 C 
BRANCH  18  19
ATOM     19  C   UNL     1      34.955  -8.791 -24.022  0.00  0.00    +0.008 C 
BRANCH  19  20
ATOM     20  C   UNL     1      35.052  -7.286 -23.776  0.00  0.00    +0.000 C 
ATOM     21  C   UNL     1      34.222  -6.501 -24.779  0.00  0.00    +0.000 C 
ENDBRANCH  19  20
ENDBRANCH  18  19
ENDBRANCH   3  18
BRANCH   1  22
ATOM     22  C   UNL     1      32.252 -10.726 -21.774  0.00  0.00    +0.123 C 
BRANCH  22  23
ATOM     23  C   UNL     1      31.859  -9.306 -22.079  0.00  0.00    -0.002 C 
ATOM     24  C   UNL     1      32.386  -8.259 -21.323  0.00  0.00    -0.002 C 
ATOM     25  C   UNL     1      30.965  -9.036 -23.116  0.00  0.00    -0.002 C 
ATOM     26  C   UNL     1      32.020  -6.942 -21.605  0.00  0.00    +0.006 C 
ATOM     27  C   UNL     1      30.600  -7.720 -23.398  0.00  0.00    +0.006 C 
ATOM     28  C   UNL     1      31.127  -6.673 -22.642  0.00  0.00    +0.075 C 
BRANCH  28  30
ATOM     29  O   UNL     1      30.763  -4.777 -24.055  0.00  0.00    -0.245 OA
ATOM     30  C   UNL     1      30.746  -5.300 -22.936  0.00  0.00    +0.338 C 
BRANCH  30  31
ATOM     31  O   UNL     1      30.356  -4.619 -21.825  0.00  0.00    -0.477 OA
ATOM     32  H   UNL     1      29.850  -3.834 -21.911  0.00  0.00    +0.295 HD
ENDBRANCH  30  31
ENDBRANCH  28  30
ENDBRANCH  22  23
ENDBRANCH   1  22
TORSDOF 12
ENDMDL
MODEL 9
REMARK VINA RESULT:      -7.8      9.282     13.022
REMARK  Name = 5281037
REMARK  12 active torsions:
REMARK  status: ('A' for Active; 'I' for Inactive)
REMARK    1  A    between atoms: N_1  and  C_22
REMARK    2  A    between atoms: C_3  and  C_18
REMARK    3  A    between atoms: C_4  and  C_6
REMARK    4  A    between atoms: C_7  and  C_9
REMARK    5  A    between atoms: C_7  and  C_12
REMARK    6  A    between atoms: C_9  and  O_10
REMARK    7  A    between atoms: C_12  and  C_14
REMARK    8  A    between atoms: C_18  and  C_19
REMARK    9  A    between atoms: C_19  and  C_20
REMARK   10  A    between atoms: C_22  and  C_23
REMARK   11  A    between atoms: C_28  and  C_30
REMARK   12  A    between atoms: C_30  and  O_31
REMARK                            x       y       z     vdW  Elec       q    Type
REMARK                         _______ _______ _______ _____ _____    ______ ____
ROOT
ATOM      1  N   UNL     1      32.668 -14.268 -22.233  0.00  0.00    -0.270 N 
ATOM      2  N   UNL     1      33.136 -14.209 -20.062  0.00  0.00    -0.232 NA
ATOM      3  C   UNL     1      32.460 -13.640 -21.037  0.00  0.00    +0.112 C 
ATOM      4  C   UNL     1      33.532 -15.303 -22.008  0.00  0.00    +0.072 C 
ATOM      5  C   UNL     1      33.806 -15.246 -20.662  0.00  0.00    +0.115 C 
ENDROOT
BRANCH   4   6
ATOM      6  C   UNL     1      33.941 -16.141 -23.057  0.00  0.00    +0.019 C 
ATOM      7  C   UNL     1      34.749 -17.222 -22.897  0.00  0.00    +0.059 C 
BRANCH   7   9
ATOM      8  O   UNL     1      35.083 -19.189 -24.252  0.00  0.00    -0.245 OA
ATOM      9  C   UNL     1      35.052 -17.973 -24.147  0.00  0.00    +0.334 C 
BRANCH   9  10
ATOM     10  O   UNL     1      35.281 -17.118 -25.171  0.00  0.00    -0.477 OA
ATOM     11  H   UNL     1      36.142 -16.782 -25.318  0.00  0.00    +0.295 HD
ENDBRANCH   9  10
ENDBRANCH   7   9
BRANCH   7  12
ATOM     12  C   UNL     1      35.336 -17.719 -21.591  0.00  0.00    +0.066 C 
BRANCH  12  14
ATOM     13  S   UNL     1      35.589 -20.252 -20.453  0.00  0.00    -0.090 S 
ATOM     14  C   UNL     1      34.647 -18.932 -21.003  0.00  0.00    +0.012 C 
ATOM     15  C   UNL     1      33.298 -19.152 -20.832  0.00  0.00    +0.003 C 
ATOM     16  C   UNL     1      33.034 -20.422 -20.241  0.00  0.00    +0.007 C 
ATOM     17  C   UNL     1      34.191 -21.123 -19.983  0.00  0.00    +0.035 C 
ENDBRANCH  12  14
ENDBRANCH   7  12
ENDBRANCH   4   6
BRANCH   3  18
ATOM     18  C   UNL     1      31.552 -12.443 -20.903  0.00  0.00    +0.062 C 
BRANCH  18  19
ATOM     19  C   UNL     1      31.799 -11.695 -19.590  0.00  0.00    +0.008 C 
BRANCH  19  20
ATOM     20  C   UNL     1      31.459 -10.211 -19.724  0.00  0.00    +0.000 C 
ATOM     21  C   UNL     1      31.851  -9.671 -21.090  0.00  0.00    +0.000 C 
ENDBRANCH  19  20
ENDBRANCH  18  19
ENDBRANCH   3  18
BRANCH   1  22
ATOM     22  C   UNL     1      32.074 -13.889 -23.497  0.00  0.00    +0.123 C 
BRANCH  22  23
ATOM     23  C   UNL     1      32.974 -12.969 -24.274  0.00  0.00    -0.002 C 
ATOM     24  C   UNL     1      33.512 -11.837 -23.661  0.00  0.00    -0.002 C 
ATOM     25  C   UNL     1      33.270 -13.244 -25.610  0.00  0.00    -0.002 C 
ATOM     26  C   UNL     1      34.346 -10.982 -24.383  0.00  0.00    +0.006 C 
ATOM     27  C   UNL     1      34.103 -12.389 -26.330  0.00  0.00    +0.006 C 
ATOM     28  C   UNL     1      34.641 -11.258 -25.717  0.00  0.00    +0.075 C 
BRANCH  28  30
ATOM     29  O   UNL     1      36.094 -10.654 -27.520  0.00  0.00    -0.245 OA
ATOM     30  C   UNL     1      35.510 -10.367 -26.469  0.00  0.00    +0.338 C 
BRANCH  30  31
ATOM     31  O   UNL     1      35.628  -9.142 -25.888  0.00  0.00    -0.477 OA
ATOM     32  H   UNL     1      36.000  -8.429 -26.370  0.00  0.00    +0.295 HD
ENDBRANCH  30  31
ENDBRANCH  28  30
ENDBRANCH  22  23
ENDBRANCH   1  22
TORSDOF 12
ENDMDL
