MODEL 1
REMARK VINA RESULT:     -11.0      0.000      0.000
REMARK  Name = 70957463
REMARK  1 active torsions:
REMARK  status: ('A' for Active; 'I' for Inactive)
REMARK    1  A    between atoms: C_8  and  C_17
REMARK                            x       y       z     vdW  Elec       q    Type
REMARK                         _______ _______ _______ _____ _____    ______ ____
ROOT
ATOM      1  N   UNL     1      32.943 -21.669 -19.361  0.00  0.00    -0.353 N 
ATOM      2  N   UNL     1      35.196 -23.465 -16.440  0.00  0.00    -0.242 NA
ATOM      3  C   UNL     1      35.103 -21.119 -19.410  0.00  0.00    +0.018 A 
ATOM      4  C   UNL     1      33.873 -20.913 -20.034  0.00  0.00    +0.057 A 
ATOM      5  C   UNL     1      34.885 -22.032 -18.330  0.00  0.00    +0.036 A 
ATOM      6  C   UNL     1      33.530 -22.357 -18.325  0.00  0.00    +0.060 A 
ATOM      7  C   UNL     1      33.718 -20.068 -21.140  0.00  0.00    +0.017 C 
ATOM      8  C   UNL     1      34.855 -19.415 -21.622  0.00  0.00    +0.003 C 
ATOM      9  C   UNL     1      36.237 -20.447 -19.915  0.00  0.00    +0.002 C 
ATOM     10  C   UNL     1      36.097 -19.601 -21.019  0.00  0.00    +0.000 C 
ATOM     11  C   UNL     1      35.710 -22.611 -17.358  0.00  0.00    +0.100 C 
ATOM     12  C   UNL     1      32.973 -23.230 -17.396  0.00  0.00    +0.038 C 
ATOM     13  C   UNL     1      33.874 -23.748 -16.480  0.00  0.00    +0.100 C 
ATOM     14  H   UNL     1      31.986 -21.713 -19.590  0.00  0.00    +0.166 HD
ENDROOT
BRANCH   8  17
ATOM     15  F   UNL     1      34.425 -15.951 -25.896  0.00  0.00    -0.183 F 
ATOM     16  N   UNL     1      34.684 -16.276 -23.630  0.00  0.00    -0.216 NA
ATOM     17  C   UNL     1      34.739 -18.532 -22.763  0.00  0.00    +0.019 C 
ATOM     18  C   UNL     1      34.578 -19.038 -24.049  0.00  0.00    +0.005 C 
ATOM     19  C   UNL     1      34.785 -17.157 -22.609  0.00  0.00    +0.101 C 
ATOM     20  C   UNL     1      34.470 -18.165 -25.125  0.00  0.00    +0.050 C 
ATOM     21  C   UNL     1      34.528 -16.806 -24.865  0.00  0.00    +0.222 C 
ENDBRANCH   8  17
TORSDOF 1
ENDMDL
MODEL 2
REMARK VINA RESULT:     -10.8      0.791      1.201
REMARK  Name = 70957463
REMARK  1 active torsions:
REMARK  status: ('A' for Active; 'I' for Inactive)
REMARK    1  A    between atoms: C_8  and  C_17
REMARK                            x       y       z     vdW  Elec       q    Type
REMARK                         _______ _______ _______ _____ _____    ______ ____
ROOT
ATOM      1  N   UNL     1      33.048 -21.357 -19.698  0.00  0.00    -0.353 N 
ATOM      2  N   UNL     1      35.425 -23.166 -16.885  0.00  0.00    -0.242 NA
ATOM      3  C   UNL     1      35.188 -20.737 -19.778  0.00  0.00    +0.018 A 
ATOM      4  C   UNL     1      33.937 -20.553 -20.369  0.00  0.00    +0.057 A 
ATOM      5  C   UNL     1      35.024 -21.688 -18.722  0.00  0.00    +0.036 A 
ATOM      6  C   UNL     1      33.680 -22.057 -18.697  0.00  0.00    +0.060 A 
ATOM      7  C   UNL     1      33.729 -19.681 -21.444  0.00  0.00    +0.017 C 
ATOM      8  C   UNL     1      34.834 -18.977 -21.932  0.00  0.00    +0.003 C 
ATOM      9  C   UNL     1      36.288 -20.015 -20.288  0.00  0.00    +0.002 C 
ATOM     10  C   UNL     1      36.095 -19.141 -21.364  0.00  0.00    +0.000 C 
ATOM     11  C   UNL     1      35.889 -22.269 -17.788  0.00  0.00    +0.100 C 
ATOM     12  C   UNL     1      33.173 -22.975 -17.782  0.00  0.00    +0.038 C 
ATOM     13  C   UNL     1      34.111 -23.490 -16.903  0.00  0.00    +0.100 C 
ATOM     14  H   UNL     1      32.088 -21.426 -19.907  0.00  0.00    +0.166 HD
ENDROOT
BRANCH   8  17
ATOM     15  F   UNL     1      34.177 -15.597 -26.244  0.00  0.00    -0.183 F 
ATOM     16  N   UNL     1      34.386 -17.738 -25.422  0.00  0.00    -0.216 NA
ATOM     17  C   UNL     1      34.663 -18.065 -23.043  0.00  0.00    +0.019 C 
ATOM     18  C   UNL     1      34.608 -16.690 -22.840  0.00  0.00    +0.005 C 
ATOM     19  C   UNL     1      34.548 -18.534 -24.341  0.00  0.00    +0.101 C 
ATOM     20  C   UNL     1      34.442 -15.839 -23.927  0.00  0.00    +0.050 C 
ATOM     21  C   UNL     1      34.337 -16.407 -25.185  0.00  0.00    +0.222 C 
ENDBRANCH   8  17
TORSDOF 1
ENDMDL
MODEL 3
REMARK VINA RESULT:     -10.7      1.119      1.959
REMARK  Name = 70957463
REMARK  1 active torsions:
REMARK  status: ('A' for Active; 'I' for Inactive)
REMARK    1  A    between atoms: C_8  and  C_17
REMARK                            x       y       z     vdW  Elec       q    Type
REMARK                         _______ _______ _______ _____ _____    ______ ____
ROOT
ATOM      1  N   UNL     1      36.883 -20.942 -18.771  0.00  0.00    -0.353 N 
ATOM      2  N   UNL     1      35.011 -23.516 -16.182  0.00  0.00    -0.242 NA
ATOM      3  C   UNL     1      34.725 -21.276 -19.220  0.00  0.00    +0.018 A 
ATOM      4  C   UNL     1      35.871 -20.597 -19.635  0.00  0.00    +0.057 A 
ATOM      5  C   UNL     1      35.080 -22.048 -18.069  0.00  0.00    +0.036 A 
ATOM      6  C   UNL     1      36.431 -21.819 -17.813  0.00  0.00    +0.060 A 
ATOM      7  C   UNL     1      35.885 -19.742 -20.743  0.00  0.00    +0.017 C 
ATOM      8  C   UNL     1      34.690 -19.576 -21.449  0.00  0.00    +0.003 C 
ATOM      9  C   UNL     1      33.531 -21.092 -19.949  0.00  0.00    +0.002 C 
ATOM     10  C   UNL     1      33.529 -20.240 -21.059  0.00  0.00    +0.000 C 
ATOM     11  C   UNL     1      34.382 -22.917 -17.221  0.00  0.00    +0.100 C 
ATOM     12  C   UNL     1      37.104 -22.419 -16.754  0.00  0.00    +0.038 C 
ATOM     13  C   UNL     1      36.324 -23.260 -15.977  0.00  0.00    +0.100 C 
ATOM     14  H   UNL     1      37.807 -20.607 -18.830  0.00  0.00    +0.166 HD
ENDROOT
BRANCH   8  17
ATOM     15  F   UNL     1      34.585 -16.144 -25.769  0.00  0.00    -0.183 F 
ATOM     16  N   UNL     1      34.679 -16.453 -23.488  0.00  0.00    -0.216 NA
ATOM     17  C   UNL     1      34.660 -18.702 -22.602  0.00  0.00    +0.019 C 
ATOM     18  C   UNL     1      34.589 -19.217 -23.892  0.00  0.00    +0.005 C 
ATOM     19  C   UNL     1      34.703 -17.325 -22.456  0.00  0.00    +0.101 C 
ATOM     20  C   UNL     1      34.563 -18.352 -24.979  0.00  0.00    +0.050 C 
ATOM     21  C   UNL     1      34.610 -16.991 -24.727  0.00  0.00    +0.222 C 
ENDBRANCH   8  17
TORSDOF 1
ENDMDL
MODEL 4
REMARK VINA RESULT:     -10.6      3.099      8.047
REMARK  Name = 70957463
REMARK  1 active torsions:
REMARK  status: ('A' for Active; 'I' for Inactive)
REMARK    1  A    between atoms: C_8  and  C_17
REMARK                            x       y       z     vdW  Elec       q    Type
REMARK                         _______ _______ _______ _____ _____    ______ ____
ROOT
ATOM      1  N   UNL     1      34.304 -14.958 -22.538  0.00  0.00    -0.353 N 
ATOM      2  N   UNL     1      33.338 -13.996 -26.408  0.00  0.00    -0.242 NA
ATOM      3  C   UNL     1      34.257 -16.703 -23.926  0.00  0.00    +0.018 A 
ATOM      4  C   UNL     1      34.486 -16.318 -22.604  0.00  0.00    +0.057 A 
ATOM      5  C   UNL     1      33.930 -15.520 -24.662  0.00  0.00    +0.036 A 
ATOM      6  C   UNL     1      33.968 -14.449 -23.770  0.00  0.00    +0.060 A 
ATOM      7  C   UNL     1      34.832 -17.231 -21.600  0.00  0.00    +0.017 C 
ATOM      8  C   UNL     1      34.948 -18.577 -21.959  0.00  0.00    +0.003 C 
ATOM      9  C   UNL     1      34.380 -18.067 -24.263  0.00  0.00    +0.002 C 
ATOM     10  C   UNL     1      34.726 -18.990 -23.271  0.00  0.00    +0.000 C 
ATOM     11  C   UNL     1      33.606 -15.259 -25.999  0.00  0.00    +0.100 C 
ATOM     12  C   UNL     1      33.698 -13.141 -24.160  0.00  0.00    +0.038 C 
ATOM     13  C   UNL     1      33.389 -12.992 -25.503  0.00  0.00    +0.100 C 
ATOM     14  H   UNL     1      34.403 -14.420 -21.719  0.00  0.00    +0.166 HD
ENDROOT
BRANCH   8  17
ATOM     15  F   UNL     1      36.417 -22.256 -18.117  0.00  0.00    -0.183 F 
ATOM     16  N   UNL     1      36.989 -20.510 -19.507  0.00  0.00    -0.216 NA
ATOM     17  C   UNL     1      35.303 -19.554 -20.952  0.00  0.00    +0.019 C 
ATOM     18  C   UNL     1      34.362 -20.451 -20.459  0.00  0.00    +0.005 C 
ATOM     19  C   UNL     1      36.591 -19.624 -20.447  0.00  0.00    +0.101 C 
ATOM     20  C   UNL     1      34.732 -21.378 -19.492  0.00  0.00    +0.050 C 
ATOM     21  C   UNL     1      36.046 -21.366 -19.052  0.00  0.00    +0.222 C 
ENDBRANCH   8  17
TORSDOF 1
ENDMDL
MODEL 5
REMARK VINA RESULT:     -10.3      3.149      8.240
REMARK  Name = 70957463
REMARK  1 active torsions:
REMARK  status: ('A' for Active; 'I' for Inactive)
REMARK    1  A    between atoms: C_8  and  C_17
REMARK                            x       y       z     vdW  Elec       q    Type
REMARK                         _______ _______ _______ _____ _____    ______ ____
ROOT
ATOM      1  N   UNL     1      33.914 -16.484 -25.206  0.00  0.00    -0.353 N 
ATOM      2  N   UNL     1      33.435 -12.416 -25.449  0.00  0.00    -0.242 NA
ATOM      3  C   UNL     1      34.223 -15.413 -23.274  0.00  0.00    +0.018 A 
ATOM      4  C   UNL     1      34.222 -16.671 -23.880  0.00  0.00    +0.057 A 
ATOM      5  C   UNL     1      33.901 -14.454 -24.286  0.00  0.00    +0.036 A 
ATOM      6  C   UNL     1      33.715 -15.151 -25.478  0.00  0.00    +0.060 A 
ATOM      7  C   UNL     1      34.498 -17.849 -23.176  0.00  0.00    +0.017 C 
ATOM      8  C   UNL     1      34.783 -17.738 -21.812  0.00  0.00    +0.003 C 
ATOM      9  C   UNL     1      34.514 -15.328 -21.896  0.00  0.00    +0.002 C 
ATOM     10  C   UNL     1      34.791 -16.497 -21.180  0.00  0.00    +0.000 C 
ATOM     11  C   UNL     1      33.753 -13.062 -24.301  0.00  0.00    +0.100 C 
ATOM     12  C   UNL     1      33.387 -14.516 -26.673  0.00  0.00    +0.038 C 
ATOM     13  C   UNL     1      33.264 -13.140 -26.579  0.00  0.00    +0.100 C 
ATOM     14  H   UNL     1      33.844 -17.207 -25.871  0.00  0.00    +0.166 HD
ENDROOT
BRANCH   8  17
ATOM     15  F   UNL     1      36.016 -22.255 -18.892  0.00  0.00    -0.183 F 
ATOM     16  N   UNL     1      36.709 -20.319 -19.930  0.00  0.00    -0.216 NA
ATOM     17  C   UNL     1      35.075 -18.932 -21.047  0.00  0.00    +0.019 C 
ATOM     18  C   UNL     1      34.066 -19.821 -20.691  0.00  0.00    +0.005 C 
ATOM     19  C   UNL     1      36.367 -19.224 -20.646  0.00  0.00    +0.101 C 
ATOM     20  C   UNL     1      34.378 -20.959 -19.955  0.00  0.00    +0.050 C 
ATOM     21  C   UNL     1      35.702 -21.160 -19.603  0.00  0.00    +0.222 C 
ENDBRANCH   8  17
TORSDOF 1
ENDMDL
MODEL 6
REMARK VINA RESULT:     -10.2      4.361      8.766
REMARK  Name = 70957463
REMARK  1 active torsions:
REMARK  status: ('A' for Active; 'I' for Inactive)
REMARK    1  A    between atoms: C_8  and  C_17
REMARK                            x       y       z     vdW  Elec       q    Type
REMARK                         _______ _______ _______ _____ _____    ______ ____
ROOT
ATOM      1  N   UNL     1      34.271 -13.287 -23.575  0.00  0.00    -0.353 N 
ATOM      2  N   UNL     1      31.677 -10.226 -22.716  0.00  0.00    -0.242 NA
ATOM      3  C   UNL     1      32.848 -13.736 -21.918  0.00  0.00    +0.018 A 
ATOM      4  C   UNL     1      33.901 -14.255 -22.672  0.00  0.00    +0.057 A 
ATOM      5  C   UNL     1      32.590 -12.414 -22.400  0.00  0.00    +0.036 A 
ATOM      6  C   UNL     1      33.492 -12.163 -23.432  0.00  0.00    +0.060 A 
ATOM      7  C   UNL     1      34.417 -15.540 -22.466  0.00  0.00    +0.017 C 
ATOM      8  C   UNL     1      33.838 -16.318 -21.460  0.00  0.00    +0.003 C 
ATOM      9  C   UNL     1      32.280 -14.541 -20.908  0.00  0.00    +0.002 C 
ATOM     10  C   UNL     1      32.785 -15.828 -20.692  0.00  0.00    +0.000 C 
ATOM     11  C   UNL     1      31.677 -11.409 -22.057  0.00  0.00    +0.100 C 
ATOM     12  C   UNL     1      33.516 -10.958 -24.128  0.00  0.00    +0.038 C 
ATOM     13  C   UNL     1      32.573 -10.033 -23.711  0.00  0.00    +0.100 C 
ATOM     14  H   UNL     1      34.994 -13.386 -24.236  0.00  0.00    +0.166 HD
ENDROOT
BRANCH   8  17
ATOM     15  F   UNL     1      35.876 -21.360 -20.522  0.00  0.00    -0.183 F 
ATOM     16  N   UNL     1      36.239 -19.114 -20.879  0.00  0.00    -0.216 NA
ATOM     17  C   UNL     1      34.342 -17.653 -21.214  0.00  0.00    +0.019 C 
ATOM     18  C   UNL     1      33.477 -18.733 -21.075  0.00  0.00    +0.005 C 
ATOM     19  C   UNL     1      35.702 -17.894 -21.109  0.00  0.00    +0.101 C 
ATOM     20  C   UNL     1      33.991 -20.002 -20.839  0.00  0.00    +0.050 C 
ATOM     21  C   UNL     1      35.366 -20.139 -20.750  0.00  0.00    +0.222 C 
ENDBRANCH   8  17
TORSDOF 1
ENDMDL
MODEL 7
REMARK VINA RESULT:     -10.2      3.872      8.208
REMARK  Name = 70957463
REMARK  1 active torsions:
REMARK  status: ('A' for Active; 'I' for Inactive)
REMARK    1  A    between atoms: C_8  and  C_17
REMARK                            x       y       z     vdW  Elec       q    Type
REMARK                         _______ _______ _______ _____ _____    ______ ____
ROOT
ATOM      1  N   UNL     1      32.426 -14.128 -21.248  0.00  0.00    -0.353 N 
ATOM      2  N   UNL     1      33.233 -11.249 -24.057  0.00  0.00    -0.242 NA
ATOM      3  C   UNL     1      33.954 -14.730 -22.756  0.00  0.00    +0.018 A 
ATOM      4  C   UNL     1      33.257 -15.156 -21.625  0.00  0.00    +0.057 A 
ATOM      5  C   UNL     1      33.516 -13.400 -23.051  0.00  0.00    +0.036 A 
ATOM      6  C   UNL     1      32.563 -13.053 -22.094  0.00  0.00    +0.060 A 
ATOM      7  C   UNL     1      33.441 -16.421 -21.055  0.00  0.00    +0.017 C 
ATOM      8  C   UNL     1      34.367 -17.276 -21.659  0.00  0.00    +0.003 C 
ATOM      9  C   UNL     1      34.884 -15.611 -23.348  0.00  0.00    +0.002 C 
ATOM     10  C   UNL     1      35.079 -16.878 -22.789  0.00  0.00    +0.000 C 
ATOM     11  C   UNL     1      33.836 -12.461 -24.039  0.00  0.00    +0.100 C 
ATOM     12  C   UNL     1      31.927 -11.816 -22.087  0.00  0.00    +0.038 C 
ATOM     13  C   UNL     1      32.316 -10.961 -23.105  0.00  0.00    +0.100 C 
ATOM     14  H   UNL     1      31.816 -14.157 -20.476  0.00  0.00    +0.166 HD
ENDROOT
BRANCH   8  17
ATOM     15  F   UNL     1      35.330 -22.277 -19.534  0.00  0.00    -0.183 F 
ATOM     16  N   UNL     1      36.142 -20.262 -20.298  0.00  0.00    -0.216 NA
ATOM     17  C   UNL     1      34.588 -18.594 -21.103  0.00  0.00    +0.019 C 
ATOM     18  C   UNL     1      33.523 -19.447 -20.835  0.00  0.00    +0.005 C 
ATOM     19  C   UNL     1      35.866 -19.045 -20.819  0.00  0.00    +0.101 C 
ATOM     20  C   UNL     1      33.766 -20.707 -20.299  0.00  0.00    +0.050 C 
ATOM     21  C   UNL     1      35.081 -21.063 -20.051  0.00  0.00    +0.222 C 
ENDBRANCH   8  17
TORSDOF 1
ENDMDL
MODEL 8
REMARK VINA RESULT:     -10.2      6.249     10.729
REMARK  Name = 70957463
REMARK  1 active torsions:
REMARK  status: ('A' for Active; 'I' for Inactive)
REMARK    1  A    between atoms: C_8  and  C_17
REMARK                            x       y       z     vdW  Elec       q    Type
REMARK                         _______ _______ _______ _____ _____    ______ ____
ROOT
ATOM      1  N   UNL     1      34.115  -9.690 -24.175  0.00  0.00    -0.353 N 
ATOM      2  N   UNL     1      31.829  -7.202 -21.849  0.00  0.00    -0.242 NA
ATOM      3  C   UNL     1      32.635 -10.751 -22.888  0.00  0.00    +0.018 A 
ATOM      4  C   UNL     1      33.641 -10.935 -23.838  0.00  0.00    +0.057 A 
ATOM      5  C   UNL     1      32.516  -9.343 -22.662  0.00  0.00    +0.036 A 
ATOM      6  C   UNL     1      33.451  -8.709 -23.479  0.00  0.00    +0.060 A 
ATOM      7  C   UNL     1      34.024 -12.201 -24.298  0.00  0.00    +0.017 C 
ATOM      8  C   UNL     1      33.358 -13.311 -23.772  0.00  0.00    +0.003 C 
ATOM      9  C   UNL     1      31.979 -11.888 -22.371  0.00  0.00    +0.002 C 
ATOM     10  C   UNL     1      32.351 -13.159 -22.823  0.00  0.00    +0.000 C 
ATOM     11  C   UNL     1      31.704  -8.550 -21.843  0.00  0.00    +0.100 C 
ATOM     12  C   UNL     1      33.603  -7.326 -23.507  0.00  0.00    +0.038 C 
ATOM     13  C   UNL     1      32.751  -6.635 -22.660  0.00  0.00    +0.100 C 
ATOM     14  H   UNL     1      34.833  -9.523 -24.829  0.00  0.00    +0.166 HD
ENDROOT
BRANCH   8  17
ATOM     15  F   UNL     1      34.702 -18.345 -25.590  0.00  0.00    -0.183 F 
ATOM     16  N   UNL     1      33.709 -16.303 -25.972  0.00  0.00    -0.216 NA
ATOM     17  C   UNL     1      33.724 -14.638 -24.220  0.00  0.00    +0.019 C 
ATOM     18  C   UNL     1      34.417 -15.511 -23.387  0.00  0.00    +0.005 C 
ATOM     19  C   UNL     1      33.397 -15.078 -25.491  0.00  0.00    +0.101 C 
ATOM     20  C   UNL     1      34.755 -16.779 -23.845  0.00  0.00    +0.050 C 
ATOM     21  C   UNL     1      34.382 -17.124 -25.134  0.00  0.00    +0.222 C 
ENDBRANCH   8  17
TORSDOF 1
ENDMDL
MODEL 9
REMARK VINA RESULT:      -9.6      1.833      3.201
REMARK  Name = 70957463
REMARK  1 active torsions:
REMARK  status: ('A' for Active; 'I' for Inactive)
REMARK    1  A    between atoms: C_8  and  C_17
REMARK                            x       y       z     vdW  Elec       q    Type
REMARK                         _______ _______ _______ _____ _____    ______ ____
ROOT
ATOM      1  N   UNL     1      37.212 -22.095 -16.945  0.00  0.00    -0.353 N 
ATOM      2  N   UNL     1      35.113 -24.662 -14.528  0.00  0.00    -0.242 NA
ATOM      3  C   UNL     1      35.111 -22.452 -17.601  0.00  0.00    +0.018 A 
ATOM      4  C   UNL     1      36.288 -21.767 -17.907  0.00  0.00    +0.057 A 
ATOM      5  C   UNL     1      35.357 -23.210 -16.413  0.00  0.00    +0.036 A 
ATOM      6  C   UNL     1      36.674 -22.967 -16.027  0.00  0.00    +0.060 A 
ATOM      7  C   UNL     1      36.404 -20.922 -19.017  0.00  0.00    +0.017 C 
ATOM      8  C   UNL     1      35.283 -20.772 -19.839  0.00  0.00    +0.003 C 
ATOM      9  C   UNL     1      33.994 -22.285 -18.446  0.00  0.00    +0.002 C 
ATOM     10  C   UNL     1      34.095 -21.443 -19.559  0.00  0.00    +0.000 C 
ATOM     11  C   UNL     1      34.586 -24.077 -15.630  0.00  0.00    +0.100 C 
ATOM     12  C   UNL     1      37.244 -23.552 -14.901  0.00  0.00    +0.038 C 
ATOM     13  C   UNL     1      36.397 -24.393 -14.197  0.00  0.00    +0.100 C 
ATOM     14  H   UNL     1      38.135 -21.752 -16.915  0.00  0.00    +0.166 HD
ENDROOT
BRANCH   8  17
ATOM     15  F   UNL     1      35.470 -17.524 -24.296  0.00  0.00    -0.183 F 
ATOM     16  N   UNL     1      34.378 -19.137 -23.067  0.00  0.00    -0.216 NA
ATOM     17  C   UNL     1      35.361 -19.908 -20.998  0.00  0.00    +0.019 C 
ATOM     18  C   UNL     1      36.435 -19.042 -21.177  0.00  0.00    +0.005 C 
ATOM     19  C   UNL     1      34.368 -19.917 -21.963  0.00  0.00    +0.101 C 
ATOM     20  C   UNL     1      36.482 -18.225 -22.300  0.00  0.00    +0.050 C 
ATOM     21  C   UNL     1      35.438 -18.308 -23.207  0.00  0.00    +0.222 C 
ENDBRANCH   8  17
TORSDOF 1
ENDMDL
