MODEL 1
REMARK VINA RESULT:      -9.5      0.000      0.000
REMARK  Name = 44205191
REMARK  4 active torsions:
REMARK  status: ('A' for Active; 'I' for Inactive)
REMARK    1  A    between atoms: C_2  and  N_17
REMARK    2  A    between atoms: C_3  and  N_8
REMARK    3  A    between atoms: C_18  and  C_21
REMARK    4  A    between atoms: C_21  and  O_22
REMARK                            x       y       z     vdW  Elec       q    Type
REMARK                         _______ _______ _______ _____ _____    ______ ____
ROOT
ATOM      1  F   UNL     1      32.668 -20.853 -19.715  0.00  0.00    -0.203 F 
ATOM      2  C   UNL     1      35.040 -19.047 -21.797  0.00  0.00    +0.059 C 
ATOM      3  C   UNL     1      35.043 -20.861 -19.676  0.00  0.00    +0.077 C 
ATOM      4  C   UNL     1      33.833 -19.508 -21.272  0.00  0.00    +0.046 C 
ATOM      5  C   UNL     1      36.249 -19.492 -21.261  0.00  0.00    +0.016 C 
ATOM      6  C   UNL     1      33.834 -20.415 -20.212  0.00  0.00    +0.155 C 
ATOM      7  C   UNL     1      36.249 -20.400 -20.202  0.00  0.00    +0.018 C 
ENDROOT
BRANCH   3   8
ATOM      8  N   UNL     1      35.047 -21.781 -18.601  0.00  0.00    -0.288 N 
ATOM      9  N   UNL     1      35.051 -23.662 -16.603  0.00  0.00    -0.199 NA
ATOM     10  N   UNL     1      33.922 -23.531 -17.355  0.00  0.00    -0.124 NA
ATOM     11  C   UNL     1      36.271 -21.910 -17.804  0.00  0.00    +0.111 C 
ATOM     12  C   UNL     1      35.910 -22.482 -16.430  0.00  0.00    +0.112 C 
ATOM     13  C   UNL     1      34.002 -22.633 -18.290  0.00  0.00    +0.202 C 
ATOM     14  C   UNL     1      34.856 -24.354 -15.332  0.00  0.00    +0.109 C 
ENDBRANCH   3   8
BRANCH   2  17
ATOM     15  O   UNL     1      34.896 -17.223 -24.945  0.00  0.00    -0.434 OA
ATOM     16  O   UNL     1      34.564 -19.459 -24.772  0.00  0.00    -0.226 OA
ATOM     17  N   UNL     1      35.038 -18.122 -22.879  0.00  0.00    -0.221 N 
ATOM     18  C   UNL     1      34.973 -16.117 -24.034  0.00  0.00    +0.220 C 
ATOM     19  C   UNL     1      35.406 -16.740 -22.724  0.00  0.00    +0.148 C 
ATOM     20  C   UNL     1      34.800 -18.393 -24.224  0.00  0.00    +0.409 C 
BRANCH  18  21
ATOM     21  C   UNL     1      33.608 -15.447 -23.958  0.00  0.00    +0.183 C 
BRANCH  21  22
ATOM     22  O   UNL     1      33.236 -15.028 -25.260  0.00  0.00    -0.378 OA
ATOM     23  H   UNL     1      32.595 -15.654 -25.629  0.00  0.00    +0.211 HD
ENDBRANCH  21  22
ENDBRANCH  18  21
ENDBRANCH   2  17
TORSDOF 4
ENDMDL
MODEL 2
REMARK VINA RESULT:      -9.5      7.235      9.968
REMARK  Name = 44205191
REMARK  4 active torsions:
REMARK  status: ('A' for Active; 'I' for Inactive)
REMARK    1  A    between atoms: C_2  and  N_17
REMARK    2  A    between atoms: C_3  and  N_8
REMARK    3  A    between atoms: C_18  and  C_21
REMARK    4  A    between atoms: C_21  and  O_22
REMARK                            x       y       z     vdW  Elec       q    Type
REMARK                         _______ _______ _______ _____ _____    ______ ____
ROOT
ATOM      1  F   UNL     1      31.900 -13.473 -22.142  0.00  0.00    -0.203 F 
ATOM      2  C   UNL     1      32.805 -10.107 -23.175  0.00  0.00    +0.059 C 
ATOM      3  C   UNL     1      33.400 -12.752 -23.836  0.00  0.00    +0.077 C 
ATOM      4  C   UNL     1      32.195 -11.153 -22.482  0.00  0.00    +0.046 C 
ATOM      5  C   UNL     1      33.712 -10.383 -24.198  0.00  0.00    +0.016 C 
ATOM      6  C   UNL     1      32.493 -12.475 -22.812  0.00  0.00    +0.155 C 
ATOM      7  C   UNL     1      34.008 -11.705 -24.528  0.00  0.00    +0.018 C 
ENDROOT
BRANCH   3   8
ATOM      8  N   UNL     1      33.703 -14.092 -24.173  0.00  0.00    -0.288 N 
ATOM      9  N   UNL     1      34.362 -16.647 -24.927  0.00  0.00    -0.199 NA
ATOM     10  N   UNL     1      33.549 -15.927 -25.750  0.00  0.00    -0.124 NA
ATOM     11  C   UNL     1      34.581 -14.850 -23.276  0.00  0.00    +0.111 C 
ATOM     12  C   UNL     1      34.332 -16.347 -23.488  0.00  0.00    +0.112 C 
ATOM     13  C   UNL     1      33.295 -14.723 -25.335  0.00  0.00    +0.202 C 
ATOM     14  C   UNL     1      34.336 -18.088 -25.158  0.00  0.00    +0.109 C 
ENDBRANCH   3   8
BRANCH   2  17
ATOM     15  O   UNL     1      31.452  -6.766 -22.653  0.00  0.00    -0.434 OA
ATOM     16  O   UNL     1      30.376  -8.390 -23.813  0.00  0.00    -0.226 OA
ATOM     17  N   UNL     1      32.500  -8.757 -22.838  0.00  0.00    -0.221 N 
ATOM     18  C   UNL     1      32.586  -6.703 -21.776  0.00  0.00    +0.220 C 
ATOM     19  C   UNL     1      33.436  -7.889 -22.176  0.00  0.00    +0.148 C 
ATOM     20  C   UNL     1      31.351  -8.042 -23.164  0.00  0.00    +0.409 C 
BRANCH  18  21
ATOM     21  C   UNL     1      32.097  -6.772 -20.336  0.00  0.00    +0.183 C 
BRANCH  21  22
ATOM     22  O   UNL     1      33.173  -7.185 -19.511  0.00  0.00    -0.378 OA
ATOM     23  H   UNL     1      34.009  -6.873 -19.890  0.00  0.00    +0.211 HD
ENDBRANCH  21  22
ENDBRANCH  18  21
ENDBRANCH   2  17
TORSDOF 4
ENDMDL
MODEL 3
REMARK VINA RESULT:      -9.3      7.178      9.861
REMARK  Name = 44205191
REMARK  4 active torsions:
REMARK  status: ('A' for Active; 'I' for Inactive)
REMARK    1  A    between atoms: C_2  and  N_17
REMARK    2  A    between atoms: C_3  and  N_8
REMARK    3  A    between atoms: C_18  and  C_21
REMARK    4  A    between atoms: C_21  and  O_22
REMARK                            x       y       z     vdW  Elec       q    Type
REMARK                         _______ _______ _______ _____ _____    ______ ____
ROOT
ATOM      1  F   UNL     1      31.795 -13.768 -21.981  0.00  0.00    -0.203 F 
ATOM      2  C   UNL     1      32.395 -10.307 -22.920  0.00  0.00    +0.059 C 
ATOM      3  C   UNL     1      33.224 -12.869 -23.651  0.00  0.00    +0.077 C 
ATOM      4  C   UNL     1      31.881 -11.422 -22.257  0.00  0.00    +0.046 C 
ATOM      5  C   UNL     1      33.324 -10.473 -23.948  0.00  0.00    +0.016 C 
ATOM      6  C   UNL     1      32.296 -12.703 -22.622  0.00  0.00    +0.155 C 
ATOM      7  C   UNL     1      33.737 -11.754 -24.313  0.00  0.00    +0.018 C 
ENDROOT
BRANCH   3   8
ATOM      8  N   UNL     1      33.646 -14.168 -24.023  0.00  0.00    -0.288 N 
ATOM      9  N   UNL     1      34.531 -16.632 -24.843  0.00  0.00    -0.199 NA
ATOM     10  N   UNL     1      33.672 -15.958 -25.658  0.00  0.00    -0.124 NA
ATOM     11  C   UNL     1      34.572 -14.877 -23.135  0.00  0.00    +0.111 C 
ATOM     12  C   UNL     1      34.455 -16.382 -23.397  0.00  0.00    +0.112 C 
ATOM     13  C   UNL     1      33.310 -14.794 -25.211  0.00  0.00    +0.202 C 
ATOM     14  C   UNL     1      34.632 -18.063 -25.118  0.00  0.00    +0.109 C 
ENDBRANCH   3   8
BRANCH   2  17
ATOM     15  O   UNL     1      31.590  -7.113 -21.369  0.00  0.00    -0.434 OA
ATOM     16  O   UNL     1      32.683  -8.788 -20.301  0.00  0.00    -0.226 OA
ATOM     17  N   UNL     1      31.972  -9.000 -22.548  0.00  0.00    -0.221 N 
ATOM     18  C   UNL     1      31.232  -6.814 -22.725  0.00  0.00    +0.220 C 
ATOM     19  C   UNL     1      31.172  -8.166 -23.404  0.00  0.00    +0.148 C 
ATOM     20  C   UNL     1      32.153  -8.369 -21.319  0.00  0.00    +0.409 C 
BRANCH  18  21
ATOM     21  C   UNL     1      32.286  -5.890 -23.320  0.00  0.00    +0.183 C 
BRANCH  21  22
ATOM     22  O   UNL     1      32.611  -6.351 -24.620  0.00  0.00    -0.378 OA
ATOM     23  H   UNL     1      31.908  -6.098 -25.238  0.00  0.00    +0.211 HD
ENDBRANCH  21  22
ENDBRANCH  18  21
ENDBRANCH   2  17
TORSDOF 4
ENDMDL
MODEL 4
REMARK VINA RESULT:      -9.3      3.881      8.017
REMARK  Name = 44205191
REMARK  4 active torsions:
REMARK  status: ('A' for Active; 'I' for Inactive)
REMARK    1  A    between atoms: C_2  and  N_17
REMARK    2  A    between atoms: C_3  and  N_8
REMARK    3  A    between atoms: C_18  and  C_21
REMARK    4  A    between atoms: C_21  and  O_22
REMARK                            x       y       z     vdW  Elec       q    Type
REMARK                         _______ _______ _______ _____ _____    ______ ____
ROOT
ATOM      1  F   UNL     1      32.339 -19.856 -21.127  0.00  0.00    -0.203 F 
ATOM      2  C   UNL     1      34.690 -21.592 -18.963  0.00  0.00    +0.059 C 
ATOM      3  C   UNL     1      34.714 -19.831 -21.128  0.00  0.00    +0.077 C 
ATOM      4  C   UNL     1      33.488 -21.153 -19.519  0.00  0.00    +0.046 C 
ATOM      5  C   UNL     1      35.903 -21.151 -19.490  0.00  0.00    +0.016 C 
ATOM      6  C   UNL     1      33.499 -20.274 -20.601  0.00  0.00    +0.155 C 
ATOM      7  C   UNL     1      35.915 -20.270 -20.572  0.00  0.00    +0.018 C 
ENDROOT
BRANCH   3   8
ATOM      8  N   UNL     1      34.728 -18.938 -22.225  0.00  0.00    -0.288 N 
ATOM      9  N   UNL     1      34.868 -17.157 -24.308  0.00  0.00    -0.199 NA
ATOM     10  N   UNL     1      34.639 -16.663 -23.059  0.00  0.00    -0.124 NA
ATOM     11  C   UNL     1      34.979 -19.488 -23.562  0.00  0.00    +0.111 C 
ATOM     12  C   UNL     1      34.413 -18.522 -24.608  0.00  0.00    +0.112 C 
ATOM     13  C   UNL     1      34.602 -17.564 -22.124  0.00  0.00    +0.202 C 
ATOM     14  C   UNL     1      34.523 -16.244 -25.394  0.00  0.00    +0.109 C 
ENDBRANCH   3   8
BRANCH   2  17
ATOM     15  O   UNL     1      35.282 -23.654 -16.021  0.00  0.00    -0.434 OA
ATOM     16  O   UNL     1      36.798 -22.187 -16.853  0.00  0.00    -0.226 OA
ATOM     17  N   UNL     1      34.677 -22.490 -17.858  0.00  0.00    -0.221 N 
ATOM     18  C   UNL     1      33.886 -23.920 -16.220  0.00  0.00    +0.220 C 
ATOM     19  C   UNL     1      33.604 -23.417 -17.619  0.00  0.00    +0.148 C 
ATOM     20  C   UNL     1      35.689 -22.698 -16.925  0.00  0.00    +0.409 C 
BRANCH  18  21
ATOM     21  C   UNL     1      33.089 -23.190 -15.147  0.00  0.00    +0.183 C 
BRANCH  21  22
ATOM     22  O   UNL     1      33.826 -23.219 -13.937  0.00  0.00    -0.378 OA
ATOM     23  H   UNL     1      33.309 -22.795 -13.234  0.00  0.00    +0.211 HD
ENDBRANCH  21  22
ENDBRANCH  18  21
ENDBRANCH   2  17
TORSDOF 4
ENDMDL
MODEL 5
REMARK VINA RESULT:      -9.2      8.011     10.145
REMARK  Name = 44205191
REMARK  4 active torsions:
REMARK  status: ('A' for Active; 'I' for Inactive)
REMARK    1  A    between atoms: C_2  and  N_17
REMARK    2  A    between atoms: C_3  and  N_8
REMARK    3  A    between atoms: C_18  and  C_21
REMARK    4  A    between atoms: C_21  and  O_22
REMARK                            x       y       z     vdW  Elec       q    Type
REMARK                         _______ _______ _______ _____ _____    ______ ____
ROOT
ATOM      1  F   UNL     1      33.598 -23.602 -17.224  0.00  0.00    -0.203 F 
ATOM      2  C   UNL     1      35.053 -24.246 -13.954  0.00  0.00    +0.059 C 
ATOM      3  C   UNL     1      32.544 -23.855 -15.111  0.00  0.00    +0.077 C 
ATOM      4  C   UNL     1      34.946 -24.016 -15.326  0.00  0.00    +0.046 C 
ATOM      5  C   UNL     1      33.906 -24.279 -13.161  0.00  0.00    +0.016 C 
ATOM      6  C   UNL     1      33.692 -23.820 -15.904  0.00  0.00    +0.155 C 
ATOM      7  C   UNL     1      32.652 -24.085 -13.740  0.00  0.00    +0.018 C 
ENDROOT
BRANCH   3   8
ATOM      8  N   UNL     1      31.271 -23.658 -15.696  0.00  0.00    -0.288 N 
ATOM      9  N   UNL     1      28.857 -23.283 -16.946  0.00  0.00    -0.199 NA
ATOM     10  N   UNL     1      29.793 -22.299 -17.056  0.00  0.00    -0.124 NA
ATOM     11  C   UNL     1      30.277 -24.729 -15.569  0.00  0.00    +0.111 C 
ATOM     12  C   UNL     1      28.878 -24.129 -15.745  0.00  0.00    +0.112 C 
ATOM     13  C   UNL     1      30.914 -22.555 -16.451  0.00  0.00    +0.202 C 
ATOM     14  C   UNL     1      27.495 -22.862 -17.262  0.00  0.00    +0.109 C 
ENDBRANCH   3   8
BRANCH   2  17
ATOM     15  O   UNL     1      37.977 -25.015 -11.926  0.00  0.00    -0.434 OA
ATOM     16  O   UNL     1      35.848 -25.434 -11.270  0.00  0.00    -0.226 OA
ATOM     17  N   UNL     1      36.333 -24.445 -13.364  0.00  0.00    -0.221 N 
ATOM     18  C   UNL     1      38.628 -24.658 -13.154  0.00  0.00    +0.220 C 
ATOM     19  C   UNL     1      37.551 -23.968 -13.962  0.00  0.00    +0.148 C 
ATOM     20  C   UNL     1      36.614 -25.011 -12.123  0.00  0.00    +0.409 C 
BRANCH  18  21
ATOM     21  C   UNL     1      39.157 -25.923 -13.815  0.00  0.00    +0.183 C 
BRANCH  21  22
ATOM     22  O   UNL     1      38.780 -25.913 -15.181  0.00  0.00    -0.378 OA
ATOM     23  H   UNL     1      39.416 -26.433 -15.696  0.00  0.00    +0.211 HD
ENDBRANCH  21  22
ENDBRANCH  18  21
ENDBRANCH   2  17
TORSDOF 4
ENDMDL
MODEL 6
REMARK VINA RESULT:      -9.2      7.196      9.987
REMARK  Name = 44205191
REMARK  4 active torsions:
REMARK  status: ('A' for Active; 'I' for Inactive)
REMARK    1  A    between atoms: C_2  and  N_17
REMARK    2  A    between atoms: C_3  and  N_8
REMARK    3  A    between atoms: C_18  and  C_21
REMARK    4  A    between atoms: C_21  and  O_22
REMARK                            x       y       z     vdW  Elec       q    Type
REMARK                         _______ _______ _______ _____ _____    ______ ____
ROOT
ATOM      1  F   UNL     1      31.950 -13.437 -22.274  0.00  0.00    -0.203 F 
ATOM      2  C   UNL     1      32.929 -10.131 -23.426  0.00  0.00    +0.059 C 
ATOM      3  C   UNL     1      33.482 -12.810 -23.977  0.00  0.00    +0.077 C 
ATOM      4  C   UNL     1      32.292 -11.138 -22.700  0.00  0.00    +0.046 C 
ATOM      5  C   UNL     1      33.843 -10.463 -24.426  0.00  0.00    +0.016 C 
ATOM      6  C   UNL     1      32.569 -12.477 -22.975  0.00  0.00    +0.155 C 
ATOM      7  C   UNL     1      34.118 -11.802 -24.701  0.00  0.00    +0.018 C 
ENDROOT
BRANCH   3   8
ATOM      8  N   UNL     1      33.764 -14.167 -24.258  0.00  0.00    -0.288 N 
ATOM      9  N   UNL     1      34.383 -16.762 -24.904  0.00  0.00    -0.199 NA
ATOM     10  N   UNL     1      33.591 -16.060 -25.764  0.00  0.00    -0.124 NA
ATOM     11  C   UNL     1      34.619 -14.905 -23.323  0.00  0.00    +0.111 C 
ATOM     12  C   UNL     1      34.345 -16.405 -23.479  0.00  0.00    +0.112 C 
ATOM     13  C   UNL     1      33.355 -14.836 -25.398  0.00  0.00    +0.202 C 
ATOM     14  C   UNL     1      34.333 -18.210 -25.079  0.00  0.00    +0.109 C 
ENDBRANCH   3   8
BRANCH   2  17
ATOM     15  O   UNL     1      32.878  -6.571 -22.663  0.00  0.00    -0.434 OA
ATOM     16  O   UNL     1      34.781  -7.791 -22.836  0.00  0.00    -0.226 OA
ATOM     17  N   UNL     1      32.646  -8.764 -23.145  0.00  0.00    -0.221 N 
ATOM     18  C   UNL     1      31.495  -6.762 -22.994  0.00  0.00    +0.220 C 
ATOM     19  C   UNL     1      31.309  -8.263 -22.974  0.00  0.00    +0.148 C 
ATOM     20  C   UNL     1      33.561  -7.744 -22.893  0.00  0.00    +0.409 C 
BRANCH  18  21
ATOM     21  C   UNL     1      31.227  -6.142 -24.358  0.00  0.00    +0.183 C 
BRANCH  21  22
ATOM     22  O   UNL     1      30.626  -4.872 -24.170  0.00  0.00    -0.378 OA
ATOM     23  H   UNL     1      31.197  -4.325 -23.608  0.00  0.00    +0.211 HD
ENDBRANCH  21  22
ENDBRANCH  18  21
ENDBRANCH   2  17
TORSDOF 4
ENDMDL
MODEL 7
REMARK VINA RESULT:      -8.9      7.349      9.663
REMARK  Name = 44205191
REMARK  4 active torsions:
REMARK  status: ('A' for Active; 'I' for Inactive)
REMARK    1  A    between atoms: C_2  and  N_17
REMARK    2  A    between atoms: C_3  and  N_8
REMARK    3  A    between atoms: C_18  and  C_21
REMARK    4  A    between atoms: C_21  and  O_22
REMARK                            x       y       z     vdW  Elec       q    Type
REMARK                         _______ _______ _______ _____ _____    ______ ____
ROOT
ATOM      1  F   UNL     1      31.404 -24.159 -13.368  0.00  0.00    -0.203 F 
ATOM      2  C   UNL     1      34.487 -24.123 -15.295  0.00  0.00    +0.059 C 
ATOM      3  C   UNL     1      31.807 -23.401 -15.583  0.00  0.00    +0.077 C 
ATOM      4  C   UNL     1      33.594 -24.324 -14.243  0.00  0.00    +0.046 C 
ATOM      5  C   UNL     1      34.041 -23.562 -16.492  0.00  0.00    +0.016 C 
ATOM      6  C   UNL     1      32.255 -23.963 -14.386  0.00  0.00    +0.155 C 
ATOM      7  C   UNL     1      32.701 -23.200 -16.634  0.00  0.00    +0.018 C 
ENDROOT
BRANCH   3   8
ATOM      8  N   UNL     1      30.449 -23.034 -15.731  0.00  0.00    -0.288 N 
ATOM      9  N   UNL     1      27.853 -22.199 -16.040  0.00  0.00    -0.199 NA
ATOM     10  N   UNL     1      28.541 -21.756 -14.950  0.00  0.00    -0.124 NA
ATOM     11  C   UNL     1      29.725 -23.518 -16.911  0.00  0.00    +0.111 C 
ATOM     12  C   UNL     1      28.223 -23.502 -16.611  0.00  0.00    +0.112 C 
ATOM     13  C   UNL     1      29.767 -22.181 -14.881  0.00  0.00    +0.202 C 
ATOM     14  C   UNL     1      26.402 -22.071 -15.935  0.00  0.00    +0.109 C 
ENDBRANCH   3   8
BRANCH   2  17
ATOM     15  O   UNL     1      38.106 -24.405 -15.009  0.00  0.00    -0.434 OA
ATOM     16  O   UNL     1      37.024 -22.446 -15.374  0.00  0.00    -0.226 OA
ATOM     17  N   UNL     1      35.855 -24.491 -15.148  0.00  0.00    -0.221 N 
ATOM     18  C   UNL     1      37.733 -25.732 -14.613  0.00  0.00    +0.220 C 
ATOM     19  C   UNL     1      36.287 -25.859 -15.040  0.00  0.00    +0.148 C 
ATOM     20  C   UNL     1      36.966 -23.653 -15.188  0.00  0.00    +0.409 C 
BRANCH  18  21
ATOM     21  C   UNL     1      37.930 -25.870 -13.110  0.00  0.00    +0.183 C 
BRANCH  21  22
ATOM     22  O   UNL     1      36.852 -26.621 -12.578  0.00  0.00    -0.378 OA
ATOM     23  H   UNL     1      36.834 -26.522 -11.614  0.00  0.00    +0.211 HD
ENDBRANCH  21  22
ENDBRANCH  18  21
ENDBRANCH   2  17
TORSDOF 4
ENDMDL
MODEL 8
REMARK VINA RESULT:      -8.9      5.393      9.198
REMARK  Name = 44205191
REMARK  4 active torsions:
REMARK  status: ('A' for Active; 'I' for Inactive)
REMARK    1  A    between atoms: C_2  and  N_17
REMARK    2  A    between atoms: C_3  and  N_8
REMARK    3  A    between atoms: C_18  and  C_21
REMARK    4  A    between atoms: C_21  and  O_22
REMARK                            x       y       z     vdW  Elec       q    Type
REMARK                         _______ _______ _______ _____ _____    ______ ____
ROOT
ATOM      1  F   UNL     1      33.265 -22.800 -17.955  0.00  0.00    -0.203 F 
ATOM      2  C   UNL     1      36.016 -23.384 -15.650  0.00  0.00    +0.059 C 
ATOM      3  C   UNL     1      35.492 -21.978 -18.002  0.00  0.00    +0.077 C 
ATOM      4  C   UNL     1      34.748 -23.442 -16.230  0.00  0.00    +0.046 C 
ATOM      5  C   UNL     1      37.022 -22.624 -16.246  0.00  0.00    +0.016 C 
ATOM      6  C   UNL     1      34.487 -22.740 -17.406  0.00  0.00    +0.155 C 
ATOM      7  C   UNL     1      36.759 -21.921 -17.422  0.00  0.00    +0.018 C 
ENDROOT
BRANCH   3   8
ATOM      8  N   UNL     1      35.230 -21.264 -19.195  0.00  0.00    -0.288 N 
ATOM      9  N   UNL     1      34.790 -19.967 -21.574  0.00  0.00    -0.199 NA
ATOM     10  N   UNL     1      36.057 -19.971 -21.072  0.00  0.00    -0.124 NA
ATOM     11  C   UNL     1      33.860 -21.273 -19.721  0.00  0.00    +0.111 C 
ATOM     12  C   UNL     1      33.669 -20.052 -20.626  0.00  0.00    +0.112 C 
ATOM     13  C   UNL     1      36.189 -20.617 -19.953  0.00  0.00    +0.202 C 
ATOM     14  C   UNL     1      34.540 -18.943 -22.583  0.00  0.00    +0.109 C 
ENDBRANCH   3   8
BRANCH   2  17
ATOM     15  O   UNL     1      36.774 -25.751 -12.989  0.00  0.00    -0.434 OA
ATOM     16  O   UNL     1      36.686 -26.314 -15.183  0.00  0.00    -0.226 OA
ATOM     17  N   UNL     1      36.282 -24.102 -14.449  0.00  0.00    -0.221 N 
ATOM     18  C   UNL     1      36.810 -24.530 -12.237  0.00  0.00    +0.220 C 
ATOM     19  C   UNL     1      36.154 -23.512 -13.144  0.00  0.00    +0.148 C 
ATOM     20  C   UNL     1      36.594 -25.453 -14.321  0.00  0.00    +0.409 C 
BRANCH  18  21
ATOM     21  C   UNL     1      38.259 -24.197 -11.910  0.00  0.00    +0.183 C 
BRANCH  21  22
ATOM     22  O   UNL     1      38.359 -22.807 -11.656  0.00  0.00    -0.378 OA
ATOM     23  H   UNL     1      38.099 -22.627 -10.740  0.00  0.00    +0.211 HD
ENDBRANCH  21  22
ENDBRANCH  18  21
ENDBRANCH   2  17
TORSDOF 4
ENDMDL
MODEL 9
REMARK VINA RESULT:      -8.8      7.010      8.451
REMARK  Name = 44205191
REMARK  4 active torsions:
REMARK  status: ('A' for Active; 'I' for Inactive)
REMARK    1  A    between atoms: C_2  and  N_17
REMARK    2  A    between atoms: C_3  and  N_8
REMARK    3  A    between atoms: C_18  and  C_21
REMARK    4  A    between atoms: C_21  and  O_22
REMARK                            x       y       z     vdW  Elec       q    Type
REMARK                         _______ _______ _______ _____ _____    ______ ____
ROOT
ATOM      1  F   UNL     1      34.375 -24.693 -12.590  0.00  0.00    -0.203 F 
ATOM      2  C   UNL     1      32.456 -23.507 -15.441  0.00  0.00    +0.059 C 
ATOM      3  C   UNL     1      35.066 -24.275 -14.823  0.00  0.00    +0.077 C 
ATOM      4  C   UNL     1      32.774 -23.917 -14.146  0.00  0.00    +0.046 C 
ATOM      5  C   UNL     1      33.442 -23.481 -16.427  0.00  0.00    +0.016 C 
ATOM      6  C   UNL     1      34.079 -24.300 -13.837  0.00  0.00    +0.155 C 
ATOM      7  C   UNL     1      34.747 -23.865 -16.117  0.00  0.00    +0.018 C 
ENDROOT
BRANCH   3   8
ATOM      8  N   UNL     1      36.391 -24.663 -14.512  0.00  0.00    -0.288 N 
ATOM      9  N   UNL     1      38.934 -25.394 -13.784  0.00  0.00    -0.199 NA
ATOM     10  N   UNL     1      38.581 -24.085 -13.646  0.00  0.00    -0.124 NA
ATOM     11  C   UNL     1      36.752 -26.077 -14.664  0.00  0.00    +0.111 C 
ATOM     12  C   UNL     1      38.271 -26.185 -14.831  0.00  0.00    +0.112 C 
ATOM     13  C   UNL     1      37.358 -23.820 -13.996  0.00  0.00    +0.202 C 
ATOM     14  C   UNL     1      40.373 -25.638 -13.782  0.00  0.00    +0.109 C 
ENDBRANCH   3   8
BRANCH   2  17
ATOM     15  O   UNL     1      29.325 -22.243 -16.805  0.00  0.00    -0.434 OA
ATOM     16  O   UNL     1      31.333 -21.997 -17.830  0.00  0.00    -0.226 OA
ATOM     17  N   UNL     1      31.123 -23.116 -15.756  0.00  0.00    -0.221 N 
ATOM     18  C   UNL     1      28.812 -23.021 -15.715  0.00  0.00    +0.220 C 
ATOM     19  C   UNL     1      30.022 -23.301 -14.850  0.00  0.00    +0.148 C 
ATOM     20  C   UNL     1      30.688 -22.429 -16.886  0.00  0.00    +0.409 C 
BRANCH  18  21
ATOM     21  C   UNL     1      28.168 -24.283 -16.272  0.00  0.00    +0.183 C 
BRANCH  21  22
ATOM     22  O   UNL     1      27.666 -24.002 -17.568  0.00  0.00    -0.378 OA
ATOM     23  H   UNL     1      27.082 -24.722 -17.851  0.00  0.00    +0.211 HD
ENDBRANCH  21  22
ENDBRANCH  18  21
ENDBRANCH   2  17
TORSDOF 4
ENDMDL
