MODEL 1
REMARK VINA RESULT:      -9.5      0.000      0.000
REMARK  Name = 24785538
REMARK  3 active torsions:
REMARK  status: ('A' for Active; 'I' for Inactive)
REMARK    1  A    between atoms: C_8  and  C_26
REMARK    2  A    between atoms: C_12  and  C_35
REMARK    3  A    between atoms: N_25  and  C_30
REMARK                            x       y       z     vdW  Elec       q    Type
REMARK                         _______ _______ _______ _____ _____    ______ ____
ROOT
ATOM      1  N   UNL     1      32.447 -12.819 -21.946  0.00  0.00    -0.237 N 
ATOM      2  N   UNL     1      34.839 -17.862 -20.881  0.00  0.00    -0.239 N 
ATOM      3  N   UNL     1      33.325 -14.687 -23.042  0.00  0.00    -0.320 NA
ATOM      4  N   UNL     1      32.432 -12.814 -24.242  0.00  0.00    -0.094 NA
ATOM      5  N   UNL     1      34.358 -16.855 -21.629  0.00  0.00    -0.166 NA
ATOM      6  N   UNL     1      34.222 -16.596 -24.042  0.00  0.00    -0.270 N 
ATOM      7  N   UNL     1      32.747 -13.490 -25.369  0.00  0.00    -0.175 N 
ATOM      8  C   UNL     1      31.827 -11.495 -21.801  0.00  0.00    +0.136 C 
ATOM      9  C   UNL     1      31.925 -11.209 -20.291  0.00  0.00    +0.030 C 
ATOM     10  C   UNL     1      31.922 -12.595 -19.664  0.00  0.00    +0.024 C 
ATOM     11  C   UNL     1      32.737 -13.420 -20.649  0.00  0.00    +0.103 C 
ATOM     12  C   UNL     1      35.330 -18.905 -21.610  0.00  0.00    +0.045 C 
ATOM     13  C   UNL     1      30.380 -11.518 -22.288  0.00  0.00    +0.030 C 
ATOM     14  C   UNL     1      32.730 -13.430 -23.117  0.00  0.00    +0.165 C 
ATOM     15  C   UNL     1      35.157 -18.556 -22.927  0.00  0.00    +0.048 C 
ATOM     16  C   UNL     1      34.555 -17.284 -22.879  0.00  0.00    +0.152 C 
ATOM     17  C   UNL     1      33.635 -15.355 -24.124  0.00  0.00    +0.213 C 
ATOM     18  C   UNL     1      33.332 -14.726 -25.381  0.00  0.00    +0.120 C 
ATOM     19  C   UNL     1      33.506 -15.108 -26.693  0.00  0.00    +0.022 C 
ATOM     20  C   UNL     1      32.541 -13.070 -26.657  0.00  0.00    +0.090 C 
ATOM     21  C   UNL     1      33.004 -14.056 -27.502  0.00  0.00    +0.020 C 
ATOM     22  H   UNL     1      34.838 -17.849 -19.897  0.00  0.00    +0.174 HD
ATOM     23  H   UNL     1      34.427 -17.043 -24.894  0.00  0.00    +0.156 HD
ENDROOT
BRANCH   8  26
ATOM     24  O   UNL     1      33.798 -10.716 -22.875  0.00  0.00    -0.273 OA
ATOM     25  N   UNL     1      31.884  -9.350 -22.842  0.00  0.00    -0.281 N 
ATOM     26  C   UNL     1      32.633 -10.486 -22.570  0.00  0.00    +0.243 C 
ATOM     27  H   UNL     1      30.957  -9.348 -22.509  0.00  0.00    +0.155 HD
BRANCH  25  30
ATOM     28  F   UNL     1      33.374  -4.829 -25.568  0.00  0.00    -0.183 F 
ATOM     29  N   UNL     1      31.703  -6.190 -24.760  0.00  0.00    -0.215 NA
ATOM     30  C   UNL     1      32.299  -8.191 -23.541  0.00  0.00    +0.070 C 
ATOM     31  C   UNL     1      33.648  -7.898 -23.706  0.00  0.00    +0.020 C 
ATOM     32  C   UNL     1      31.374  -7.313 -24.083  0.00  0.00    +0.116 C 
ATOM     33  C   UNL     1      34.026  -6.753 -24.397  0.00  0.00    +0.051 C 
ATOM     34  C   UNL     1      33.024  -5.939 -24.900  0.00  0.00    +0.222 C 
ENDBRANCH  25  30
ENDBRANCH   8  26
BRANCH  12  35
ATOM     35  C   UNL     1      35.941 -20.189 -21.065  0.00  0.00    +0.037 C 
ATOM     36  C   UNL     1      35.320 -20.826 -19.856  0.00  0.00    +0.006 C 
ATOM     37  C   UNL     1      36.653 -20.144 -19.744  0.00  0.00    +0.006 C 
ENDBRANCH  12  35
TORSDOF 3
ENDMDL
MODEL 2
REMARK VINA RESULT:      -7.8      3.282      9.313
REMARK  Name = 24785538
REMARK  3 active torsions:
REMARK  status: ('A' for Active; 'I' for Inactive)
REMARK    1  A    between atoms: C_8  and  C_26
REMARK    2  A    between atoms: C_12  and  C_35
REMARK    3  A    between atoms: N_25  and  C_30
REMARK                            x       y       z     vdW  Elec       q    Type
REMARK                         _______ _______ _______ _____ _____    ______ ____
ROOT
ATOM      1  N   UNL     1      33.213 -13.657 -25.301  0.00  0.00    -0.237 N 
ATOM      2  N   UNL     1      32.628  -8.204 -23.814  0.00  0.00    -0.239 N 
ATOM      3  N   UNL     1      32.733 -12.315 -23.449  0.00  0.00    -0.320 NA
ATOM      4  N   UNL     1      32.810 -14.705 -23.299  0.00  0.00    -0.094 NA
ATOM      5  N   UNL     1      32.649  -9.536 -23.643  0.00  0.00    -0.166 NA
ATOM      6  N   UNL     1      32.264 -10.889 -21.662  0.00  0.00    -0.270 N 
ATOM      7  N   UNL     1      32.508 -14.551 -21.991  0.00  0.00    -0.175 N 
ATOM      8  C   UNL     1      33.447 -14.892 -26.060  0.00  0.00    +0.136 C 
ATOM      9  C   UNL     1      33.942 -14.392 -27.430  0.00  0.00    +0.030 C 
ATOM     10  C   UNL     1      33.296 -13.022 -27.565  0.00  0.00    +0.024 C 
ATOM     11  C   UNL     1      33.349 -12.475 -26.146  0.00  0.00    +0.103 C 
ATOM     12  C   UNL     1      32.340  -7.507 -22.676  0.00  0.00    +0.045 C 
ATOM     13  C   UNL     1      32.162 -15.707 -26.177  0.00  0.00    +0.030 C 
ATOM     14  C   UNL     1      32.913 -13.587 -23.986  0.00  0.00    +0.165 C 
ATOM     15  C   UNL     1      32.161  -8.451 -21.695  0.00  0.00    +0.048 C 
ATOM     16  C   UNL     1      32.364  -9.681 -22.347  0.00  0.00    +0.152 C 
ATOM     17  C   UNL     1      32.440 -12.148 -22.184  0.00  0.00    +0.213 C 
ATOM     18  C   UNL     1      32.316 -13.339 -21.388  0.00  0.00    +0.120 C 
ATOM     19  C   UNL     1      32.026 -13.560 -20.059  0.00  0.00    +0.022 C 
ATOM     20  C   UNL     1      32.346 -15.551 -21.067  0.00  0.00    +0.090 C 
ATOM     21  C   UNL     1      32.046 -14.964 -19.857  0.00  0.00    +0.020 C 
ATOM     22  H   UNL     1      32.802  -7.769 -24.680  0.00  0.00    +0.174 HD
ATOM     23  H   UNL     1      32.044 -10.837 -20.704  0.00  0.00    +0.156 HD
ENDROOT
BRANCH   8  26
ATOM     24  O   UNL     1      35.698 -15.576 -25.722  0.00  0.00    -0.273 OA
ATOM     25  N   UNL     1      33.995 -16.510 -24.395  0.00  0.00    -0.281 N 
ATOM     26  C   UNL     1      34.525 -15.691 -25.382  0.00  0.00    +0.243 C 
ATOM     27  H   UNL     1      33.019 -16.466 -24.269  0.00  0.00    +0.155 HD
BRANCH  25  30
ATOM     28  F   UNL     1      36.736 -19.873 -21.039  0.00  0.00    -0.183 F 
ATOM     29  N   UNL     1      36.026 -17.747 -21.560  0.00  0.00    -0.215 NA
ATOM     30  C   UNL     1      34.695 -17.402 -23.548  0.00  0.00    +0.070 C 
ATOM     31  C   UNL     1      34.755 -18.762 -23.832  0.00  0.00    +0.020 C 
ATOM     32  C   UNL     1      35.342 -16.949 -22.410  0.00  0.00    +0.116 C 
ATOM     33  C   UNL     1      35.450 -19.615 -22.982  0.00  0.00    +0.051 C 
ATOM     34  C   UNL     1      36.062 -19.062 -21.869  0.00  0.00    +0.222 C 
ENDBRANCH  25  30
ENDBRANCH   8  26
BRANCH  12  35
ATOM     35  C   UNL     1      32.239  -5.994 -22.537  0.00  0.00    +0.037 C 
ATOM     36  C   UNL     1      30.950  -5.399 -22.048  0.00  0.00    +0.006 C 
ATOM     37  C   UNL     1      31.351  -5.241 -23.485  0.00  0.00    +0.006 C 
ENDBRANCH  12  35
TORSDOF 3
ENDMDL
MODEL 3
REMARK VINA RESULT:      -7.6      3.067      9.843
REMARK  Name = 24785538
REMARK  3 active torsions:
REMARK  status: ('A' for Active; 'I' for Inactive)
REMARK    1  A    between atoms: C_8  and  C_26
REMARK    2  A    between atoms: C_12  and  C_35
REMARK    3  A    between atoms: N_25  and  C_30
REMARK                            x       y       z     vdW  Elec       q    Type
REMARK                         _______ _______ _______ _____ _____    ______ ____
ROOT
ATOM      1  N   UNL     1      33.037 -12.160 -24.503  0.00  0.00    -0.237 N 
ATOM      2  N   UNL     1      32.796  -6.503 -24.984  0.00  0.00    -0.239 N 
ATOM      3  N   UNL     1      32.510 -10.247 -23.268  0.00  0.00    -0.320 NA
ATOM      4  N   UNL     1      32.364 -12.447 -22.327  0.00  0.00    -0.094 NA
ATOM      5  N   UNL     1      32.686  -7.699 -24.380  0.00  0.00    -0.166 NA
ATOM      6  N   UNL     1      32.006  -8.279 -22.120  0.00  0.00    -0.270 N 
ATOM      7  N   UNL     1      31.959 -11.844 -21.187  0.00  0.00    -0.175 N 
ATOM      8  C   UNL     1      33.230 -13.590 -24.778  0.00  0.00    +0.136 C 
ATOM      9  C   UNL     1      33.889 -13.610 -26.169  0.00  0.00    +0.030 C 
ATOM     10  C   UNL     1      33.380 -12.335 -26.824  0.00  0.00    +0.024 C 
ATOM     11  C   UNL     1      33.351 -11.343 -25.670  0.00  0.00    +0.103 C 
ATOM     12  C   UNL     1      32.468  -5.449 -24.182  0.00  0.00    +0.045 C 
ATOM     13  C   UNL     1      31.895 -14.329 -24.765  0.00  0.00    +0.030 C 
ATOM     14  C   UNL     1      32.626 -11.634 -23.329  0.00  0.00    +0.165 C 
ATOM     15  C   UNL     1      32.119  -5.994 -22.971  0.00  0.00    +0.048 C 
ATOM     16  C   UNL     1      32.272  -7.381 -23.150  0.00  0.00    +0.152 C 
ATOM     17  C   UNL     1      32.118  -9.648 -22.172  0.00  0.00    +0.213 C 
ATOM     18  C   UNL     1      31.819 -10.491 -21.046  0.00  0.00    +0.120 C 
ATOM     19  C   UNL     1      31.392 -10.233 -19.762  0.00  0.00    +0.022 C 
ATOM     20  C   UNL     1      31.627 -12.462 -20.010  0.00  0.00    +0.090 C 
ATOM     21  C   UNL     1      31.271 -11.485 -19.105  0.00  0.00    +0.020 C 
ATOM     22  H   UNL     1      33.086  -6.397 -25.918  0.00  0.00    +0.174 HD
ATOM     23  H   UNL     1      31.705  -7.894 -21.266  0.00  0.00    +0.156 HD
ENDROOT
BRANCH   8  26
ATOM     24  O   UNL     1      34.947 -13.445 -23.141  0.00  0.00    -0.273 OA
ATOM     25  N   UNL     1      34.008 -15.541 -23.647  0.00  0.00    -0.281 N 
ATOM     26  C   UNL     1      34.169 -14.166 -23.755  0.00  0.00    +0.243 C 
ATOM     27  H   UNL     1      33.327 -15.948 -24.231  0.00  0.00    +0.155 HD
BRANCH  25  30
ATOM     28  F   UNL     1      36.688 -18.907 -20.245  0.00  0.00    -0.183 F 
ATOM     29  N   UNL     1      35.338 -17.069 -20.550  0.00  0.00    -0.215 NA
ATOM     30  C   UNL     1      34.710 -16.426 -22.795  0.00  0.00    +0.070 C 
ATOM     31  C   UNL     1      35.443 -17.489 -23.311  0.00  0.00    +0.020 C 
ATOM     32  C   UNL     1      34.690 -16.261 -21.419  0.00  0.00    +0.116 C 
ATOM     33  C   UNL     1      36.122 -18.343 -22.449  0.00  0.00    +0.051 C 
ATOM     34  C   UNL     1      36.038 -18.092 -21.089  0.00  0.00    +0.222 C 
ENDBRANCH  25  30
ENDBRANCH   8  26
BRANCH  12  35
ATOM     35  C   UNL     1      32.487  -3.975 -24.564  0.00  0.00    +0.037 C 
ATOM     36  C   UNL     1      31.587  -3.027 -23.826  0.00  0.00    +0.006 C 
ATOM     37  C   UNL     1      31.284  -3.393 -25.250  0.00  0.00    +0.006 C 
ENDBRANCH  12  35
TORSDOF 3
ENDMDL
