MODEL 1
REMARK VINA RESULT:      -8.0      0.000      0.000
REMARK  Name = 5289326
REMARK  4 active torsions:
REMARK  status: ('A' for Active; 'I' for Inactive)
REMARK    1  A    between atoms: N_1  and  C_4
REMARK    2  A    between atoms: N_1  and  C_11
REMARK    3  A    between atoms: C_11  and  C_12
REMARK    4  A    between atoms: C_12  and  C_13
REMARK                            x       y       z     vdW  Elec       q    Type
REMARK                         _______ _______ _______ _____ _____    ______ ____
ROOT
ATOM      1  N   UNL     1      35.430 -18.542 -22.290  0.00  0.00    +0.387 N 
ATOM      2  C   UNL     1      34.950 -19.195 -23.558  0.00  0.00    -0.101 C 
ATOM      3  H   UNL     1      36.447 -18.630 -22.273  0.00  0.00    -0.080 HD
ENDROOT
BRANCH   1   4
ATOM      4  C   UNL     1      34.935 -19.237 -21.073  0.00  0.00    -0.053 C 
ATOM      5  C   UNL     1      35.826 -20.440 -20.786  0.00  0.00    -0.016 C 
ATOM      6  C   UNL     1      33.482 -19.657 -21.298  0.00  0.00    +0.005 C 
ATOM      7  C   UNL     1      35.339 -21.190 -19.543  0.00  0.00    +0.020 C 
ATOM      8  C   UNL     1      33.839 -21.359 -19.486  0.00  0.00    -0.048 C 
ATOM      9  C   UNL     1      33.013 -20.672 -20.295  0.00  0.00    -0.037 C 
ATOM     10  C   UNL     1      33.324 -22.337 -18.472  0.00  0.00    +0.026 C 
ENDBRANCH   1   4
BRANCH   1  11
ATOM     11  C   UNL     1      35.117 -17.068 -22.273  0.00  0.00    -0.073 C 
BRANCH  11  12
ATOM     12  C   UNL     1      34.976 -16.578 -20.837  0.00  0.00    +0.003 C 
BRANCH  12  13
ATOM     13  C   UNL     1      34.351 -15.213 -20.749  0.00  0.00    -0.037 C 
ATOM     14  C   UNL     1      33.045 -14.907 -20.633  0.00  0.00    -0.048 C 
ATOM     15  C   UNL     1      32.483 -13.516 -20.549  0.00  0.00    +0.026 C 
ATOM     16  C   UNL     1      32.009 -15.999 -20.563  0.00  0.00    +0.026 C 
ENDBRANCH  12  13
ENDBRANCH  11  12
ENDBRANCH   1  11
TORSDOF 4
ENDMDL
MODEL 2
REMARK VINA RESULT:      -7.9      1.173      1.914
REMARK  Name = 5289326
REMARK  4 active torsions:
REMARK  status: ('A' for Active; 'I' for Inactive)
REMARK    1  A    between atoms: N_1  and  C_4
REMARK    2  A    between atoms: N_1  and  C_11
REMARK    3  A    between atoms: C_11  and  C_12
REMARK    4  A    between atoms: C_12  and  C_13
REMARK                            x       y       z     vdW  Elec       q    Type
REMARK                         _______ _______ _______ _____ _____    ______ ____
ROOT
ATOM      1  N   UNL     1      35.494 -18.560 -22.132  0.00  0.00    +0.387 N 
ATOM      2  C   UNL     1      35.076 -18.424 -23.572  0.00  0.00    -0.101 C 
ATOM      3  H   UNL     1      36.510 -18.657 -22.123  0.00  0.00    -0.080 HD
ENDROOT
BRANCH   1   4
ATOM      4  C   UNL     1      34.955 -19.793 -21.500  0.00  0.00    -0.053 C 
ATOM      5  C   UNL     1      33.603 -19.482 -20.869  0.00  0.00    -0.016 C 
ATOM      6  C   UNL     1      35.957 -20.296 -20.460  0.00  0.00    +0.005 C 
ATOM      7  C   UNL     1      33.020 -20.729 -20.197  0.00  0.00    +0.020 C 
ATOM      8  C   UNL     1      34.034 -21.520 -19.406  0.00  0.00    -0.048 C 
ATOM      9  C   UNL     1      35.356 -21.304 -19.523  0.00  0.00    -0.037 C 
ATOM     10  C   UNL     1      33.480 -22.564 -18.482  0.00  0.00    +0.026 C 
ENDBRANCH   1   4
BRANCH   1  11
ATOM     11  C   UNL     1      35.164 -17.321 -21.341  0.00  0.00    -0.073 C 
BRANCH  11  12
ATOM     12  C   UNL     1      34.854 -16.164 -22.283  0.00  0.00    +0.003 C 
BRANCH  12  13
ATOM     13  C   UNL     1      33.753 -15.278 -21.769  0.00  0.00    -0.037 C 
ATOM     14  C   UNL     1      33.299 -14.128 -22.303  0.00  0.00    -0.048 C 
ATOM     15  C   UNL     1      32.190 -13.287 -21.737  0.00  0.00    +0.026 C 
ATOM     16  C   UNL     1      33.898 -13.589 -23.575  0.00  0.00    +0.026 C 
ENDBRANCH  12  13
ENDBRANCH  11  12
ENDBRANCH   1  11
TORSDOF 4
ENDMDL
MODEL 3
REMARK VINA RESULT:      -7.8      1.621      5.971
REMARK  Name = 5289326
REMARK  4 active torsions:
REMARK  status: ('A' for Active; 'I' for Inactive)
REMARK    1  A    between atoms: N_1  and  C_4
REMARK    2  A    between atoms: N_1  and  C_11
REMARK    3  A    between atoms: C_11  and  C_12
REMARK    4  A    between atoms: C_12  and  C_13
REMARK                            x       y       z     vdW  Elec       q    Type
REMARK                         _______ _______ _______ _____ _____    ______ ____
ROOT
ATOM      1  N   UNL     1      34.329 -16.631 -23.274  0.00  0.00    +0.387 N 
ATOM      2  C   UNL     1      34.527 -16.451 -24.756  0.00  0.00    -0.101 C 
ATOM      3  H   UNL     1      33.523 -17.246 -23.152  0.00  0.00    -0.080 HD
ENDROOT
BRANCH   1   4
ATOM      4  C   UNL     1      33.984 -15.356 -22.591  0.00  0.00    -0.053 C 
ATOM      5  C   UNL     1      33.193 -15.665 -21.325  0.00  0.00    -0.016 C 
ATOM      6  C   UNL     1      33.182 -14.479 -23.553  0.00  0.00    +0.005 C 
ATOM      7  C   UNL     1      32.809 -14.373 -20.598  0.00  0.00    +0.020 C 
ATOM      8  C   UNL     1      32.320 -13.281 -21.521  0.00  0.00    -0.048 C 
ATOM      9  C   UNL     1      32.482 -13.349 -22.854  0.00  0.00    -0.037 C 
ATOM     10  C   UNL     1      31.645 -12.115 -20.862  0.00  0.00    +0.026 C 
ENDBRANCH   1   4
BRANCH   1  11
ATOM     11  C   UNL     1      35.508 -17.320 -22.637  0.00  0.00    -0.073 C 
BRANCH  11  12
ATOM     12  C   UNL     1      35.336 -18.832 -22.716  0.00  0.00    +0.003 C 
BRANCH  12  13
ATOM     13  C   UNL     1      34.197 -19.331 -21.871  0.00  0.00    -0.037 C 
ATOM     14  C   UNL     1      34.260 -20.112 -20.776  0.00  0.00    -0.048 C 
ATOM     15  C   UNL     1      33.078 -20.576 -19.973  0.00  0.00    +0.026 C 
ATOM     16  C   UNL     1      35.590 -20.584 -20.250  0.00  0.00    +0.026 C 
ENDBRANCH  12  13
ENDBRANCH  11  12
ENDBRANCH   1  11
TORSDOF 4
ENDMDL
MODEL 4
REMARK VINA RESULT:      -7.8      2.261      2.929
REMARK  Name = 5289326
REMARK  4 active torsions:
REMARK  status: ('A' for Active; 'I' for Inactive)
REMARK    1  A    between atoms: N_1  and  C_4
REMARK    2  A    between atoms: N_1  and  C_11
REMARK    3  A    between atoms: C_11  and  C_12
REMARK    4  A    between atoms: C_12  and  C_13
REMARK                            x       y       z     vdW  Elec       q    Type
REMARK                         _______ _______ _______ _____ _____    ______ ____
ROOT
ATOM      1  N   UNL     1      35.029 -18.693 -21.746  0.00  0.00    +0.387 N 
ATOM      2  C   UNL     1      36.508 -18.436 -21.860  0.00  0.00    -0.101 C 
ATOM      3  H   UNL     1      34.580 -17.791 -21.579  0.00  0.00    -0.080 HD
ENDROOT
BRANCH   1   4
ATOM      4  C   UNL     1      34.692 -19.544 -20.575  0.00  0.00    -0.053 C 
ATOM      5  C   UNL     1      35.706 -20.677 -20.471  0.00  0.00    -0.016 C 
ATOM      6  C   UNL     1      33.269 -20.079 -20.743  0.00  0.00    +0.005 C 
ATOM      7  C   UNL     1      35.385 -21.584 -19.280  0.00  0.00    +0.020 C 
ATOM      8  C   UNL     1      33.914 -21.901 -19.140  0.00  0.00    -0.048 C 
ATOM      9  C   UNL     1      32.971 -21.224 -19.818  0.00  0.00    -0.037 C 
ATOM     10  C   UNL     1      33.568 -23.015 -18.197  0.00  0.00    +0.026 C 
ENDBRANCH   1   4
BRANCH   1  11
ATOM     11  C   UNL     1      34.460 -19.236 -23.030  0.00  0.00    -0.073 C 
BRANCH  11  12
ATOM     12  C   UNL     1      35.240 -18.691 -24.221  0.00  0.00    +0.003 C 
BRANCH  12  13
ATOM     13  C   UNL     1      34.424 -17.757 -25.071  0.00  0.00    -0.037 C 
ATOM     14  C   UNL     1      34.225 -16.437 -24.893  0.00  0.00    -0.048 C 
ATOM     15  C   UNL     1      33.395 -15.557 -25.784  0.00  0.00    +0.026 C 
ATOM     16  C   UNL     1      34.868 -15.718 -23.736  0.00  0.00    +0.026 C 
ENDBRANCH  12  13
ENDBRANCH  11  12
ENDBRANCH   1  11
TORSDOF 4
ENDMDL
MODEL 5
REMARK VINA RESULT:      -7.6      2.563      6.489
REMARK  Name = 5289326
REMARK  4 active torsions:
REMARK  status: ('A' for Active; 'I' for Inactive)
REMARK    1  A    between atoms: N_1  and  C_4
REMARK    2  A    between atoms: N_1  and  C_11
REMARK    3  A    between atoms: C_11  and  C_12
REMARK    4  A    between atoms: C_12  and  C_13
REMARK                            x       y       z     vdW  Elec       q    Type
REMARK                         _______ _______ _______ _____ _____    ______ ____
ROOT
ATOM      1  N   UNL     1      35.102 -16.782 -22.047  0.00  0.00    +0.387 N 
ATOM      2  C   UNL     1      34.585 -16.169 -20.773  0.00  0.00    -0.101 C 
ATOM      3  H   UNL     1      36.117 -16.843 -21.959  0.00  0.00    -0.080 HD
ENDROOT
BRANCH   1   4
ATOM      4  C   UNL     1      34.841 -15.925 -23.233  0.00  0.00    -0.053 C 
ATOM      5  C   UNL     1      33.676 -14.990 -22.929  0.00  0.00    -0.016 C 
ATOM      6  C   UNL     1      34.542 -16.819 -24.436  0.00  0.00    +0.005 C 
ATOM      7  C   UNL     1      33.370 -14.096 -24.134  0.00  0.00    +0.020 C 
ATOM      8  C   UNL     1      33.396 -14.830 -25.454  0.00  0.00    -0.048 C 
ATOM      9  C   UNL     1      33.914 -16.065 -25.573  0.00  0.00    -0.037 C 
ATOM     10  C   UNL     1      32.811 -14.100 -26.626  0.00  0.00    +0.026 C 
ENDBRANCH   1   4
BRANCH   1  11
ATOM     11  C   UNL     1      34.591 -18.187 -22.233  0.00  0.00    -0.073 C 
BRANCH  11  12
ATOM     12  C   UNL     1      35.345 -19.144 -21.318  0.00  0.00    +0.003 C 
BRANCH  12  13
ATOM     13  C   UNL     1      34.435 -20.121 -20.625  0.00  0.00    -0.037 C 
ATOM     14  C   UNL     1      34.776 -21.119 -19.788  0.00  0.00    -0.048 C 
ATOM     15  C   UNL     1      33.812 -22.062 -19.126  0.00  0.00    +0.026 C 
ATOM     16  C   UNL     1      36.220 -21.357 -19.434  0.00  0.00    +0.026 C 
ENDBRANCH  12  13
ENDBRANCH  11  12
ENDBRANCH   1  11
TORSDOF 4
ENDMDL
MODEL 6
REMARK VINA RESULT:      -7.6      2.112      3.133
REMARK  Name = 5289326
REMARK  4 active torsions:
REMARK  status: ('A' for Active; 'I' for Inactive)
REMARK    1  A    between atoms: N_1  and  C_4
REMARK    2  A    between atoms: N_1  and  C_11
REMARK    3  A    between atoms: C_11  and  C_12
REMARK    4  A    between atoms: C_12  and  C_13
REMARK                            x       y       z     vdW  Elec       q    Type
REMARK                         _______ _______ _______ _____ _____    ______ ____
ROOT
ATOM      1  N   UNL     1      34.153 -18.466 -22.273  0.00  0.00    +0.387 N 
ATOM      2  C   UNL     1      34.590 -17.336 -21.379  0.00  0.00    -0.101 C 
ATOM      3  H   UNL     1      33.200 -18.258 -22.574  0.00  0.00    -0.080 HD
ENDROOT
BRANCH   1   4
ATOM      4  C   UNL     1      34.085 -19.764 -21.552  0.00  0.00    -0.053 C 
ATOM      5  C   UNL     1      32.941 -19.719 -20.546  0.00  0.00    -0.016 C 
ATOM      6  C   UNL     1      35.427 -20.021 -20.865  0.00  0.00    +0.005 C 
ATOM      7  C   UNL     1      32.847 -21.039 -19.775  0.00  0.00    +0.020 C 
ATOM      8  C   UNL     1      34.187 -21.582 -19.338  0.00  0.00    -0.048 C 
ATOM      9  C   UNL     1      35.344 -21.103 -19.827  0.00  0.00    -0.037 C 
ATOM     10  C   UNL     1      34.151 -22.690 -18.328  0.00  0.00    +0.026 C 
ENDBRANCH   1   4
BRANCH   1  11
ATOM     11  C   UNL     1      34.999 -18.546 -23.517  0.00  0.00    -0.073 C 
BRANCH  11  12
ATOM     12  C   UNL     1      35.359 -17.145 -23.998  0.00  0.00    +0.003 C 
BRANCH  12  13
ATOM     13  C   UNL     1      34.478 -16.674 -25.122  0.00  0.00    -0.037 C 
ATOM     14  C   UNL     1      33.722 -15.561 -25.170  0.00  0.00    -0.048 C 
ATOM     15  C   UNL     1      32.861 -15.147 -26.330  0.00  0.00    +0.026 C 
ATOM     16  C   UNL     1      33.699 -14.603 -24.008  0.00  0.00    +0.026 C 
ENDBRANCH  12  13
ENDBRANCH  11  12
ENDBRANCH   1  11
TORSDOF 4
ENDMDL
MODEL 7
REMARK VINA RESULT:      -7.5      1.585      6.479
REMARK  Name = 5289326
REMARK  4 active torsions:
REMARK  status: ('A' for Active; 'I' for Inactive)
REMARK    1  A    between atoms: N_1  and  C_4
REMARK    2  A    between atoms: N_1  and  C_11
REMARK    3  A    between atoms: C_11  and  C_12
REMARK    4  A    between atoms: C_12  and  C_13
REMARK                            x       y       z     vdW  Elec       q    Type
REMARK                         _______ _______ _______ _____ _____    ______ ____
ROOT
ATOM      1  N   UNL     1      33.907 -16.201 -22.540  0.00  0.00    +0.387 N 
ATOM      2  C   UNL     1      34.988 -15.683 -23.451  0.00  0.00    -0.101 C 
ATOM      3  H   UNL     1      33.384 -16.903 -23.066  0.00  0.00    -0.080 HD
ENDROOT
BRANCH   1   4
ATOM      4  C   UNL     1      32.927 -15.146 -22.169  0.00  0.00    -0.053 C 
ATOM      5  C   UNL     1      33.178 -13.907 -23.021  0.00  0.00    -0.016 C 
ATOM      6  C   UNL     1      33.069 -14.840 -20.678  0.00  0.00    +0.005 C 
ATOM      7  C   UNL     1      32.193 -12.793 -22.658  0.00  0.00    +0.020 C 
ATOM      8  C   UNL     1      31.982 -12.630 -21.171  0.00  0.00    -0.048 C 
ATOM      9  C   UNL     1      32.397 -13.555 -20.287  0.00  0.00    -0.037 C 
ATOM     10  C   UNL     1      31.281 -11.377 -20.738  0.00  0.00    +0.026 C 
ENDBRANCH   1   4
BRANCH   1  11
ATOM     11  C   UNL     1      34.484 -16.895 -21.335  0.00  0.00    -0.073 C 
BRANCH  11  12
ATOM     12  C   UNL     1      34.854 -18.332 -21.684  0.00  0.00    +0.003 C 
BRANCH  12  13
ATOM     13  C   UNL     1      33.981 -19.340 -20.990  0.00  0.00    -0.037 C 
ATOM     14  C   UNL     1      34.363 -20.430 -20.297  0.00  0.00    -0.048 C 
ATOM     15  C   UNL     1      33.435 -21.400 -19.624  0.00  0.00    +0.026 C 
ATOM     16  C   UNL     1      35.825 -20.755 -20.134  0.00  0.00    +0.026 C 
ENDBRANCH  12  13
ENDBRANCH  11  12
ENDBRANCH   1  11
TORSDOF 4
ENDMDL
MODEL 8
REMARK VINA RESULT:      -7.3      2.765      4.923
REMARK  Name = 5289326
REMARK  4 active torsions:
REMARK  status: ('A' for Active; 'I' for Inactive)
REMARK    1  A    between atoms: N_1  and  C_4
REMARK    2  A    between atoms: N_1  and  C_11
REMARK    3  A    between atoms: C_11  and  C_12
REMARK    4  A    between atoms: C_12  and  C_13
REMARK                            x       y       z     vdW  Elec       q    Type
REMARK                         _______ _______ _______ _____ _____    ______ ____
ROOT
ATOM      1  N   UNL     1      33.658 -13.829 -23.121  0.00  0.00    +0.387 N 
ATOM      2  C   UNL     1      33.405 -13.827 -24.605  0.00  0.00    -0.101 C 
ATOM      3  H   UNL     1      34.153 -12.964 -22.901  0.00  0.00    -0.080 HD
ENDROOT
BRANCH   1   4
ATOM      4  C   UNL     1      34.556 -14.938 -22.703  0.00  0.00    -0.053 C 
ATOM      5  C   UNL     1      34.307 -16.148 -23.595  0.00  0.00    -0.016 C 
ATOM      6  C   UNL     1      34.294 -15.261 -21.232  0.00  0.00    +0.005 C 
ATOM      7  C   UNL     1      35.209 -17.316 -23.186  0.00  0.00    +0.020 C 
ATOM      8  C   UNL     1      35.304 -17.514 -21.692  0.00  0.00    -0.048 C 
ATOM      9  C   UNL     1      34.873 -16.584 -20.821  0.00  0.00    -0.037 C 
ATOM     10  C   UNL     1      35.911 -18.808 -21.236  0.00  0.00    +0.026 C 
ENDBRANCH   1   4
BRANCH   1  11
ATOM     11  C   UNL     1      32.371 -13.811 -22.340  0.00  0.00    -0.073 C 
BRANCH  11  12
ATOM     12  C   UNL     1      31.901 -12.375 -22.136  0.00  0.00    +0.003 C 
BRANCH  12  13
ATOM     13  C   UNL     1      31.600 -12.063 -20.696  0.00  0.00    -0.037 C 
ATOM     14  C   UNL     1      31.562 -10.855 -20.102  0.00  0.00    -0.048 C 
ATOM     15  C   UNL     1      31.252 -10.611 -18.652  0.00  0.00    +0.026 C 
ATOM     16  C   UNL     1      31.829  -9.605 -20.898  0.00  0.00    +0.026 C 
ENDBRANCH  12  13
ENDBRANCH  11  12
ENDBRANCH   1  11
TORSDOF 4
ENDMDL
MODEL 9
REMARK VINA RESULT:      -7.3      2.576      6.559
REMARK  Name = 5289326
REMARK  4 active torsions:
REMARK  status: ('A' for Active; 'I' for Inactive)
REMARK    1  A    between atoms: N_1  and  C_4
REMARK    2  A    between atoms: N_1  and  C_11
REMARK    3  A    between atoms: C_11  and  C_12
REMARK    4  A    between atoms: C_12  and  C_13
REMARK                            x       y       z     vdW  Elec       q    Type
REMARK                         _______ _______ _______ _____ _____    ______ ____
ROOT
ATOM      1  N   UNL     1      35.074 -22.292 -19.106  0.00  0.00    +0.387 N 
ATOM      2  C   UNL     1      35.917 -21.977 -17.899  0.00  0.00    -0.101 C 
ATOM      3  H   UNL     1      35.433 -23.161 -19.504  0.00  0.00    -0.080 HD
ENDROOT
BRANCH   1   4
ATOM      4  C   UNL     1      35.208 -21.264 -20.172  0.00  0.00    -0.053 C 
ATOM      5  C   UNL     1      36.386 -20.354 -19.846  0.00  0.00    -0.016 C 
ATOM      6  C   UNL     1      33.901 -20.475 -20.267  0.00  0.00    +0.005 C 
ATOM      7  C   UNL     1      36.549 -19.273 -20.919  0.00  0.00    +0.020 C 
ATOM      8  C   UNL     1      35.243 -18.653 -21.356  0.00  0.00    -0.048 C 
ATOM      9  C   UNL     1      34.055 -19.198 -21.042  0.00  0.00    -0.037 C 
ATOM     10  C   UNL     1      35.350 -17.393 -22.163  0.00  0.00    +0.026 C 
ENDBRANCH   1   4
BRANCH   1  11
ATOM     11  C   UNL     1      33.637 -22.541 -18.729  0.00  0.00    -0.073 C 
BRANCH  11  12
ATOM     12  C   UNL     1      33.561 -23.173 -17.344  0.00  0.00    +0.003 C 
BRANCH  12  13
ATOM     13  C   UNL     1      32.183 -23.095 -16.747  0.00  0.00    -0.037 C 
ATOM     14  C   UNL     1      31.831 -23.237 -15.455  0.00  0.00    -0.048 C 
ATOM     15  C   UNL     1      30.429 -23.147 -14.922  0.00  0.00    +0.026 C 
ATOM     16  C   UNL     1      32.879 -23.496 -14.404  0.00  0.00    +0.026 C 
ENDBRANCH  12  13
ENDBRANCH  11  12
ENDBRANCH   1  11
TORSDOF 4
ENDMDL
