MODEL 1
REMARK VINA RESULT:      -3.4      0.000      0.000
REMARK  Name = 175
REMARK  0 active torsions:
REMARK  status: ('A' for Active; 'I' for Inactive)
REMARK                            x       y       z     vdW  Elec       q    Type
REMARK                         _______ _______ _______ _____ _____    ______ ____
ROOT
ATOM      1  O   UNL     1      40.530 -25.908 -15.867  0.00  0.00    -0.246 OA
ATOM      2  O   UNL     1      41.352 -26.847 -13.950  0.00  0.00    -0.246 OA
ATOM      3  C   UNL     1      39.497 -25.415 -13.811  0.00  0.00    +0.126 C 
ATOM      4  C   UNL     1      40.565 -26.126 -14.625  0.00  0.00    +0.365 C 
ENDROOT
TORSDOF 0
ENDMDL
MODEL 2
REMARK VINA RESULT:      -3.3     12.952     13.481
REMARK  Name = 175
REMARK  0 active torsions:
REMARK  status: ('A' for Active; 'I' for Inactive)
REMARK                            x       y       z     vdW  Elec       q    Type
REMARK                         _______ _______ _______ _____ _____    ______ ____
ROOT
ATOM      1  O   UNL     1      27.652 -23.721 -17.615  0.00  0.00    -0.246 OA
ATOM      2  O   UNL     1      27.193 -21.499 -17.323  0.00  0.00    -0.246 OA
ATOM      3  C   UNL     1      28.635 -22.572 -15.813  0.00  0.00    +0.126 C 
ATOM      4  C   UNL     1      27.738 -22.602 -17.038  0.00  0.00    +0.365 C 
ENDROOT
TORSDOF 0
ENDMDL
MODEL 3
REMARK VINA RESULT:      -3.2      3.475      3.657
REMARK  Name = 175
REMARK  0 active torsions:
REMARK  status: ('A' for Active; 'I' for Inactive)
REMARK                            x       y       z     vdW  Elec       q    Type
REMARK                         _______ _______ _______ _____ _____    ______ ____
ROOT
ATOM      1  O   UNL     1      36.621 -27.402 -16.335  0.00  0.00    -0.246 OA
ATOM      2  O   UNL     1      38.069 -27.098 -14.590  0.00  0.00    -0.246 OA
ATOM      3  C   UNL     1      36.303 -25.579 -14.882  0.00  0.00    +0.126 C 
ATOM      4  C   UNL     1      37.073 -26.816 -15.313  0.00  0.00    +0.365 C 
ENDROOT
TORSDOF 0
ENDMDL
MODEL 4
REMARK VINA RESULT:      -3.1      5.786      6.195
REMARK  Name = 175
REMARK  0 active torsions:
REMARK  status: ('A' for Active; 'I' for Inactive)
REMARK                            x       y       z     vdW  Elec       q    Type
REMARK                         _______ _______ _______ _____ _____    ______ ____
ROOT
ATOM      1  O   UNL     1      37.125 -23.979 -10.905  0.00  0.00    -0.246 OA
ATOM      2  O   UNL     1      35.228 -25.096 -10.282  0.00  0.00    -0.246 OA
ATOM      3  C   UNL     1      35.256 -23.957 -12.335  0.00  0.00    +0.126 C 
ATOM      4  C   UNL     1      35.938 -24.386 -11.047  0.00  0.00    +0.365 C 
ENDROOT
TORSDOF 0
ENDMDL
MODEL 5
REMARK VINA RESULT:      -3.0      5.270      5.609
REMARK  Name = 175
REMARK  0 active torsions:
REMARK  status: ('A' for Active; 'I' for Inactive)
REMARK                            x       y       z     vdW  Elec       q    Type
REMARK                         _______ _______ _______ _____ _____    ______ ____
ROOT
ATOM      1  O   UNL     1      36.673 -23.889 -10.455  0.00  0.00    -0.246 OA
ATOM      2  O   UNL     1      38.239 -22.683 -11.607  0.00  0.00    -0.246 OA
ATOM      3  C   UNL     1      36.295 -23.382 -12.721  0.00  0.00    +0.126 C 
ATOM      4  C   UNL     1      37.153 -23.312 -11.470  0.00  0.00    +0.365 C 
ENDROOT
TORSDOF 0
ENDMDL
MODEL 6
REMARK VINA RESULT:      -3.0      8.757      9.376
REMARK  Name = 175
REMARK  0 active torsions:
REMARK  status: ('A' for Active; 'I' for Inactive)
REMARK                            x       y       z     vdW  Elec       q    Type
REMARK                         _______ _______ _______ _____ _____    ______ ____
ROOT
ATOM      1  O   UNL     1      32.620 -22.418 -18.413  0.00  0.00    -0.246 OA
ATOM      2  O   UNL     1      34.711 -22.701 -19.296  0.00  0.00    -0.246 OA
ATOM      3  C   UNL     1      33.431 -20.853 -19.971  0.00  0.00    +0.126 C 
ATOM      4  C   UNL     1      33.603 -22.115 -19.144  0.00  0.00    +0.365 C 
ENDROOT
TORSDOF 0
ENDMDL
MODEL 7
REMARK VINA RESULT:      -3.0     10.202     10.561
REMARK  Name = 175
REMARK  0 active torsions:
REMARK  status: ('A' for Active; 'I' for Inactive)
REMARK                            x       y       z     vdW  Elec       q    Type
REMARK                         _______ _______ _______ _____ _____    ______ ____
ROOT
ATOM      1  O   UNL     1      42.752 -16.348 -16.094  0.00  0.00    -0.246 OA
ATOM      2  O   UNL     1      40.512 -16.333 -15.629  0.00  0.00    -0.246 OA
ATOM      3  C   UNL     1      41.371 -14.756 -17.141  0.00  0.00    +0.126 C 
ATOM      4  C   UNL     1      41.566 -15.928 -16.195  0.00  0.00    +0.365 C 
ENDROOT
TORSDOF 0
ENDMDL
MODEL 8
REMARK VINA RESULT:      -3.0      9.274      9.897
REMARK  Name = 175
REMARK  0 active torsions:
REMARK  status: ('A' for Active; 'I' for Inactive)
REMARK                            x       y       z     vdW  Elec       q    Type
REMARK                         _______ _______ _______ _____ _____    ______ ____
ROOT
ATOM      1  O   UNL     1      34.811 -21.560 -19.488  0.00  0.00    -0.246 OA
ATOM      2  O   UNL     1      32.680 -22.159 -18.909  0.00  0.00    -0.246 OA
ATOM      3  C   UNL     1      32.999 -20.307 -20.316  0.00  0.00    +0.126 C 
ATOM      4  C   UNL     1      33.553 -21.455 -19.490  0.00  0.00    +0.365 C 
ENDROOT
TORSDOF 0
ENDMDL
MODEL 9
REMARK VINA RESULT:      -2.9      3.862      4.187
REMARK  Name = 175
REMARK  0 active torsions:
REMARK  status: ('A' for Active; 'I' for Inactive)
REMARK                            x       y       z     vdW  Elec       q    Type
REMARK                         _______ _______ _______ _____ _____    ______ ____
ROOT
ATOM      1  O   UNL     1      36.952 -26.388 -11.884  0.00  0.00    -0.246 OA
ATOM      2  O   UNL     1      37.870 -24.359 -11.360  0.00  0.00    -0.246 OA
ATOM      3  C   UNL     1      38.668 -25.518 -13.238  0.00  0.00    +0.126 C 
ATOM      4  C   UNL     1      37.737 -25.413 -12.043  0.00  0.00    +0.365 C 
ENDROOT
TORSDOF 0
ENDMDL
