MODEL 1
REMARK VINA RESULT:      -6.2      0.000      0.000
REMARK  Name = 62965
REMARK  7 active torsions:
REMARK  status: ('A' for Active; 'I' for Inactive)
REMARK    1  A    between atoms: C_7  and  C_26
REMARK    2  A    between atoms: C_7  and  O_30
REMARK    3  A    between atoms: C_11  and  O_23
REMARK    4  A    between atoms: C_26  and  C_27
REMARK    5  A    between atoms: C_27  and  O_28
REMARK    6  A    between atoms: O_30  and  C_32
REMARK    7  A    between atoms: C_32  and  C_33
REMARK                            x       y       z     vdW  Elec       q    Type
REMARK                         _______ _______ _______ _____ _____    ______ ____
ROOT
ATOM      1 CL   UNL     1      31.800 -22.280 -13.838  0.00  0.00    -0.113 Cl
ATOM      2  O   UNL     1      27.267 -21.738 -15.734  0.00  0.00    -0.287 OA
ATOM      3  C   UNL     1      34.989 -24.489 -14.159  0.00  0.00    +0.043 C 
ATOM      4  C   UNL     1      34.574 -23.311 -15.073  0.00  0.00    +0.005 C 
ATOM      5  C   UNL     1      33.263 -23.569 -15.835  0.00  0.00    +0.017 C 
ATOM      6  C   UNL     1      32.071 -23.831 -14.830  0.00  0.00    +0.098 C 
ATOM      7  C   UNL     1      36.338 -23.935 -13.604  0.00  0.00    +0.188 C 
ATOM      8  C   UNL     1      35.849 -23.029 -15.863  0.00  0.00    +0.004 C 
ATOM      9  C   UNL     1      33.862 -24.701 -13.123  0.00  0.00    +0.034 C 
ATOM     10  C   UNL     1      36.964 -23.129 -14.789  0.00  0.00    +0.044 C 
ATOM     11  C   UNL     1      32.466 -24.916 -13.767  0.00  0.00    +0.125 C 
ATOM     12  C   UNL     1      30.719 -24.109 -15.634  0.00  0.00    +0.049 C 
ATOM     13  C   UNL     1      32.952 -22.436 -16.833  0.00  0.00    +0.006 C 
ATOM     14  C   UNL     1      35.252 -25.808 -14.939  0.00  0.00    +0.004 C 
ATOM     15  C   UNL     1      31.638 -22.666 -17.574  0.00  0.00    +0.022 C 
ATOM     16  C   UNL     1      30.503 -22.951 -16.621  0.00  0.00    -0.037 C 
ATOM     17  C   UNL     1      38.249 -23.683 -15.399  0.00  0.00    +0.004 C 
ATOM     18  C   UNL     1      30.731 -25.414 -16.472  0.00  0.00    +0.010 C 
ATOM     19  C   UNL     1      29.537 -24.262 -14.686  0.00  0.00    -0.018 C 
ATOM     20  C   UNL     1      29.394 -22.195 -16.644  0.00  0.00    +0.034 C 
ATOM     21  C   UNL     1      28.430 -23.510 -14.709  0.00  0.00    +0.038 C 
ATOM     22  C   UNL     1      28.282 -22.427 -15.699  0.00  0.00    +0.195 C 
ENDROOT
BRANCH  11  23
ATOM     23  O   UNL     1      32.417 -26.225 -14.320  0.00  0.00    -0.383 OA
ATOM     24  H   UNL     1      31.870 -26.217 -15.121  0.00  0.00    +0.210 HD
ENDBRANCH  11  23
BRANCH   7  26
ATOM     25  O   UNL     1      36.776 -25.767 -12.147  0.00  0.00    -0.290 OA
ATOM     26  C   UNL     1      37.224 -24.952 -12.952  0.00  0.00    +0.216 C 
BRANCH  26  27
ATOM     27  C   UNL     1      38.687 -24.914 -13.340  0.00  0.00    +0.206 C 
BRANCH  27  28
ATOM     28  O   UNL     1      39.228 -26.217 -13.371  0.00  0.00    -0.375 OA
ATOM     29  H   UNL     1      39.012 -26.678 -12.546  0.00  0.00    +0.211 HD
ENDBRANCH  27  28
ENDBRANCH  26  27
ENDBRANCH   7  26
BRANCH   7  30
ATOM     30  O   UNL     1      36.122 -23.053 -12.495  0.00  0.00    -0.449 OA
BRANCH  30  32
ATOM     31  O   UNL     1      38.292 -22.393 -12.070  0.00  0.00    -0.250 OA
ATOM     32  C   UNL     1      37.211 -22.831 -11.702  0.00  0.00    +0.317 C 
BRANCH  32  33
ATOM     33  C   UNL     1      36.865 -23.214 -10.282  0.00  0.00    +0.110 C 
ATOM     34  C   UNL     1      35.568 -23.999 -10.201  0.00  0.00    +0.012 C 
ENDBRANCH  32  33
ENDBRANCH  30  32
ENDBRANCH   7  30
TORSDOF 7
ENDMDL
MODEL 2
REMARK VINA RESULT:      -6.1      1.894      7.487
REMARK  Name = 62965
REMARK  7 active torsions:
REMARK  status: ('A' for Active; 'I' for Inactive)
REMARK    1  A    between atoms: C_7  and  C_26
REMARK    2  A    between atoms: C_7  and  O_30
REMARK    3  A    between atoms: C_11  and  O_23
REMARK    4  A    between atoms: C_26  and  C_27
REMARK    5  A    between atoms: C_27  and  O_28
REMARK    6  A    between atoms: O_30  and  C_32
REMARK    7  A    between atoms: C_32  and  C_33
REMARK                            x       y       z     vdW  Elec       q    Type
REMARK                         _______ _______ _______ _____ _____    ______ ____
ROOT
ATOM      1 CL   UNL     1      35.716 -26.066 -14.911  0.00  0.00    -0.113 Cl
ATOM      2  O   UNL     1      40.650 -26.297 -14.703  0.00  0.00    -0.287 OA
ATOM      3  C   UNL     1      32.750 -23.657 -14.171  0.00  0.00    +0.043 C 
ATOM      4  C   UNL     1      33.664 -23.655 -15.419  0.00  0.00    +0.005 C 
ATOM      5  C   UNL     1      35.134 -23.341 -15.092  0.00  0.00    +0.017 C 
ATOM      6  C   UNL     1      35.721 -24.402 -14.077  0.00  0.00    +0.098 C 
ATOM      7  C   UNL     1      31.372 -23.942 -14.848  0.00  0.00    +0.188 C 
ATOM      8  C   UNL     1      32.910 -22.751 -16.390  0.00  0.00    +0.004 C 
ATOM      9  C   UNL     1      33.272 -24.746 -13.206  0.00  0.00    +0.034 C 
ATOM     10  C   UNL     1      31.434 -23.196 -16.222  0.00  0.00    +0.044 C 
ATOM     11  C   UNL     1      34.770 -24.577 -12.841  0.00  0.00    +0.125 C 
ATOM     12  C   UNL     1      37.244 -24.058 -13.737  0.00  0.00    +0.049 C 
ATOM     13  C   UNL     1      35.987 -23.216 -16.370  0.00  0.00    +0.006 C 
ATOM     14  C   UNL     1      32.696 -22.283 -13.446  0.00  0.00    +0.004 C 
ATOM     15  C   UNL     1      37.455 -22.935 -16.057  0.00  0.00    +0.022 C 
ATOM     16  C   UNL     1      38.011 -23.923 -15.062  0.00  0.00    -0.037 C 
ATOM     17  C   UNL     1      30.490 -22.011 -16.407  0.00  0.00    +0.004 C 
ATOM     18  C   UNL     1      37.442 -22.727 -12.967  0.00  0.00    +0.010 C 
ATOM     19  C   UNL     1      37.862 -25.124 -12.841  0.00  0.00    -0.018 C 
ATOM     20  C   UNL     1      39.101 -24.646 -15.363  0.00  0.00    +0.034 C 
ATOM     21  C   UNL     1      38.949 -25.845 -13.140  0.00  0.00    +0.038 C 
ATOM     22  C   UNL     1      39.647 -25.648 -14.423  0.00  0.00    +0.195 C 
ENDROOT
BRANCH  11  23
ATOM     23  O   UNL     1      34.897 -23.491 -11.932  0.00  0.00    -0.383 OA
ATOM     24  H   UNL     1      34.105 -22.933 -11.982  0.00  0.00    +0.210 HD
ENDBRANCH  11  23
BRANCH   7  26
ATOM     25  O   UNL     1      29.285 -22.898 -14.369  0.00  0.00    -0.290 OA
ATOM     26  C   UNL     1      30.174 -23.663 -13.995  0.00  0.00    +0.216 C 
BRANCH  26  27
ATOM     27  C   UNL     1      30.123 -24.371 -12.658  0.00  0.00    +0.206 C 
BRANCH  27  28
ATOM     28  O   UNL     1      30.131 -23.439 -11.598  0.00  0.00    -0.375 OA
ATOM     29  H   UNL     1      29.305 -23.515 -11.094  0.00  0.00    +0.211 HD
ENDBRANCH  27  28
ENDBRANCH  26  27
ENDBRANCH   7  26
BRANCH   7  30
ATOM     30  O   UNL     1      31.185 -25.343 -15.080  0.00  0.00    -0.449 OA
BRANCH  30  32
ATOM     31  O   UNL     1      29.130 -26.290 -14.629  0.00  0.00    -0.250 OA
ATOM     32  C   UNL     1      29.910 -25.723 -15.383  0.00  0.00    +0.317 C 
BRANCH  32  33
ATOM     33  C   UNL     1      29.609 -25.329 -16.809  0.00  0.00    +0.110 C 
ATOM     34  C   UNL     1      28.245 -24.675 -16.947  0.00  0.00    +0.012 C 
ENDBRANCH  32  33
ENDBRANCH  30  32
ENDBRANCH   7  30
TORSDOF 7
ENDMDL
MODEL 3
REMARK VINA RESULT:      -5.5      1.832      3.285
REMARK  Name = 62965
REMARK  7 active torsions:
REMARK  status: ('A' for Active; 'I' for Inactive)
REMARK    1  A    between atoms: C_7  and  C_26
REMARK    2  A    between atoms: C_7  and  O_30
REMARK    3  A    between atoms: C_11  and  O_23
REMARK    4  A    between atoms: C_26  and  C_27
REMARK    5  A    between atoms: C_27  and  O_28
REMARK    6  A    between atoms: O_30  and  C_32
REMARK    7  A    between atoms: C_32  and  C_33
REMARK                            x       y       z     vdW  Elec       q    Type
REMARK                         _______ _______ _______ _____ _____    ______ ____
ROOT
ATOM      1 CL   UNL     1      31.511 -22.214 -16.450  0.00  0.00    -0.113 Cl
ATOM      2  O   UNL     1      26.730 -22.530 -17.668  0.00  0.00    -0.287 OA
ATOM      3  C   UNL     1      34.111 -23.645 -13.933  0.00  0.00    +0.043 C 
ATOM      4  C   UNL     1      33.596 -24.320 -15.226  0.00  0.00    +0.005 C 
ATOM      5  C   UNL     1      32.091 -24.635 -15.187  0.00  0.00    +0.017 C 
ATOM      6  C   UNL     1      31.247 -23.314 -14.973  0.00  0.00    +0.098 C 
ATOM      7  C   UNL     1      35.628 -23.525 -14.279  0.00  0.00    +0.188 C 
ATOM      8  C   UNL     1      34.587 -25.462 -15.432  0.00  0.00    +0.004 C 
ATOM      9  C   UNL     1      33.344 -22.315 -13.758  0.00  0.00    +0.034 C 
ATOM     10  C   UNL     1      35.957 -24.808 -15.111  0.00  0.00    +0.044 C 
ATOM     11  C   UNL     1      31.802 -22.488 -13.760  0.00  0.00    +0.125 C 
ATOM     12  C   UNL     1      29.687 -23.656 -14.923  0.00  0.00    +0.049 C 
ATOM     13  C   UNL     1      31.642 -25.423 -16.433  0.00  0.00    +0.006 C 
ATOM     14  C   UNL     1      33.937 -24.532 -12.667  0.00  0.00    +0.004 C 
ATOM     15  C   UNL     1      30.143 -25.715 -16.420  0.00  0.00    +0.022 C 
ATOM     16  C   UNL     1      29.333 -24.465 -16.181  0.00  0.00    -0.037 C 
ATOM     17  C   UNL     1      36.901 -25.823 -14.472  0.00  0.00    +0.004 C 
ATOM     18  C   UNL     1      29.260 -24.516 -13.705  0.00  0.00    +0.010 C 
ATOM     19  C   UNL     1      28.849 -22.388 -14.820  0.00  0.00    -0.018 C 
ATOM     20  C   UNL     1      28.385 -24.095 -17.057  0.00  0.00    +0.034 C 
ATOM     21  C   UNL     1      27.903 -22.019 -15.692  0.00  0.00    +0.038 C 
ATOM     22  C   UNL     1      27.602 -22.855 -16.868  0.00  0.00    +0.195 C 
ENDROOT
BRANCH  11  23
ATOM     23  O   UNL     1      31.406 -23.059 -12.520  0.00  0.00    -0.383 OA
ATOM     24  H   UNL     1      32.107 -23.647 -12.197  0.00  0.00    +0.210 HD
ENDBRANCH  11  23
BRANCH   7  26
ATOM     25  O   UNL     1      37.619 -22.698 -13.267  0.00  0.00    -0.290 OA
ATOM     26  C   UNL     1      36.526 -23.241 -13.114  0.00  0.00    +0.216 C 
BRANCH  26  27
ATOM     27  C   UNL     1      36.011 -23.658 -11.753  0.00  0.00    +0.206 C 
BRANCH  27  28
ATOM     28  O   UNL     1      37.067 -24.125 -10.941  0.00  0.00    -0.375 OA
ATOM     29  H   UNL     1      37.482 -23.375 -10.487  0.00  0.00    +0.211 HD
ENDBRANCH  27  28
ENDBRANCH  26  27
ENDBRANCH   7  26
BRANCH   7  30
ATOM     30  O   UNL     1      35.889 -22.364 -15.077  0.00  0.00    -0.449 OA
BRANCH  30  32
ATOM     31  O   UNL     1      37.755 -22.913 -16.319  0.00  0.00    -0.250 OA
ATOM     32  C   UNL     1      36.578 -22.591 -16.234  0.00  0.00    +0.317 C 
BRANCH  32  33
ATOM     33  C   UNL     1      35.647 -22.379 -17.405  0.00  0.00    +0.110 C 
ATOM     34  C   UNL     1      36.327 -21.652 -18.552  0.00  0.00    +0.012 C 
ENDBRANCH  32  33
ENDBRANCH  30  32
ENDBRANCH   7  30
TORSDOF 7
ENDMDL
MODEL 4
REMARK VINA RESULT:      -4.7     22.169     25.058
REMARK  Name = 62965
REMARK  7 active torsions:
REMARK  status: ('A' for Active; 'I' for Inactive)
REMARK    1  A    between atoms: C_7  and  C_26
REMARK    2  A    between atoms: C_7  and  O_30
REMARK    3  A    between atoms: C_11  and  O_23
REMARK    4  A    between atoms: C_26  and  C_27
REMARK    5  A    between atoms: C_27  and  O_28
REMARK    6  A    between atoms: O_30  and  C_32
REMARK    7  A    between atoms: C_32  and  C_33
REMARK                            x       y       z     vdW  Elec       q    Type
REMARK                         _______ _______ _______ _____ _____    ______ ____
ROOT
ATOM      1 CL   UNL     1      38.466  -5.132 -26.564  0.00  0.00    -0.113 Cl
ATOM      2  O   UNL     1      43.204  -6.443 -27.083  0.00  0.00    -0.287 OA
ATOM      3  C   UNL     1      35.599  -3.281 -28.434  0.00  0.00    +0.043 C 
ATOM      4  C   UNL     1      36.068  -4.738 -28.656  0.00  0.00    +0.005 C 
ATOM      5  C   UNL     1      37.514  -4.837 -29.171  0.00  0.00    +0.017 C 
ATOM      6  C   UNL     1      38.520  -4.165 -28.153  0.00  0.00    +0.098 C 
ATOM      7  C   UNL     1      34.126  -3.539 -27.984  0.00  0.00    +0.188 C 
ATOM      8  C   UNL     1      34.940  -5.335 -29.492  0.00  0.00    +0.004 C 
ATOM      9  C   UNL     1      36.531  -2.640 -27.382  0.00  0.00    +0.034 C 
ATOM     10  C   UNL     1      33.659  -4.779 -28.815  0.00  0.00    +0.044 C 
ATOM     11  C   UNL     1      38.034  -2.726 -27.756  0.00  0.00    +0.125 C 
ATOM     12  C   UNL     1      40.015  -4.264 -28.705  0.00  0.00    +0.049 C 
ATOM     13  C   UNL     1      37.901  -6.291 -29.506  0.00  0.00    +0.006 C 
ATOM     14  C   UNL     1      35.600  -2.430 -29.737  0.00  0.00    +0.004 C 
ATOM     15  C   UNL     1      39.344  -6.406 -29.990  0.00  0.00    +0.022 C 
ATOM     16  C   UNL     1      40.306  -5.735 -29.040  0.00  0.00    -0.037 C 
ATOM     17  C   UNL     1      32.563  -4.544 -29.849  0.00  0.00    +0.004 C 
ATOM     18  C   UNL     1      40.273  -3.451 -30.000  0.00  0.00    +0.010 C 
ATOM     19  C   UNL     1      41.013  -3.715 -27.693  0.00  0.00    -0.018 C 
ATOM     20  C   UNL     1      41.329  -6.427 -28.513  0.00  0.00    +0.034 C 
ATOM     21  C   UNL     1      42.034  -4.402 -27.169  0.00  0.00    +0.038 C 
ATOM     22  C   UNL     1      42.265  -5.807 -27.551  0.00  0.00    +0.195 C 
ENDROOT
BRANCH  11  23
ATOM     23  O   UNL     1      38.299  -1.787 -28.790  0.00  0.00    -0.383 OA
ATOM     24  H   UNL     1      39.121  -1.311 -28.591  0.00  0.00    +0.210 HD
ENDBRANCH  11  23
BRANCH   7  26
ATOM     25  O   UNL     1      32.872  -1.841 -29.087  0.00  0.00    -0.290 OA
ATOM     26  C   UNL     1      33.230  -2.340 -28.021  0.00  0.00    +0.216 C 
BRANCH  26  27
ATOM     27  C   UNL     1      32.796  -1.786 -26.681  0.00  0.00    +0.206 C 
BRANCH  27  28
ATOM     28  O   UNL     1      31.517  -2.271 -26.331  0.00  0.00    -0.375 OA
ATOM     29  H   UNL     1      31.316  -3.061 -26.855  0.00  0.00    +0.211 HD
ENDBRANCH  27  28
ENDBRANCH  26  27
ENDBRANCH   7  26
BRANCH   7  30
ATOM     30  O   UNL     1      34.057  -3.852 -26.588  0.00  0.00    -0.449 OA
BRANCH  30  32
ATOM     31  O   UNL     1      32.138  -5.126 -26.439  0.00  0.00    -0.250 OA
ATOM     32  C   UNL     1      33.341  -4.971 -26.273  0.00  0.00    +0.317 C 
BRANCH  32  33
ATOM     33  C   UNL     1      34.277  -5.999 -25.681  0.00  0.00    +0.110 C 
ATOM     34  C   UNL     1      33.688  -6.668 -24.452  0.00  0.00    +0.012 C 
ENDBRANCH  32  33
ENDBRANCH  30  32
ENDBRANCH   7  30
TORSDOF 7
ENDMDL
MODEL 5
REMARK VINA RESULT:      -4.7     13.931     16.567
REMARK  Name = 62965
REMARK  7 active torsions:
REMARK  status: ('A' for Active; 'I' for Inactive)
REMARK    1  A    between atoms: C_7  and  C_26
REMARK    2  A    between atoms: C_7  and  O_30
REMARK    3  A    between atoms: C_11  and  O_23
REMARK    4  A    between atoms: C_26  and  C_27
REMARK    5  A    between atoms: C_27  and  O_28
REMARK    6  A    between atoms: O_30  and  C_32
REMARK    7  A    between atoms: C_32  and  C_33
REMARK                            x       y       z     vdW  Elec       q    Type
REMARK                         _______ _______ _______ _____ _____    ______ ____
ROOT
ATOM      1 CL   UNL     1      31.298  -9.493 -24.434  0.00  0.00    -0.113 Cl
ATOM      2  O   UNL     1      30.743  -4.608 -23.924  0.00  0.00    -0.287 OA
ATOM      3  C   UNL     1      33.537 -12.442 -23.235  0.00  0.00    +0.043 C 
ATOM      4  C   UNL     1      32.367 -11.786 -22.463  0.00  0.00    +0.005 C 
ATOM      5  C   UNL     1      32.624 -10.310 -22.117  0.00  0.00    +0.017 C 
ATOM      6  C   UNL     1      32.863  -9.459 -23.428  0.00  0.00    +0.098 C 
ATOM      7  C   UNL     1      32.987 -13.898 -23.367  0.00  0.00    +0.188 C 
ATOM      8  C   UNL     1      32.105 -12.779 -21.334  0.00  0.00    +0.004 C 
ATOM      9  C   UNL     1      33.727 -11.663 -24.555  0.00  0.00    +0.034 C 
ATOM     10  C   UNL     1      32.200 -14.157 -22.040  0.00  0.00    +0.044 C 
ATOM     11  C   UNL     1      33.938 -10.140 -24.346  0.00  0.00    +0.125 C 
ATOM     12  C   UNL     1      33.140  -7.931 -23.054  0.00  0.00    +0.049 C 
ATOM     13  C   UNL     1      31.501  -9.728 -21.236  0.00  0.00    +0.006 C 
ATOM     14  C   UNL     1      34.868 -12.463 -22.431  0.00  0.00    +0.004 C 
ATOM     15  C   UNL     1      31.729  -8.254 -20.910  0.00  0.00    +0.022 C 
ATOM     16  C   UNL     1      31.993  -7.443 -22.155  0.00  0.00    -0.037 C 
ATOM     17  C   UNL     1      32.773 -15.207 -21.093  0.00  0.00    +0.004 C 
ATOM     18  C   UNL     1      34.456  -7.694 -22.267  0.00  0.00    +0.010 C 
ATOM     19  C   UNL     1      33.272  -7.072 -24.305  0.00  0.00    -0.018 C 
ATOM     20  C   UNL     1      31.228  -6.377 -22.443  0.00  0.00    +0.034 C 
ATOM     21  C   UNL     1      32.511  -6.010 -24.593  0.00  0.00    +0.038 C 
ATOM     22  C   UNL     1      31.440  -5.586 -23.673  0.00  0.00    +0.195 C 
ENDROOT
BRANCH  11  23
ATOM     23  O   UNL     1      35.254  -9.927 -23.850  0.00  0.00    -0.383 OA
ATOM     24  H   UNL     1      35.808 -10.694 -24.065  0.00  0.00    +0.210 HD
ENDBRANCH  11  23
BRANCH   7  26
ATOM     25  O   UNL     1      35.003 -14.632 -24.401  0.00  0.00    -0.290 OA
ATOM     26  C   UNL     1      34.002 -14.930 -23.750  0.00  0.00    +0.216 C 
BRANCH  26  27
ATOM     27  C   UNL     1      33.725 -16.345 -23.290  0.00  0.00    +0.206 C 
BRANCH  27  28
ATOM     28  O   UNL     1      34.500 -17.269 -24.025  0.00  0.00    -0.375 OA
ATOM     29  H   UNL     1      35.440 -17.127 -23.834  0.00  0.00    +0.211 HD
ENDBRANCH  27  28
ENDBRANCH  26  27
ENDBRANCH   7  26
BRANCH   7  30
ATOM     30  O   UNL     1      32.089 -14.015 -24.478  0.00  0.00    -0.449 OA
BRANCH  30  32
ATOM     31  O   UNL     1      33.012 -15.562 -25.921  0.00  0.00    -0.250 OA
ATOM     32  C   UNL     1      32.658 -14.422 -25.651  0.00  0.00    +0.317 C 
BRANCH  32  33
ATOM     33  C   UNL     1      32.781 -13.231 -26.572  0.00  0.00    +0.110 C 
ATOM     34  C   UNL     1      33.883 -13.415 -27.600  0.00  0.00    +0.012 C 
ENDBRANCH  32  33
ENDBRANCH  30  32
ENDBRANCH   7  30
TORSDOF 7
ENDMDL
MODEL 6
REMARK VINA RESULT:      -3.7      2.202      7.544
REMARK  Name = 62965
REMARK  7 active torsions:
REMARK  status: ('A' for Active; 'I' for Inactive)
REMARK    1  A    between atoms: C_7  and  C_26
REMARK    2  A    between atoms: C_7  and  O_30
REMARK    3  A    between atoms: C_11  and  O_23
REMARK    4  A    between atoms: C_26  and  C_27
REMARK    5  A    between atoms: C_27  and  O_28
REMARK    6  A    between atoms: O_30  and  C_32
REMARK    7  A    between atoms: C_32  and  C_33
REMARK                            x       y       z     vdW  Elec       q    Type
REMARK                         _______ _______ _______ _____ _____    ______ ____
ROOT
ATOM      1 CL   UNL     1      36.877 -23.157 -15.308  0.00  0.00    -0.113 Cl
ATOM      2  O   UNL     1      41.521 -24.331 -14.085  0.00  0.00    -0.287 OA
ATOM      3  C   UNL     1      33.201 -24.309 -14.754  0.00  0.00    +0.043 C 
ATOM      4  C   UNL     1      34.072 -23.474 -13.786  0.00  0.00    +0.005 C 
ATOM      5  C   UNL     1      35.304 -24.237 -13.270  0.00  0.00    +0.017 C 
ATOM      6  C   UNL     1      36.229 -24.688 -14.471  0.00  0.00    +0.098 C 
ATOM      7  C   UNL     1      32.051 -23.289 -15.027  0.00  0.00    +0.188 C 
ATOM      8  C   UNL     1      33.053 -22.945 -12.782  0.00  0.00    +0.004 C 
ATOM      9  C   UNL     1      34.077 -24.688 -15.969  0.00  0.00    +0.034 C 
ATOM     10  C   UNL     1      31.854 -22.529 -13.674  0.00  0.00    +0.044 C 
ATOM     11  C   UNL     1      35.390 -25.418 -15.578  0.00  0.00    +0.125 C 
ATOM     12  C   UNL     1      37.498 -25.489 -13.923  0.00  0.00    +0.049 C 
ATOM     13  C   UNL     1      36.073 -23.426 -12.209  0.00  0.00    +0.006 C 
ATOM     14  C   UNL     1      32.612 -25.591 -14.100  0.00  0.00    +0.004 C 
ATOM     15  C   UNL     1      37.316 -24.160 -11.711  0.00  0.00    +0.022 C 
ATOM     16  C   UNL     1      38.185 -24.623 -12.854  0.00  0.00    -0.037 C 
ATOM     17  C   UNL     1      30.535 -22.754 -12.941  0.00  0.00    +0.004 C 
ATOM     18  C   UNL     1      37.157 -26.843 -13.250  0.00  0.00    +0.010 C 
ATOM     19  C   UNL     1      38.456 -25.843 -15.053  0.00  0.00    -0.018 C 
ATOM     20  C   UNL     1      39.475 -24.256 -12.916  0.00  0.00    +0.034 C 
ATOM     21  C   UNL     1      39.741 -25.479 -15.115  0.00  0.00    +0.038 C 
ATOM     22  C   UNL     1      40.340 -24.663 -14.042  0.00  0.00    +0.195 C 
ENDROOT
BRANCH  11  23
ATOM     23  O   UNL     1      35.073 -26.750 -15.194  0.00  0.00    -0.383 OA
ATOM     24  H   UNL     1      34.814 -27.259 -15.978  0.00  0.00    +0.210 HD
ENDBRANCH  11  23
BRANCH   7  26
ATOM     25  O   UNL     1      30.767 -25.054 -15.981  0.00  0.00    -0.290 OA
ATOM     26  C   UNL     1      30.818 -23.871 -15.647  0.00  0.00    +0.216 C 
BRANCH  26  27
ATOM     27  C   UNL     1      29.652 -22.924 -15.834  0.00  0.00    +0.206 C 
BRANCH  27  28
ATOM     28  O   UNL     1      29.555 -22.512 -17.181  0.00  0.00    -0.375 OA
ATOM     29  H   UNL     1      30.390 -22.698 -17.637  0.00  0.00    +0.211 HD
ENDBRANCH  27  28
ENDBRANCH  26  27
ENDBRANCH   7  26
BRANCH   7  30
ATOM     30  O   UNL     1      32.418 -22.352 -16.046  0.00  0.00    -0.449 OA
BRANCH  30  32
ATOM     31  O   UNL     1      32.098 -23.608 -17.955  0.00  0.00    -0.250 OA
ATOM     32  C   UNL     1      32.793 -22.899 -17.239  0.00  0.00    +0.317 C 
BRANCH  32  33
ATOM     33  C   UNL     1      34.215 -22.488 -17.540  0.00  0.00    +0.110 C 
ATOM     34  C   UNL     1      34.470 -22.358 -19.031  0.00  0.00    +0.012 C 
ENDBRANCH  32  33
ENDBRANCH  30  32
ENDBRANCH   7  30
TORSDOF 7
ENDMDL
MODEL 7
REMARK VINA RESULT:      -3.3     18.955     21.922
REMARK  Name = 62965
REMARK  7 active torsions:
REMARK  status: ('A' for Active; 'I' for Inactive)
REMARK    1  A    between atoms: C_7  and  C_26
REMARK    2  A    between atoms: C_7  and  O_30
REMARK    3  A    between atoms: C_11  and  O_23
REMARK    4  A    between atoms: C_26  and  C_27
REMARK    5  A    between atoms: C_27  and  O_28
REMARK    6  A    between atoms: O_30  and  C_32
REMARK    7  A    between atoms: C_32  and  C_33
REMARK                            x       y       z     vdW  Elec       q    Type
REMARK                         _______ _______ _______ _____ _____    ______ ____
ROOT
ATOM      1 CL   UNL     1      31.693  -8.459 -25.509  0.00  0.00    -0.113 Cl
ATOM      2  O   UNL     1      31.798 -12.384 -22.505  0.00  0.00    -0.287 OA
ATOM      3  C   UNL     1      32.648  -4.688 -25.623  0.00  0.00    +0.043 C 
ATOM      4  C   UNL     1      33.594  -5.896 -25.820  0.00  0.00    +0.005 C 
ATOM      5  C   UNL     1      33.714  -6.781 -24.567  0.00  0.00    +0.017 C 
ATOM      6  C   UNL     1      32.301  -7.350 -24.144  0.00  0.00    +0.098 C 
ATOM      7  C   UNL     1      32.800  -3.999 -27.016  0.00  0.00    +0.188 C 
ATOM      8  C   UNL     1      34.852  -5.252 -26.397  0.00  0.00    +0.004 C 
ATOM      9  C   UNL     1      31.244  -5.239 -25.285  0.00  0.00    +0.034 C 
ATOM     10  C   UNL     1      34.292  -4.232 -27.423  0.00  0.00    +0.044 C 
ATOM     11  C   UNL     1      31.237  -6.200 -24.067  0.00  0.00    +0.125 C 
ATOM     12  C   UNL     1      32.438  -8.257 -22.837  0.00  0.00    +0.049 C 
ATOM     13  C   UNL     1      34.764  -7.894 -24.755  0.00  0.00    +0.006 C 
ATOM     14  C   UNL     1      33.121  -3.712 -24.509  0.00  0.00    +0.004 C 
ATOM     15  C   UNL     1      34.871  -8.798 -23.529  0.00  0.00    +0.022 C 
ATOM     16  C   UNL     1      33.520  -9.316 -23.100  0.00  0.00    -0.037 C 
ATOM     17  C   UNL     1      35.188  -2.998 -27.496  0.00  0.00    +0.004 C 
ATOM     18  C   UNL     1      32.870  -7.483 -21.564  0.00  0.00    +0.010 C 
ATOM     19  C   UNL     1      31.106  -8.900 -22.470  0.00  0.00    -0.018 C 
ATOM     20  C   UNL     1      33.305 -10.637 -22.993  0.00  0.00    +0.034 C 
ATOM     21  C   UNL     1      30.891 -10.216 -22.362  0.00  0.00    +0.038 C 
ATOM     22  C   UNL     1      31.983 -11.175 -22.610  0.00  0.00    +0.195 C 
ENDROOT
BRANCH  11  23
ATOM     23  O   UNL     1      31.391  -5.431 -22.880  0.00  0.00    -0.383 OA
ATOM     24  H   UNL     1      31.276  -4.490 -23.088  0.00  0.00    +0.210 HD
ENDBRANCH  11  23
BRANCH   7  26
ATOM     25  O   UNL     1      32.767  -1.787 -27.897  0.00  0.00    -0.290 OA
ATOM     26  C   UNL     1      32.305  -2.588 -27.085  0.00  0.00    +0.216 C 
BRANCH  26  27
ATOM     27  C   UNL     1      31.213  -2.212 -26.107  0.00  0.00    +0.206 C 
BRANCH  27  28
ATOM     28  O   UNL     1      30.044  -1.813 -26.792  0.00  0.00    -0.375 OA
ATOM     29  H   UNL     1      30.279  -1.513 -27.683  0.00  0.00    +0.211 HD
ENDBRANCH  27  28
ENDBRANCH  26  27
ENDBRANCH   7  26
BRANCH   7  30
ATOM     30  O   UNL     1      31.945  -4.606 -27.993  0.00  0.00    -0.449 OA
BRANCH  30  32
ATOM     31  O   UNL     1      33.125  -5.533 -29.746  0.00  0.00    -0.250 OA
ATOM     32  C   UNL     1      32.439  -4.641 -29.265  0.00  0.00    +0.317 C 
BRANCH  32  33
ATOM     33  C   UNL     1      32.001  -3.391 -29.992  0.00  0.00    +0.110 C 
ATOM     34  C   UNL     1      30.491  -3.234 -30.000  0.00  0.00    +0.012 C 
ENDBRANCH  32  33
ENDBRANCH  30  32
ENDBRANCH   7  30
TORSDOF 7
ENDMDL
