MODEL 1
REMARK VINA RESULT:     -11.7      0.000      0.000
REMARK  Name = 100472
REMARK  3 active torsions:
REMARK  status: ('A' for Active; 'I' for Inactive)
REMARK    1  A    between atoms: C_1  and  C_13
REMARK    2  A    between atoms: C_2  and  C_7
REMARK    3  A    between atoms: C_13  and  C_16
REMARK                            x       y       z     vdW  Elec       q    Type
REMARK                         _______ _______ _______ _____ _____    ______ ____
ROOT
ATOM      1  C   UNL     1      34.356 -21.348 -20.049  0.00  0.00    -0.013 C 
ATOM      2  C   UNL     1      34.460 -18.745 -21.048  0.00  0.00    -0.000 C 
ATOM      3  C   UNL     1      35.590 -20.741 -20.286  0.00  0.00    -0.004 C 
ATOM      4  C   UNL     1      33.175 -20.654 -20.311  0.00  0.00    -0.004 C 
ATOM      5  C   UNL     1      35.641 -19.440 -20.785  0.00  0.00    -0.000 C 
ATOM      6  C   UNL     1      33.227 -19.353 -20.810  0.00  0.00    -0.000 C 
ENDROOT
BRANCH   2   7
ATOM      7  C   UNL     1      34.514 -17.395 -21.566  0.00  0.00    -0.000 C 
ATOM      8  C   UNL     1      34.717 -17.179 -22.929  0.00  0.00    -0.000 C 
ATOM      9  C   UNL     1      34.363 -16.311 -20.702  0.00  0.00    -0.000 C 
ATOM     10  C   UNL     1      34.768 -15.878 -23.428  0.00  0.00    +0.000 C 
ATOM     11  C   UNL     1      34.413 -15.009 -21.202  0.00  0.00    +0.000 C 
ATOM     12  C   UNL     1      34.616 -14.793 -22.565  0.00  0.00    +0.000 C 
ENDBRANCH   2   7
BRANCH   1  13
ATOM     13  C   UNL     1      34.301 -22.740 -19.515  0.00  0.00    +0.112 C 
BRANCH  13  16
ATOM     14  O   UNL     1      34.711 -22.885 -17.144  0.00  0.00    -0.274 OA
ATOM     15  N   UNL     1      32.498 -22.820 -17.925  0.00  0.00    -0.269 N 
ATOM     16  C   UNL     1      33.885 -22.825 -18.049  0.00  0.00    +0.232 C 
ATOM     17  H   UNL     1      31.985 -22.767 -18.764  0.00  0.00    +0.156 HD
ATOM     18  N   UNL     1      30.397 -22.867 -16.838  0.00  0.00    -0.229 NA
ATOM     19  C   UNL     1      31.738 -22.885 -16.732  0.00  0.00    +0.134 C 
ATOM     20  C   UNL     1      32.441 -22.958 -15.549  0.00  0.00    +0.034 C 
ATOM     21  C   UNL     1      31.704 -23.021 -14.372  0.00  0.00    +0.004 C 
ATOM     22  C   UNL     1      30.315 -23.005 -14.426  0.00  0.00    +0.021 C 
ATOM     23  C   UNL     1      29.715 -22.928 -15.672  0.00  0.00    +0.100 C 
ENDBRANCH  13  16
ENDBRANCH   1  13
TORSDOF 3
ENDMDL
MODEL 2
REMARK VINA RESULT:     -11.6      0.019      1.030
REMARK  Name = 100472
REMARK  3 active torsions:
REMARK  status: ('A' for Active; 'I' for Inactive)
REMARK    1  A    between atoms: C_1  and  C_13
REMARK    2  A    between atoms: C_2  and  C_7
REMARK    3  A    between atoms: C_13  and  C_16
REMARK                            x       y       z     vdW  Elec       q    Type
REMARK                         _______ _______ _______ _____ _____    ______ ____
ROOT
ATOM      1  C   UNL     1      34.352 -21.354 -20.037  0.00  0.00    -0.013 C 
ATOM      2  C   UNL     1      34.453 -18.751 -21.036  0.00  0.00    -0.000 C 
ATOM      3  C   UNL     1      33.170 -20.658 -20.292  0.00  0.00    -0.004 C 
ATOM      4  C   UNL     1      35.584 -20.748 -20.281  0.00  0.00    -0.004 C 
ATOM      5  C   UNL     1      33.221 -19.357 -20.792  0.00  0.00    -0.000 C 
ATOM      6  C   UNL     1      35.635 -19.447 -20.781  0.00  0.00    -0.000 C 
ENDROOT
BRANCH   2   7
ATOM      7  C   UNL     1      34.506 -17.401 -21.554  0.00  0.00    -0.000 C 
ATOM      8  C   UNL     1      34.729 -17.183 -22.913  0.00  0.00    -0.000 C 
ATOM      9  C   UNL     1      34.334 -16.317 -20.693  0.00  0.00    -0.000 C 
ATOM     10  C   UNL     1      34.779 -15.882 -23.413  0.00  0.00    +0.000 C 
ATOM     11  C   UNL     1      34.384 -15.015 -21.192  0.00  0.00    +0.000 C 
ATOM     12  C   UNL     1      34.606 -14.799 -22.552  0.00  0.00    +0.000 C 
ENDBRANCH   2   7
BRANCH   1  13
ATOM     13  C   UNL     1      34.298 -22.745 -19.502  0.00  0.00    +0.112 C 
BRANCH  13  16
ATOM     14  O   UNL     1      34.701 -22.898 -17.131  0.00  0.00    -0.274 OA
ATOM     15  N   UNL     1      32.490 -22.817 -17.917  0.00  0.00    -0.269 N 
ATOM     16  C   UNL     1      33.877 -22.831 -18.037  0.00  0.00    +0.232 C 
ATOM     17  H   UNL     1      31.980 -22.758 -18.757  0.00  0.00    +0.156 HD
ATOM     18  N   UNL     1      30.387 -22.852 -16.835  0.00  0.00    -0.229 NA
ATOM     19  C   UNL     1      31.727 -22.879 -16.726  0.00  0.00    +0.134 C 
ATOM     20  C   UNL     1      32.427 -22.959 -15.541  0.00  0.00    +0.034 C 
ATOM     21  C   UNL     1      31.687 -23.019 -14.366  0.00  0.00    +0.004 C 
ATOM     22  C   UNL     1      30.297 -22.995 -14.424  0.00  0.00    +0.021 C 
ATOM     23  C   UNL     1      29.702 -22.910 -15.671  0.00  0.00    +0.100 C 
ENDBRANCH  13  16
ENDBRANCH   1  13
TORSDOF 3
ENDMDL
MODEL 3
REMARK VINA RESULT:     -11.2      1.264      1.900
REMARK  Name = 100472
REMARK  3 active torsions:
REMARK  status: ('A' for Active; 'I' for Inactive)
REMARK    1  A    between atoms: C_1  and  C_13
REMARK    2  A    between atoms: C_2  and  C_7
REMARK    3  A    between atoms: C_13  and  C_16
REMARK                            x       y       z     vdW  Elec       q    Type
REMARK                         _______ _______ _______ _____ _____    ______ ____
ROOT
ATOM      1  C   UNL     1      34.639 -21.192 -19.828  0.00  0.00    -0.013 C 
ATOM      2  C   UNL     1      34.630 -18.755 -21.187  0.00  0.00    -0.000 C 
ATOM      3  C   UNL     1      35.844 -20.593 -20.195  0.00  0.00    -0.004 C 
ATOM      4  C   UNL     1      33.429 -20.572 -20.141  0.00  0.00    -0.004 C 
ATOM      5  C   UNL     1      35.840 -19.375 -20.874  0.00  0.00    -0.000 C 
ATOM      6  C   UNL     1      33.424 -19.354 -20.820  0.00  0.00    -0.000 C 
ENDROOT
BRANCH   2   7
ATOM      7  C   UNL     1      34.625 -17.492 -21.892  0.00  0.00    -0.000 C 
ATOM      8  C   UNL     1      34.379 -16.307 -21.199  0.00  0.00    -0.000 C 
ATOM      9  C   UNL     1      34.867 -17.460 -23.265  0.00  0.00    -0.000 C 
ATOM     10  C   UNL     1      34.375 -15.089 -21.879  0.00  0.00    +0.000 C 
ATOM     11  C   UNL     1      34.864 -16.242 -23.946  0.00  0.00    +0.000 C 
ATOM     12  C   UNL     1      34.618 -15.057 -23.252  0.00  0.00    +0.000 C 
ENDBRANCH   2   7
BRANCH   1  13
ATOM     13  C   UNL     1      34.643 -22.495 -19.102  0.00  0.00    +0.112 C 
BRANCH  13  16
ATOM     14  O   UNL     1      32.338 -22.343 -18.415  0.00  0.00    -0.274 OA
ATOM     15  N   UNL     1      33.928 -23.203 -16.917  0.00  0.00    -0.269 N 
ATOM     16  C   UNL     1      33.486 -22.661 -18.121  0.00  0.00    +0.232 C 
ATOM     17  H   UNL     1      34.891 -23.399 -16.855  0.00  0.00    +0.156 HD
ATOM     18  N   UNL     1      33.786 -24.026 -14.704  0.00  0.00    -0.229 NA
ATOM     19  C   UNL     1      33.155 -23.504 -15.770  0.00  0.00    +0.134 C 
ATOM     20  C   UNL     1      31.804 -23.237 -15.842  0.00  0.00    +0.034 C 
ATOM     21  C   UNL     1      31.036 -23.530 -14.722  0.00  0.00    +0.004 C 
ATOM     22  C   UNL     1      31.640 -24.072 -13.592  0.00  0.00    +0.021 C 
ATOM     23  C   UNL     1      33.006 -24.299 -13.634  0.00  0.00    +0.100 C 
ENDBRANCH  13  16
ENDBRANCH   1  13
TORSDOF 3
ENDMDL
MODEL 4
REMARK VINA RESULT:     -11.2      1.267      1.901
REMARK  Name = 100472
REMARK  3 active torsions:
REMARK  status: ('A' for Active; 'I' for Inactive)
REMARK    1  A    between atoms: C_1  and  C_13
REMARK    2  A    between atoms: C_2  and  C_7
REMARK    3  A    between atoms: C_13  and  C_16
REMARK                            x       y       z     vdW  Elec       q    Type
REMARK                         _______ _______ _______ _____ _____    ______ ____
ROOT
ATOM      1  C   UNL     1      34.635 -21.209 -19.818  0.00  0.00    -0.013 C 
ATOM      2  C   UNL     1      34.633 -18.776 -21.185  0.00  0.00    -0.000 C 
ATOM      3  C   UNL     1      33.427 -20.624 -20.201  0.00  0.00    -0.004 C 
ATOM      4  C   UNL     1      35.842 -20.576 -20.119  0.00  0.00    -0.004 C 
ATOM      5  C   UNL     1      33.426 -19.409 -20.885  0.00  0.00    -0.000 C 
ATOM      6  C   UNL     1      35.841 -19.360 -20.803  0.00  0.00    -0.000 C 
ENDROOT
BRANCH   2   7
ATOM      7  C   UNL     1      34.632 -17.514 -21.894  0.00  0.00    -0.000 C 
ATOM      8  C   UNL     1      34.837 -17.488 -23.273  0.00  0.00    -0.000 C 
ATOM      9  C   UNL     1      34.425 -16.324 -21.197  0.00  0.00    -0.000 C 
ATOM     10  C   UNL     1      34.836 -16.272 -23.956  0.00  0.00    +0.000 C 
ATOM     11  C   UNL     1      34.423 -15.107 -21.879  0.00  0.00    +0.000 C 
ATOM     12  C   UNL     1      34.629 -15.082 -23.259  0.00  0.00    +0.000 C 
ENDBRANCH   2   7
BRANCH   1  13
ATOM     13  C   UNL     1      34.636 -22.509 -19.088  0.00  0.00    +0.112 C 
BRANCH  13  16
ATOM     14  O   UNL     1      32.331 -22.341 -18.405  0.00  0.00    -0.274 OA
ATOM     15  N   UNL     1      33.910 -23.226 -16.909  0.00  0.00    -0.269 N 
ATOM     16  C   UNL     1      33.475 -22.672 -18.111  0.00  0.00    +0.232 C 
ATOM     17  H   UNL     1      34.872 -23.431 -16.847  0.00  0.00    +0.156 HD
ATOM     18  N   UNL     1      33.757 -24.063 -14.703  0.00  0.00    -0.229 NA
ATOM     19  C   UNL     1      33.132 -23.527 -15.766  0.00  0.00    +0.134 C 
ATOM     20  C   UNL     1      31.784 -23.247 -15.839  0.00  0.00    +0.034 C 
ATOM     21  C   UNL     1      31.011 -23.541 -14.722  0.00  0.00    +0.004 C 
ATOM     22  C   UNL     1      31.608 -24.096 -13.596  0.00  0.00    +0.021 C 
ATOM     23  C   UNL     1      32.972 -24.336 -13.637  0.00  0.00    +0.100 C 
ENDBRANCH  13  16
ENDBRANCH   1  13
TORSDOF 3
ENDMDL
MODEL 5
REMARK VINA RESULT:     -11.2      5.115      9.680
REMARK  Name = 100472
REMARK  3 active torsions:
REMARK  status: ('A' for Active; 'I' for Inactive)
REMARK    1  A    between atoms: C_1  and  C_13
REMARK    2  A    between atoms: C_2  and  C_7
REMARK    3  A    between atoms: C_13  and  C_16
REMARK                            x       y       z     vdW  Elec       q    Type
REMARK                         _______ _______ _______ _____ _____    ______ ____
ROOT
ATOM      1  C   UNL     1      34.637 -16.441 -23.237  0.00  0.00    -0.013 C 
ATOM      2  C   UNL     1      34.827 -18.680 -21.582  0.00  0.00    -0.000 C 
ATOM      3  C   UNL     1      34.824 -16.280 -21.863  0.00  0.00    -0.004 C 
ATOM      4  C   UNL     1      34.545 -17.722 -23.782  0.00  0.00    -0.004 C 
ATOM      5  C   UNL     1      34.920 -17.399 -21.036  0.00  0.00    -0.000 C 
ATOM      6  C   UNL     1      34.640 -18.841 -22.955  0.00  0.00    -0.000 C 
ENDROOT
BRANCH   2   7
ATOM      7  C   UNL     1      34.925 -19.841 -20.724  0.00  0.00    -0.000 C 
ATOM      8  C   UNL     1      36.175 -20.298 -20.308  0.00  0.00    -0.000 C 
ATOM      9  C   UNL     1      33.768 -20.502 -20.312  0.00  0.00    -0.000 C 
ATOM     10  C   UNL     1      36.270 -21.416 -19.481  0.00  0.00    +0.000 C 
ATOM     11  C   UNL     1      33.862 -21.621 -19.484  0.00  0.00    +0.000 C 
ATOM     12  C   UNL     1      35.113 -22.077 -19.069  0.00  0.00    +0.000 C 
ENDBRANCH   2   7
BRANCH   1  13
ATOM     13  C   UNL     1      34.536 -15.245 -24.121  0.00  0.00    +0.112 C 
BRANCH  13  16
ATOM     14  O   UNL     1      32.628 -14.400 -22.914  0.00  0.00    -0.274 OA
ATOM     15  N   UNL     1      34.109 -12.885 -23.927  0.00  0.00    -0.269 N 
ATOM     16  C   UNL     1      33.631 -14.144 -23.574  0.00  0.00    +0.232 C 
ATOM     17  H   UNL     1      34.935 -12.868 -24.464  0.00  0.00    +0.156 HD
ATOM     18  N   UNL     1      34.174 -10.524 -24.051  0.00  0.00    -0.229 NA
ATOM     19  C   UNL     1      33.546 -11.627 -23.605  0.00  0.00    +0.134 C 
ATOM     20  C   UNL     1      32.392 -11.635 -22.852  0.00  0.00    +0.034 C 
ATOM     21  C   UNL     1      31.832 -10.404 -22.530  0.00  0.00    +0.004 C 
ATOM     22  C   UNL     1      32.442  -9.233 -22.966  0.00  0.00    +0.021 C 
ATOM     23  C   UNL     1      33.601  -9.346 -23.716  0.00  0.00    +0.100 C 
ENDBRANCH  13  16
ENDBRANCH   1  13
TORSDOF 3
ENDMDL
MODEL 6
REMARK VINA RESULT:     -11.0      2.284      2.972
REMARK  Name = 100472
REMARK  3 active torsions:
REMARK  status: ('A' for Active; 'I' for Inactive)
REMARK    1  A    between atoms: C_1  and  C_13
REMARK    2  A    between atoms: C_2  and  C_7
REMARK    3  A    between atoms: C_13  and  C_16
REMARK                            x       y       z     vdW  Elec       q    Type
REMARK                         _______ _______ _______ _____ _____    ______ ____
ROOT
ATOM      1  C   UNL     1      33.987 -21.661 -19.370  0.00  0.00    -0.013 C 
ATOM      2  C   UNL     1      34.383 -19.518 -21.112  0.00  0.00    -0.000 C 
ATOM      3  C   UNL     1      35.267 -21.376 -19.846  0.00  0.00    -0.004 C 
ATOM      4  C   UNL     1      32.905 -20.875 -19.766  0.00  0.00    -0.004 C 
ATOM      5  C   UNL     1      35.465 -20.305 -20.716  0.00  0.00    -0.000 C 
ATOM      6  C   UNL     1      33.103 -19.803 -20.636  0.00  0.00    -0.000 C 
ENDROOT
BRANCH   2   7
ATOM      7  C   UNL     1      34.588 -18.407 -22.016  0.00  0.00    -0.000 C 
ATOM      8  C   UNL     1      34.615 -17.103 -21.524  0.00  0.00    -0.000 C 
ATOM      9  C   UNL     1      34.758 -18.641 -23.380  0.00  0.00    -0.000 C 
ATOM     10  C   UNL     1      34.814 -16.032 -22.395  0.00  0.00    +0.000 C 
ATOM     11  C   UNL     1      34.957 -17.571 -24.253  0.00  0.00    +0.000 C 
ATOM     12  C   UNL     1      34.985 -16.266 -23.759  0.00  0.00    +0.000 C 
ENDBRANCH   2   7
BRANCH   1  13
ATOM     13  C   UNL     1      33.775 -22.807 -18.438  0.00  0.00    +0.112 C 
BRANCH  13  16
ATOM     14  O   UNL     1      35.906 -22.446 -17.371  0.00  0.00    -0.274 OA
ATOM     15  N   UNL     1      34.133 -23.348 -16.122  0.00  0.00    -0.269 N 
ATOM     16  C   UNL     1      34.748 -22.837 -17.262  0.00  0.00    +0.232 C 
ATOM     17  H   UNL     1      33.190 -23.615 -16.218  0.00  0.00    +0.156 HD
ATOM     18  N   UNL     1      33.931 -24.045 -13.871  0.00  0.00    -0.229 NA
ATOM     19  C   UNL     1      34.707 -23.531 -14.841  0.00  0.00    +0.134 C 
ATOM     20  C   UNL     1      36.026 -23.160 -14.691  0.00  0.00    +0.034 C 
ATOM     21  C   UNL     1      36.599 -23.334 -13.436  0.00  0.00    +0.004 C 
ATOM     22  C   UNL     1      35.839 -23.862 -12.398  0.00  0.00    +0.021 C 
ATOM     23  C   UNL     1      34.521 -24.198 -12.665  0.00  0.00    +0.100 C 
ENDBRANCH  13  16
ENDBRANCH   1  13
TORSDOF 3
ENDMDL
MODEL 7
REMARK VINA RESULT:     -10.9      5.548     10.188
REMARK  Name = 100472
REMARK  3 active torsions:
REMARK  status: ('A' for Active; 'I' for Inactive)
REMARK    1  A    between atoms: C_1  and  C_13
REMARK    2  A    between atoms: C_2  and  C_7
REMARK    3  A    between atoms: C_13  and  C_16
REMARK                            x       y       z     vdW  Elec       q    Type
REMARK                         _______ _______ _______ _____ _____    ______ ____
ROOT
ATOM      1  C   UNL     1      34.348 -15.655 -23.838  0.00  0.00    -0.013 C 
ATOM      2  C   UNL     1      34.673 -17.865 -22.166  0.00  0.00    -0.000 C 
ATOM      3  C   UNL     1      34.411 -15.481 -22.455  0.00  0.00    -0.004 C 
ATOM      4  C   UNL     1      34.448 -16.935 -24.385  0.00  0.00    -0.004 C 
ATOM      5  C   UNL     1      34.573 -16.586 -21.620  0.00  0.00    -0.000 C 
ATOM      6  C   UNL     1      34.611 -18.040 -23.549  0.00  0.00    -0.000 C 
ENDROOT
BRANCH   2   7
ATOM      7  C   UNL     1      34.841 -19.012 -21.300  0.00  0.00    -0.000 C 
ATOM      8  C   UNL     1      33.724 -19.702 -20.831  0.00  0.00    -0.000 C 
ATOM      9  C   UNL     1      36.121 -19.426 -20.933  0.00  0.00    -0.000 C 
ATOM     10  C   UNL     1      33.886 -20.808 -19.996  0.00  0.00    +0.000 C 
ATOM     11  C   UNL     1      36.284 -20.532 -20.098  0.00  0.00    +0.000 C 
ATOM     12  C   UNL     1      35.165 -21.222 -19.630  0.00  0.00    +0.000 C 
ENDBRANCH   2   7
BRANCH   1  13
ATOM     13  C   UNL     1      34.175 -14.474 -24.732  0.00  0.00    +0.112 C 
BRANCH  13  16
ATOM     14  O   UNL     1      32.401 -13.433 -23.476  0.00  0.00    -0.274 OA
ATOM     15  N   UNL     1      34.188 -12.118 -24.245  0.00  0.00    -0.269 N 
ATOM     16  C   UNL     1      33.465 -13.296 -24.070  0.00  0.00    +0.232 C 
ATOM     17  H   UNL     1      35.028 -12.194 -24.753  0.00  0.00    +0.156 HD
ATOM     18  N   UNL     1      34.700  -9.817 -24.059  0.00  0.00    -0.229 NA
ATOM     19  C   UNL     1      33.856 -10.824 -23.777  0.00  0.00    +0.134 C 
ATOM     20  C   UNL     1      32.683 -10.702 -23.062  0.00  0.00    +0.034 C 
ATOM     21  C   UNL     1      32.348  -9.436 -22.598  0.00  0.00    +0.004 C 
ATOM     22  C   UNL     1      33.188  -8.359 -22.862  0.00  0.00    +0.021 C 
ATOM     23  C   UNL     1      34.342  -8.601 -23.590  0.00  0.00    +0.100 C 
ENDBRANCH  13  16
ENDBRANCH   1  13
TORSDOF 3
ENDMDL
MODEL 8
REMARK VINA RESULT:     -10.8      3.207      5.807
REMARK  Name = 100472
REMARK  3 active torsions:
REMARK  status: ('A' for Active; 'I' for Inactive)
REMARK    1  A    between atoms: C_1  and  C_13
REMARK    2  A    between atoms: C_2  and  C_7
REMARK    3  A    between atoms: C_13  and  C_16
REMARK                            x       y       z     vdW  Elec       q    Type
REMARK                         _______ _______ _______ _____ _____    ______ ____
ROOT
ATOM      1  C   UNL     1      34.549 -16.301 -22.813  0.00  0.00    -0.013 C 
ATOM      2  C   UNL     1      33.117 -14.093 -21.885  0.00  0.00    -0.000 C 
ATOM      3  C   UNL     1      33.881 -15.472 -23.716  0.00  0.00    -0.004 C 
ATOM      4  C   UNL     1      34.501 -16.025 -21.447  0.00  0.00    -0.004 C 
ATOM      5  C   UNL     1      33.165 -14.369 -23.251  0.00  0.00    -0.000 C 
ATOM      6  C   UNL     1      33.786 -14.921 -20.983  0.00  0.00    -0.000 C 
ENDROOT
BRANCH   2   7
ATOM      7  C   UNL     1      32.374 -12.949 -21.403  0.00  0.00    -0.000 C 
ATOM      8  C   UNL     1      32.277 -12.706 -20.033  0.00  0.00    -0.000 C 
ATOM      9  C   UNL     1      31.755 -12.088 -22.309  0.00  0.00    -0.000 C 
ATOM     10  C   UNL     1      31.562 -11.603 -19.569  0.00  0.00    +0.000 C 
ATOM     11  C   UNL     1      31.039 -10.984 -21.845  0.00  0.00    +0.000 C 
ATOM     12  C   UNL     1      30.943 -10.742 -20.474  0.00  0.00    +0.000 C 
ENDBRANCH   2   7
BRANCH   1  13
ATOM     13  C   UNL     1      35.314 -17.480 -23.310  0.00  0.00    +0.112 C 
BRANCH  13  16
ATOM     14  O   UNL     1      36.887 -18.555 -21.832  0.00  0.00    -0.274 OA
ATOM     15  N   UNL     1      34.623 -19.176 -21.749  0.00  0.00    -0.269 N 
ATOM     16  C   UNL     1      35.724 -18.460 -22.213  0.00  0.00    +0.232 C 
ATOM     17  H   UNL     1      33.759 -18.968 -22.172  0.00  0.00    +0.156 HD
ATOM     18  N   UNL     1      33.422 -20.740 -20.444  0.00  0.00    -0.229 NA
ATOM     19  C   UNL     1      34.602 -20.168 -20.741  0.00  0.00    +0.134 C 
ATOM     20  C   UNL     1      35.805 -20.469 -20.138  0.00  0.00    +0.034 C 
ATOM     21  C   UNL     1      35.795 -21.442 -19.145  0.00  0.00    +0.004 C 
ATOM     22  C   UNL     1      34.600 -22.064 -18.801  0.00  0.00    +0.021 C 
ATOM     23  C   UNL     1      33.452 -21.680 -19.474  0.00  0.00    +0.100 C 
ENDBRANCH  13  16
ENDBRANCH   1  13
TORSDOF 3
ENDMDL
MODEL 9
REMARK VINA RESULT:     -10.5      3.303      5.620
REMARK  Name = 100472
REMARK  3 active torsions:
REMARK  status: ('A' for Active; 'I' for Inactive)
REMARK    1  A    between atoms: C_1  and  C_13
REMARK    2  A    between atoms: C_2  and  C_7
REMARK    3  A    between atoms: C_13  and  C_16
REMARK                            x       y       z     vdW  Elec       q    Type
REMARK                         _______ _______ _______ _____ _____    ______ ____
ROOT
ATOM      1  C   UNL     1      34.940 -16.682 -22.778  0.00  0.00    -0.013 C 
ATOM      2  C   UNL     1      33.686 -14.191 -22.704  0.00  0.00    -0.000 C 
ATOM      3  C   UNL     1      34.485 -16.094 -23.959  0.00  0.00    -0.004 C 
ATOM      4  C   UNL     1      34.767 -16.024 -21.561  0.00  0.00    -0.004 C 
ATOM      5  C   UNL     1      33.858 -14.849 -23.922  0.00  0.00    -0.000 C 
ATOM      6  C   UNL     1      34.141 -14.778 -21.523  0.00  0.00    -0.000 C 
ENDROOT
BRANCH   2   7
ATOM      7  C   UNL     1      33.035 -12.899 -22.665  0.00  0.00    -0.000 C 
ATOM      8  C   UNL     1      31.980 -12.675 -21.781  0.00  0.00    -0.000 C 
ATOM      9  C   UNL     1      33.463 -11.878 -23.513  0.00  0.00    -0.000 C 
ATOM     10  C   UNL     1      31.353 -11.430 -21.743  0.00  0.00    +0.000 C 
ATOM     11  C   UNL     1      32.836 -10.631 -23.476  0.00  0.00    +0.000 C 
ATOM     12  C   UNL     1      31.781 -10.409 -22.590  0.00  0.00    +0.000 C 
ENDBRANCH   2   7
BRANCH   1  13
ATOM     13  C   UNL     1      35.611 -18.013 -22.818  0.00  0.00    +0.112 C 
BRANCH  13  16
ATOM     14  O   UNL     1      33.774 -19.418 -22.135  0.00  0.00    -0.274 OA
ATOM     15  N   UNL     1      35.813 -19.549 -20.977  0.00  0.00    -0.269 N 
ATOM     16  C   UNL     1      34.937 -19.073 -21.950  0.00  0.00    +0.232 C 
ATOM     17  H   UNL     1      36.716 -19.155 -20.974  0.00  0.00    +0.156 HD
ATOM     18  N   UNL     1      36.550 -20.846 -19.142  0.00  0.00    -0.229 NA
ATOM     19  C   UNL     1      35.556 -20.531 -19.991  0.00  0.00    +0.134 C 
ATOM     20  C   UNL     1      34.297 -21.092 -19.984  0.00  0.00    +0.034 C 
ATOM     21  C   UNL     1      34.035 -22.059 -19.020  0.00  0.00    +0.004 C 
ATOM     22  C   UNL     1      35.029 -22.421 -18.118  0.00  0.00    +0.021 C 
ATOM     23  C   UNL     1      36.259 -21.791 -18.220  0.00  0.00    +0.100 C 
ENDBRANCH  13  16
ENDBRANCH   1  13
TORSDOF 3
ENDMDL
