MODEL 1
REMARK VINA RESULT:     -11.2      0.000      0.000
REMARK  Name = 18376177
REMARK  11 active torsions:
REMARK  status: ('A' for Active; 'I' for Inactive)
REMARK    1  A    between atoms: N_1  and  S_2
REMARK    2  A    between atoms: N_1  and  C_11
REMARK    3  A    between atoms: N_1  and  C_23
REMARK    4  A    between atoms: S_2  and  C_6
REMARK    5  A    between atoms: C_11  and  C_12
REMARK    6  A    between atoms: C_15  and  N_18
REMARK    7  A    between atoms: C_23  and  C_24
REMARK    8  A    between atoms: C_27  and  O_30
REMARK    9  A    between atoms: O_30  and  C_31
REMARK   10  A    between atoms: C_31  and  C_33
REMARK   11  A    between atoms: C_33  and  O_34
REMARK                            x       y       z     vdW  Elec       q    Type
REMARK                         _______ _______ _______ _____ _____    ______ ____
ROOT
ATOM      1  N   UNL     1      33.376 -23.215 -15.384  0.00  0.00    -0.147 NA
ENDROOT
BRANCH   1   2
ATOM      2  S   UNL     1      32.161 -23.991 -14.438  0.00  0.00    +0.065 S 
ATOM      3  O   UNL     1      31.955 -23.245 -13.210  0.00  0.00    -0.153 OA
ATOM      4  O   UNL     1      32.437 -25.414 -14.371  0.00  0.00    -0.153 OA
BRANCH   2   6
ATOM      5  N   UNL     1      29.406 -22.395 -16.919  0.00  0.00    -0.241 NA
ATOM      6  C   UNL     1      30.708 -23.784 -15.429  0.00  0.00    +0.141 C 
ATOM      7  C   UNL     1      29.749 -24.787 -15.513  0.00  0.00    +0.023 C 
ATOM      8  C   UNL     1      30.491 -22.618 -16.145  0.00  0.00    +0.119 C 
ATOM      9  C   UNL     1      28.619 -24.597 -16.299  0.00  0.00    +0.022 C 
ATOM     10  C   UNL     1      28.495 -23.393 -16.977  0.00  0.00    +0.099 C 
ENDBRANCH   2   6
ENDBRANCH   1   2
BRANCH   1  11
ATOM     11  C   UNL     1      33.770 -23.852 -16.666  0.00  0.00    +0.122 C 
BRANCH  11  12
ATOM     12  C   UNL     1      34.128 -22.842 -17.719  0.00  0.00    -0.004 C 
ATOM     13  C   UNL     1      33.136 -22.316 -18.546  0.00  0.00    -0.002 C 
ATOM     14  C   UNL     1      35.452 -22.429 -17.869  0.00  0.00    -0.002 C 
ATOM     15  C   UNL     1      34.793 -20.967 -19.676  0.00  0.00    +0.074 C 
ATOM     16  C   UNL     1      33.469 -21.379 -19.525  0.00  0.00    +0.016 C 
ATOM     17  C   UNL     1      35.784 -21.492 -18.847  0.00  0.00    +0.016 C 
BRANCH  15  18
ATOM     18  N   UNL     1      35.121 -20.037 -20.644  0.00  0.00    -0.189 N 
ATOM     19  N   UNL     1      36.286 -19.369 -20.579  0.00  0.00    -0.172 NA
ATOM     20  C   UNL     1      34.354 -19.704 -21.722  0.00  0.00    +0.091 C 
ATOM     21  C   UNL     1      35.066 -18.752 -22.409  0.00  0.00    +0.040 C 
ATOM     22  C   UNL     1      36.245 -18.585 -21.661  0.00  0.00    +0.120 C 
ENDBRANCH  15  18
ENDBRANCH  11  12
ENDBRANCH   1  11
BRANCH   1  23
ATOM     23  C   UNL     1      34.542 -22.632 -14.672  0.00  0.00    +0.123 C 
BRANCH  23  24
ATOM     24  C   UNL     1      35.365 -23.679 -13.976  0.00  0.00    -0.001 C 
ATOM     25  C   UNL     1      36.312 -24.412 -14.692  0.00  0.00    +0.034 C 
ATOM     26  C   UNL     1      35.183 -23.918 -12.614  0.00  0.00    -0.003 C 
ATOM     27  C   UNL     1      37.075 -25.384 -14.046  0.00  0.00    +0.139 C 
ATOM     28  C   UNL     1      35.946 -24.889 -11.968  0.00  0.00    +0.003 C 
ATOM     29  C   UNL     1      36.894 -25.622 -12.684  0.00  0.00    +0.037 C 
BRANCH  27  30
ATOM     30  O   UNL     1      37.997 -26.101 -14.744  0.00  0.00    -0.464 OA
BRANCH  30  31
ATOM     31  C   UNL     1      39.277 -26.280 -14.138  0.00  0.00    +0.314 C 
BRANCH  31  33
ATOM     32  O   UNL     1      41.000 -24.591 -14.418  0.00  0.00    -0.246 OA
ATOM     33  C   UNL     1      40.310 -25.484 -14.885  0.00  0.00    +0.359 C 
BRANCH  33  34
ATOM     34  O   UNL     1      40.377 -25.899 -16.175  0.00  0.00    -0.478 OA
ATOM     35  H   UNL     1      40.346 -25.272 -16.872  0.00  0.00    +0.295 HD
ENDBRANCH  33  34
ENDBRANCH  31  33
ENDBRANCH  30  31
ENDBRANCH  27  30
ENDBRANCH  23  24
ENDBRANCH   1  23
TORSDOF 11
ENDMDL
MODEL 2
REMARK VINA RESULT:     -10.6      2.543      6.971
REMARK  Name = 18376177
REMARK  11 active torsions:
REMARK  status: ('A' for Active; 'I' for Inactive)
REMARK    1  A    between atoms: N_1  and  S_2
REMARK    2  A    between atoms: N_1  and  C_11
REMARK    3  A    between atoms: N_1  and  C_23
REMARK    4  A    between atoms: S_2  and  C_6
REMARK    5  A    between atoms: C_11  and  C_12
REMARK    6  A    between atoms: C_15  and  N_18
REMARK    7  A    between atoms: C_23  and  C_24
REMARK    8  A    between atoms: C_27  and  O_30
REMARK    9  A    between atoms: O_30  and  C_31
REMARK   10  A    between atoms: C_31  and  C_33
REMARK   11  A    between atoms: C_33  and  O_34
REMARK                            x       y       z     vdW  Elec       q    Type
REMARK                         _______ _______ _______ _____ _____    ______ ____
ROOT
ATOM      1  N   UNL     1      34.239 -23.708 -15.555  0.00  0.00    -0.147 NA
ENDROOT
BRANCH   1   2
ATOM      2  S   UNL     1      35.905 -23.531 -15.151  0.00  0.00    +0.065 S 
ATOM      3  O   UNL     1      36.324 -22.166 -15.411  0.00  0.00    -0.153 OA
ATOM      4  O   UNL     1      36.661 -24.631 -15.724  0.00  0.00    -0.153 OA
BRANCH   2   6
ATOM      5  N   UNL     1      34.924 -24.802 -11.448  0.00  0.00    -0.241 NA
ATOM      6  C   UNL     1      35.903 -23.755 -13.394  0.00  0.00    +0.141 C 
ATOM      7  C   UNL     1      36.827 -23.101 -12.588  0.00  0.00    +0.023 C 
ATOM      8  C   UNL     1      34.980 -24.587 -12.781  0.00  0.00    +0.119 C 
ATOM      9  C   UNL     1      36.802 -23.297 -11.212  0.00  0.00    +0.022 C 
ATOM     10  C   UNL     1      35.838 -24.150 -10.695  0.00  0.00    +0.099 C 
ENDBRANCH   2   6
ENDBRANCH   1   2
BRANCH   1  11
ATOM     11  C   UNL     1      33.899 -24.083 -16.951  0.00  0.00    +0.122 C 
BRANCH  11  12
ATOM     12  C   UNL     1      34.150 -22.962 -17.919  0.00  0.00    -0.004 C 
ATOM     13  C   UNL     1      35.453 -22.533 -18.166  0.00  0.00    -0.002 C 
ATOM     14  C   UNL     1      33.079 -22.349 -18.571  0.00  0.00    -0.002 C 
ATOM     15  C   UNL     1      34.615 -20.877 -19.715  0.00  0.00    +0.074 C 
ATOM     16  C   UNL     1      35.686 -21.490 -19.064  0.00  0.00    +0.016 C 
ATOM     17  C   UNL     1      33.312 -21.308 -19.468  0.00  0.00    +0.016 C 
BRANCH  15  18
ATOM     18  N   UNL     1      34.847 -19.846 -20.606  0.00  0.00    -0.189 N 
ATOM     19  N   UNL     1      36.025 -19.199 -20.606  0.00  0.00    -0.172 NA
ATOM     20  C   UNL     1      33.965 -19.387 -21.540  0.00  0.00    +0.091 C 
ATOM     21  C   UNL     1      34.611 -18.369 -22.197  0.00  0.00    +0.040 C 
ATOM     22  C   UNL     1      35.874 -18.296 -21.581  0.00  0.00    +0.120 C 
ENDBRANCH  15  18
ENDBRANCH  11  12
ENDBRANCH   1  11
BRANCH   1  23
ATOM     23  C   UNL     1      33.282 -22.718 -14.998  0.00  0.00    +0.123 C 
BRANCH  23  24
ATOM     24  C   UNL     1      31.873 -23.239 -14.975  0.00  0.00    -0.001 C 
ATOM     25  C   UNL     1      30.819 -22.419 -15.380  0.00  0.00    +0.034 C 
ATOM     26  C   UNL     1      31.617 -24.543 -14.549  0.00  0.00    -0.003 C 
ATOM     27  C   UNL     1      29.511 -22.903 -15.359  0.00  0.00    +0.139 C 
ATOM     28  C   UNL     1      30.310 -25.027 -14.528  0.00  0.00    +0.003 C 
ATOM     29  C   UNL     1      29.256 -24.206 -14.934  0.00  0.00    +0.037 C 
BRANCH  27  30
ATOM     30  O   UNL     1      28.483 -22.103 -15.752  0.00  0.00    -0.464 OA
BRANCH  30  31
ATOM     31  C   UNL     1      27.736 -22.517 -16.895  0.00  0.00    +0.314 C 
BRANCH  31  33
ATOM     32  O   UNL     1      26.286 -20.826 -17.864  0.00  0.00    -0.246 OA
ATOM     33  C   UNL     1      26.491 -21.684 -17.019  0.00  0.00    +0.359 C 
BRANCH  33  34
ATOM     34  O   UNL     1      25.606 -22.020 -16.047  0.00  0.00    -0.478 OA
ATOM     35  H   UNL     1      24.921 -22.634 -16.228  0.00  0.00    +0.295 HD
ENDBRANCH  33  34
ENDBRANCH  31  33
ENDBRANCH  30  31
ENDBRANCH  27  30
ENDBRANCH  23  24
ENDBRANCH   1  23
TORSDOF 11
ENDMDL
MODEL 3
REMARK VINA RESULT:     -10.5      2.684      7.151
REMARK  Name = 18376177
REMARK  11 active torsions:
REMARK  status: ('A' for Active; 'I' for Inactive)
REMARK    1  A    between atoms: N_1  and  S_2
REMARK    2  A    between atoms: N_1  and  C_11
REMARK    3  A    between atoms: N_1  and  C_23
REMARK    4  A    between atoms: S_2  and  C_6
REMARK    5  A    between atoms: C_11  and  C_12
REMARK    6  A    between atoms: C_15  and  N_18
REMARK    7  A    between atoms: C_23  and  C_24
REMARK    8  A    between atoms: C_27  and  O_30
REMARK    9  A    between atoms: O_30  and  C_31
REMARK   10  A    between atoms: C_31  and  C_33
REMARK   11  A    between atoms: C_33  and  O_34
REMARK                            x       y       z     vdW  Elec       q    Type
REMARK                         _______ _______ _______ _____ _____    ______ ____
ROOT
ATOM      1  N   UNL     1      34.204 -24.236 -14.128  0.00  0.00    -0.147 NA
ENDROOT
BRANCH   1   2
ATOM      2  S   UNL     1      35.369 -24.135 -12.861  0.00  0.00    +0.065 S 
ATOM      3  O   UNL     1      34.938 -24.952 -11.741  0.00  0.00    -0.153 OA
ATOM      4  O   UNL     1      35.721 -22.745 -12.637  0.00  0.00    -0.153 OA
BRANCH   2   6
ATOM      5  N   UNL     1      37.958 -26.972 -14.103  0.00  0.00    -0.241 NA
ATOM      6  C   UNL     1      36.785 -24.926 -13.574  0.00  0.00    +0.141 C 
ATOM      7  C   UNL     1      37.808 -24.181 -14.148  0.00  0.00    +0.023 C 
ATOM      8  C   UNL     1      36.907 -26.306 -13.577  0.00  0.00    +0.119 C 
ATOM      9  C   UNL     1      38.907 -24.829 -14.700  0.00  0.00    +0.022 C 
ATOM     10  C   UNL     1      38.934 -26.215 -14.653  0.00  0.00    +0.099 C 
ENDBRANCH   2   6
ENDBRANCH   1   2
BRANCH   1  11
ATOM     11  C   UNL     1      34.639 -24.807 -15.428  0.00  0.00    +0.122 C 
BRANCH  11  12
ATOM     12  C   UNL     1      34.641 -23.784 -16.528  0.00  0.00    -0.004 C 
ATOM     13  C   UNL     1      33.560 -23.701 -17.405  0.00  0.00    -0.002 C 
ATOM     14  C   UNL     1      35.725 -22.917 -16.673  0.00  0.00    -0.002 C 
ATOM     15  C   UNL     1      34.646 -21.886 -18.573  0.00  0.00    +0.074 C 
ATOM     16  C   UNL     1      33.563 -22.752 -18.428  0.00  0.00    +0.016 C 
ATOM     17  C   UNL     1      35.727 -21.969 -17.695  0.00  0.00    +0.016 C 
BRANCH  15  18
ATOM     18  N   UNL     1      34.647 -20.945 -19.586  0.00  0.00    -0.189 N 
ATOM     19  N   UNL     1      35.800 -20.385 -19.993  0.00  0.00    -0.172 NA
ATOM     20  C   UNL     1      33.549 -20.497 -20.258  0.00  0.00    +0.091 C 
ATOM     21  C   UNL     1      34.013 -19.580 -21.168  0.00  0.00    +0.040 C 
ATOM     22  C   UNL     1      35.405 -19.551 -20.961  0.00  0.00    +0.120 C 
ENDBRANCH  15  18
ENDBRANCH  11  12
ENDBRANCH   1  11
BRANCH   1  23
ATOM     23  C   UNL     1      33.276 -23.090 -14.309  0.00  0.00    +0.123 C 
BRANCH  23  24
ATOM     24  C   UNL     1      31.856 -23.535 -14.516  0.00  0.00    -0.001 C 
ATOM     25  C   UNL     1      30.912 -22.643 -15.026  0.00  0.00    +0.034 C 
ATOM     26  C   UNL     1      31.481 -24.841 -14.200  0.00  0.00    -0.003 C 
ATOM     27  C   UNL     1      29.595 -23.057 -15.218  0.00  0.00    +0.139 C 
ATOM     28  C   UNL     1      30.163 -25.255 -14.392  0.00  0.00    +0.003 C 
ATOM     29  C   UNL     1      29.220 -24.362 -14.902  0.00  0.00    +0.037 C 
BRANCH  27  30
ATOM     30  O   UNL     1      28.673 -22.186 -15.713  0.00  0.00    -0.464 OA
BRANCH  30  31
ATOM     31  C   UNL     1      27.848 -22.649 -16.781  0.00  0.00    +0.314 C 
BRANCH  31  33
ATOM     32  O   UNL     1      26.534 -20.857 -17.763  0.00  0.00    -0.246 OA
ATOM     33  C   UNL     1      26.657 -21.745 -16.933  0.00  0.00    +0.359 C 
BRANCH  33  34
ATOM     34  O   UNL     1      25.715 -22.054 -16.007  0.00  0.00    -0.478 OA
ATOM     35  H   UNL     1      25.252 -22.867 -16.061  0.00  0.00    +0.295 HD
ENDBRANCH  33  34
ENDBRANCH  31  33
ENDBRANCH  30  31
ENDBRANCH  27  30
ENDBRANCH  23  24
ENDBRANCH   1  23
TORSDOF 11
ENDMDL
MODEL 4
REMARK VINA RESULT:     -10.2      1.584      2.119
REMARK  Name = 18376177
REMARK  11 active torsions:
REMARK  status: ('A' for Active; 'I' for Inactive)
REMARK    1  A    between atoms: N_1  and  S_2
REMARK    2  A    between atoms: N_1  and  C_11
REMARK    3  A    between atoms: N_1  and  C_23
REMARK    4  A    between atoms: S_2  and  C_6
REMARK    5  A    between atoms: C_11  and  C_12
REMARK    6  A    between atoms: C_15  and  N_18
REMARK    7  A    between atoms: C_23  and  C_24
REMARK    8  A    between atoms: C_27  and  O_30
REMARK    9  A    between atoms: O_30  and  C_31
REMARK   10  A    between atoms: C_31  and  C_33
REMARK   11  A    between atoms: C_33  and  O_34
REMARK                            x       y       z     vdW  Elec       q    Type
REMARK                         _______ _______ _______ _____ _____    ______ ____
ROOT
ATOM      1  N   UNL     1      33.132 -23.146 -15.849  0.00  0.00    -0.147 NA
ENDROOT
BRANCH   1   2
ATOM      2  S   UNL     1      31.976 -23.874 -14.798  0.00  0.00    +0.065 S 
ATOM      3  O   UNL     1      31.848 -23.076 -13.593  0.00  0.00    -0.153 OA
ATOM      4  O   UNL     1      32.250 -25.295 -14.688  0.00  0.00    -0.153 OA
BRANCH   2   6
ATOM      5  N   UNL     1      28.982 -22.292 -16.995  0.00  0.00    -0.241 NA
ATOM      6  C   UNL     1      30.465 -23.700 -15.706  0.00  0.00    +0.141 C 
ATOM      7  C   UNL     1      29.592 -24.771 -15.856  0.00  0.00    +0.023 C 
ATOM      8  C   UNL     1      30.117 -22.492 -16.290  0.00  0.00    +0.119 C 
ATOM      9  C   UNL     1      28.414 -24.605 -16.575  0.00  0.00    +0.022 C 
ATOM     10  C   UNL     1      28.157 -23.356 -17.120  0.00  0.00    +0.099 C 
ENDBRANCH   2   6
ENDBRANCH   1   2
BRANCH   1  11
ATOM     11  C   UNL     1      33.263 -23.692 -17.224  0.00  0.00    +0.122 C 
BRANCH  11  12
ATOM     12  C   UNL     1      33.719 -22.654 -18.209  0.00  0.00    -0.004 C 
ATOM     13  C   UNL     1      32.781 -21.872 -18.882  0.00  0.00    -0.002 C 
ATOM     14  C   UNL     1      35.081 -22.471 -18.450  0.00  0.00    -0.002 C 
ATOM     15  C   UNL     1      34.566 -20.727 -20.041  0.00  0.00    +0.074 C 
ATOM     16  C   UNL     1      33.205 -20.909 -19.799  0.00  0.00    +0.016 C 
ATOM     17  C   UNL     1      35.504 -21.508 -19.366  0.00  0.00    +0.016 C 
BRANCH  15  18
ATOM     18  N   UNL     1      34.986 -19.771 -20.947  0.00  0.00    -0.189 N 
ATOM     19  N   UNL     1      36.143 -19.114 -20.757  0.00  0.00    -0.172 NA
ATOM     20  C   UNL     1      34.321 -19.401 -22.079  0.00  0.00    +0.091 C 
ATOM     21  C   UNL     1      35.096 -18.434 -22.670  0.00  0.00    +0.040 C 
ATOM     22  C   UNL     1      36.204 -18.298 -21.814  0.00  0.00    +0.120 C 
ENDBRANCH  15  18
ENDBRANCH  11  12
ENDBRANCH   1  11
BRANCH   1  23
ATOM     23  C   UNL     1      34.449 -22.768 -15.275  0.00  0.00    +0.123 C 
BRANCH  23  24
ATOM     24  C   UNL     1      35.209 -23.959 -14.763  0.00  0.00    -0.001 C 
ATOM     25  C   UNL     1      35.447 -24.101 -13.396  0.00  0.00    +0.034 C 
ATOM     26  C   UNL     1      35.678 -24.924 -15.655  0.00  0.00    -0.003 C 
ATOM     27  C   UNL     1      36.152 -25.206 -12.921  0.00  0.00    +0.139 C 
ATOM     28  C   UNL     1      36.383 -26.029 -15.181  0.00  0.00    +0.003 C 
ATOM     29  C   UNL     1      36.620 -26.171 -13.813  0.00  0.00    +0.037 C 
BRANCH  27  30
ATOM     30  O   UNL     1      36.386 -25.343 -11.587  0.00  0.00    -0.464 OA
BRANCH  30  31
ATOM     31  C   UNL     1      36.578 -24.146 -10.834  0.00  0.00    +0.314 C 
BRANCH  31  33
ATOM     32  O   UNL     1      38.803 -23.847 -11.763  0.00  0.00    -0.246 OA
ATOM     33  C   UNL     1      37.738 -23.373 -11.394  0.00  0.00    +0.359 C 
BRANCH  33  34
ATOM     34  O   UNL     1      37.442 -22.050 -11.439  0.00  0.00    -0.478 OA
ATOM     35  H   UNL     1      36.664 -21.758 -11.871  0.00  0.00    +0.295 HD
ENDBRANCH  33  34
ENDBRANCH  31  33
ENDBRANCH  30  31
ENDBRANCH  27  30
ENDBRANCH  23  24
ENDBRANCH   1  23
TORSDOF 11
ENDMDL
MODEL 5
REMARK VINA RESULT:     -10.1      2.633      6.637
REMARK  Name = 18376177
REMARK  11 active torsions:
REMARK  status: ('A' for Active; 'I' for Inactive)
REMARK    1  A    between atoms: N_1  and  S_2
REMARK    2  A    between atoms: N_1  and  C_11
REMARK    3  A    between atoms: N_1  and  C_23
REMARK    4  A    between atoms: S_2  and  C_6
REMARK    5  A    between atoms: C_11  and  C_12
REMARK    6  A    between atoms: C_15  and  N_18
REMARK    7  A    between atoms: C_23  and  C_24
REMARK    8  A    between atoms: C_27  and  O_30
REMARK    9  A    between atoms: O_30  and  C_31
REMARK   10  A    between atoms: C_31  and  C_33
REMARK   11  A    between atoms: C_33  and  O_34
REMARK                            x       y       z     vdW  Elec       q    Type
REMARK                         _______ _______ _______ _____ _____    ______ ____
ROOT
ATOM      1  N   UNL     1      34.396 -23.290 -16.664  0.00  0.00    -0.147 NA
ENDROOT
BRANCH   1   2
ATOM      2  S   UNL     1      35.945 -22.879 -16.027  0.00  0.00    +0.065 S 
ATOM      3  O   UNL     1      35.781 -21.985 -14.896  0.00  0.00    -0.153 OA
ATOM      4  O   UNL     1      36.829 -22.500 -17.114  0.00  0.00    -0.153 OA
BRANCH   2   6
ATOM      5  N   UNL     1      36.134 -26.784 -15.023  0.00  0.00    -0.241 NA
ATOM      6  C   UNL     1      36.526 -24.428 -15.394  0.00  0.00    +0.141 C 
ATOM      7  C   UNL     1      37.773 -24.532 -14.789  0.00  0.00    +0.023 C 
ATOM      8  C   UNL     1      35.751 -25.573 -15.485  0.00  0.00    +0.119 C 
ATOM      9  C   UNL     1      38.203 -25.761 -14.302  0.00  0.00    +0.022 C 
ATOM     10  C   UNL     1      37.353 -26.847 -14.442  0.00  0.00    +0.099 C 
ENDBRANCH   2   6
ENDBRANCH   1   2
BRANCH   1  11
ATOM     11  C   UNL     1      34.304 -23.618 -18.109  0.00  0.00    +0.122 C 
BRANCH  11  12
ATOM     12  C   UNL     1      34.411 -22.396 -18.978  0.00  0.00    -0.004 C 
ATOM     13  C   UNL     1      33.267 -21.666 -19.297  0.00  0.00    -0.002 C 
ATOM     14  C   UNL     1      35.654 -21.993 -19.465  0.00  0.00    -0.002 C 
ATOM     15  C   UNL     1      34.608 -20.130 -20.593  0.00  0.00    +0.074 C 
ATOM     16  C   UNL     1      33.365 -20.533 -20.105  0.00  0.00    +0.016 C 
ATOM     17  C   UNL     1      35.753 -20.860 -20.273  0.00  0.00    +0.016 C 
BRANCH  15  18
ATOM     18  N   UNL     1      34.706 -19.006 -21.392  0.00  0.00    -0.189 N 
ATOM     19  N   UNL     1      34.511 -19.095 -22.719  0.00  0.00    -0.172 NA
ATOM     20  C   UNL     1      34.989 -17.744 -20.960  0.00  0.00    +0.091 C 
ATOM     21  C   UNL     1      34.981 -16.952 -22.082  0.00  0.00    +0.040 C 
ATOM     22  C   UNL     1      34.682 -17.836 -23.135  0.00  0.00    +0.120 C 
ENDBRANCH  15  18
ENDBRANCH  11  12
ENDBRANCH   1  11
BRANCH   1  23
ATOM     23  C   UNL     1      33.224 -22.506 -16.197  0.00  0.00    +0.123 C 
BRANCH  23  24
ATOM     24  C   UNL     1      32.213 -23.361 -15.488  0.00  0.00    -0.001 C 
ATOM     25  C   UNL     1      30.864 -23.282 -15.836  0.00  0.00    +0.034 C 
ATOM     26  C   UNL     1      32.622 -24.236 -14.480  0.00  0.00    -0.003 C 
ATOM     27  C   UNL     1      29.926 -24.076 -15.178  0.00  0.00    +0.139 C 
ATOM     28  C   UNL     1      31.683 -25.029 -13.822  0.00  0.00    +0.003 C 
ATOM     29  C   UNL     1      30.335 -24.950 -14.171  0.00  0.00    +0.037 C 
BRANCH  27  30
ATOM     30  O   UNL     1      28.610 -23.996 -15.516  0.00  0.00    -0.464 OA
BRANCH  30  31
ATOM     31  C   UNL     1      28.064 -22.691 -15.704  0.00  0.00    +0.314 C 
BRANCH  31  33
ATOM     32  O   UNL     1      27.493 -23.449 -17.940  0.00  0.00    -0.246 OA
ATOM     33  C   UNL     1      27.510 -22.566 -17.095  0.00  0.00    +0.359 C 
BRANCH  33  34
ATOM     34  O   UNL     1      27.020 -21.317 -17.294  0.00  0.00    -0.478 OA
ATOM     35  H   UNL     1      27.184 -20.872 -18.102  0.00  0.00    +0.295 HD
ENDBRANCH  33  34
ENDBRANCH  31  33
ENDBRANCH  30  31
ENDBRANCH  27  30
ENDBRANCH  23  24
ENDBRANCH   1  23
TORSDOF 11
ENDMDL
MODEL 6
REMARK VINA RESULT:      -9.6      1.183      1.565
REMARK  Name = 18376177
REMARK  11 active torsions:
REMARK  status: ('A' for Active; 'I' for Inactive)
REMARK    1  A    between atoms: N_1  and  S_2
REMARK    2  A    between atoms: N_1  and  C_11
REMARK    3  A    between atoms: N_1  and  C_23
REMARK    4  A    between atoms: S_2  and  C_6
REMARK    5  A    between atoms: C_11  and  C_12
REMARK    6  A    between atoms: C_15  and  N_18
REMARK    7  A    between atoms: C_23  and  C_24
REMARK    8  A    between atoms: C_27  and  O_30
REMARK    9  A    between atoms: O_30  and  C_31
REMARK   10  A    between atoms: C_31  and  C_33
REMARK   11  A    between atoms: C_33  and  O_34
REMARK                            x       y       z     vdW  Elec       q    Type
REMARK                         _______ _______ _______ _____ _____    ______ ____
ROOT
ATOM      1  N   UNL     1      33.127 -23.535 -16.132  0.00  0.00    -0.147 NA
ENDROOT
BRANCH   1   2
ATOM      2  S   UNL     1      32.202 -23.566 -14.678  0.00  0.00    +0.065 S 
ATOM      3  O   UNL     1      32.423 -22.337 -13.938  0.00  0.00    -0.153 OA
ATOM      4  O   UNL     1      32.389 -24.842 -14.013  0.00  0.00    -0.153 OA
BRANCH   2   6
ATOM      5  N   UNL     1      28.695 -24.681 -16.338  0.00  0.00    -0.241 NA
ATOM      6  C   UNL     1      30.536 -23.526 -15.278  0.00  0.00    +0.141 C 
ATOM      7  C   UNL     1      29.767 -22.372 -15.181  0.00  0.00    +0.023 C 
ATOM      8  C   UNL     1      29.959 -24.644 -15.860  0.00  0.00    +0.119 C 
ATOM      9  C   UNL     1      28.462 -22.371 -15.661  0.00  0.00    +0.022 C 
ATOM     10  C   UNL     1      27.977 -23.541 -16.225  0.00  0.00    +0.099 C 
ENDBRANCH   2   6
ENDBRANCH   1   2
BRANCH   1  11
ATOM     11  C   UNL     1      32.406 -23.301 -17.409  0.00  0.00    +0.122 C 
BRANCH  11  12
ATOM     12  C   UNL     1      33.160 -22.384 -18.330  0.00  0.00    -0.004 C 
ATOM     13  C   UNL     1      32.473 -21.431 -19.080  0.00  0.00    -0.002 C 
ATOM     14  C   UNL     1      34.547 -22.486 -18.434  0.00  0.00    -0.002 C 
ATOM     15  C   UNL     1      34.560 -20.683 -20.042  0.00  0.00    +0.074 C 
ATOM     16  C   UNL     1      33.173 -20.580 -19.937  0.00  0.00    +0.016 C 
ATOM     17  C   UNL     1      35.247 -21.636 -19.290  0.00  0.00    +0.016 C 
BRANCH  15  18
ATOM     18  N   UNL     1      35.253 -19.839 -20.889  0.00  0.00    -0.189 N 
ATOM     19  N   UNL     1      36.483 -19.405 -20.561  0.00  0.00    -0.172 NA
ATOM     20  C   UNL     1      34.806 -19.373 -22.090  0.00  0.00    +0.091 C 
ATOM     21  C   UNL     1      35.812 -18.578 -22.582  0.00  0.00    +0.040 C 
ATOM     22  C   UNL     1      36.818 -18.634 -21.601  0.00  0.00    +0.120 C 
ENDBRANCH  15  18
ENDBRANCH  11  12
ENDBRANCH   1  11
BRANCH   1  23
ATOM     23  C   UNL     1      34.214 -24.536 -16.284  0.00  0.00    +0.123 C 
BRANCH  23  24
ATOM     24  C   UNL     1      35.410 -24.211 -15.434  0.00  0.00    -0.001 C 
ATOM     25  C   UNL     1      36.291 -25.223 -15.053  0.00  0.00    +0.034 C 
ATOM     26  C   UNL     1      35.640 -22.896 -15.027  0.00  0.00    -0.003 C 
ATOM     27  C   UNL     1      37.401 -24.921 -14.264  0.00  0.00    +0.139 C 
ATOM     28  C   UNL     1      36.749 -22.594 -14.238  0.00  0.00    +0.003 C 
ATOM     29  C   UNL     1      37.631 -23.607 -13.857  0.00  0.00    +0.037 C 
BRANCH  27  30
ATOM     30  O   UNL     1      38.259 -25.908 -13.890  0.00  0.00    -0.464 OA
BRANCH  30  31
ATOM     31  C   UNL     1      39.603 -25.526 -13.598  0.00  0.00    +0.314 C 
BRANCH  31  33
ATOM     32  O   UNL     1      40.509 -25.936 -15.814  0.00  0.00    -0.246 OA
ATOM     33  C   UNL     1      40.536 -26.132 -14.608  0.00  0.00    +0.359 C 
BRANCH  33  34
ATOM     34  O   UNL     1      41.431 -26.943 -13.991  0.00  0.00    -0.478 OA
ATOM     35  H   UNL     1      41.562 -26.879 -13.065  0.00  0.00    +0.295 HD
ENDBRANCH  33  34
ENDBRANCH  31  33
ENDBRANCH  30  31
ENDBRANCH  27  30
ENDBRANCH  23  24
ENDBRANCH   1  23
TORSDOF 11
ENDMDL
MODEL 7
REMARK VINA RESULT:      -9.5      5.576      9.217
REMARK  Name = 18376177
REMARK  11 active torsions:
REMARK  status: ('A' for Active; 'I' for Inactive)
REMARK    1  A    between atoms: N_1  and  S_2
REMARK    2  A    between atoms: N_1  and  C_11
REMARK    3  A    between atoms: N_1  and  C_23
REMARK    4  A    between atoms: S_2  and  C_6
REMARK    5  A    between atoms: C_11  and  C_12
REMARK    6  A    between atoms: C_15  and  N_18
REMARK    7  A    between atoms: C_23  and  C_24
REMARK    8  A    between atoms: C_27  and  O_30
REMARK    9  A    between atoms: O_30  and  C_31
REMARK   10  A    between atoms: C_31  and  C_33
REMARK   11  A    between atoms: C_33  and  O_34
REMARK                            x       y       z     vdW  Elec       q    Type
REMARK                         _______ _______ _______ _____ _____    ______ ____
ROOT
ATOM      1  N   UNL     1      34.274 -18.490 -21.931  0.00  0.00    -0.147 NA
ENDROOT
BRANCH   1   2
ATOM      2  S   UNL     1      35.220 -18.500 -23.372  0.00  0.00    +0.065 S 
ATOM      3  O   UNL     1      34.986 -19.737 -24.096  0.00  0.00    -0.153 OA
ATOM      4  O   UNL     1      36.581 -18.103 -23.059  0.00  0.00    -0.153 OA
BRANCH   2   6
ATOM      5  N   UNL     1      33.223 -16.505 -26.258  0.00  0.00    -0.241 NA
ATOM      6  C   UNL     1      34.495 -17.191 -24.319  0.00  0.00    +0.141 C 
ATOM      7  C   UNL     1      34.607 -15.867 -23.914  0.00  0.00    +0.023 C 
ATOM      8  C   UNL     1      33.800 -17.455 -25.489  0.00  0.00    +0.119 C 
ATOM      9  C   UNL     1      34.027 -14.860 -24.677  0.00  0.00    +0.022 C 
ATOM     10  C   UNL     1      33.352 -15.229 -25.831  0.00  0.00    +0.099 C 
ENDBRANCH   2   6
ENDBRANCH   1   2
BRANCH   1  11
ATOM     11  C   UNL     1      34.711 -17.609 -20.819  0.00  0.00    +0.122 C 
BRANCH  11  12
ATOM     12  C   UNL     1      34.009 -16.280 -20.835  0.00  0.00    -0.004 C 
ATOM     13  C   UNL     1      32.618 -16.229 -20.915  0.00  0.00    -0.002 C 
ATOM     14  C   UNL     1      34.748 -15.099 -20.771  0.00  0.00    -0.002 C 
ATOM     15  C   UNL     1      32.704 -13.814 -20.868  0.00  0.00    +0.074 C 
ATOM     16  C   UNL     1      31.965 -14.995 -20.932  0.00  0.00    +0.016 C 
ATOM     17  C   UNL     1      34.096 -13.867 -20.787  0.00  0.00    +0.016 C 
BRANCH  15  18
ATOM     18  N   UNL     1      32.057 -12.593 -20.883  0.00  0.00    -0.189 N 
ATOM     19  N   UNL     1      31.745 -12.002 -22.049  0.00  0.00    -0.172 NA
ATOM     20  C   UNL     1      31.675 -11.881 -19.784  0.00  0.00    +0.091 C 
ATOM     21  C   UNL     1      31.072 -10.745 -20.264  0.00  0.00    +0.040 C 
ATOM     22  C   UNL     1      31.143 -10.872 -21.664  0.00  0.00    +0.120 C 
ENDBRANCH  15  18
ENDBRANCH  11  12
ENDBRANCH   1  11
BRANCH   1  23
ATOM     23  C   UNL     1      33.751 -19.790 -21.436  0.00  0.00    +0.123 C 
BRANCH  23  24
ATOM     24  C   UNL     1      34.696 -20.454 -20.475  0.00  0.00    -0.001 C 
ATOM     25  C   UNL     1      34.205 -21.326 -19.503  0.00  0.00    +0.034 C 
ATOM     26  C   UNL     1      36.066 -20.199 -20.554  0.00  0.00    -0.003 C 
ATOM     27  C   UNL     1      35.083 -21.943 -18.612  0.00  0.00    +0.139 C 
ATOM     28  C   UNL     1      36.943 -20.815 -19.662  0.00  0.00    +0.003 C 
ATOM     29  C   UNL     1      36.452 -21.688 -18.691  0.00  0.00    +0.037 C 
BRANCH  27  30
ATOM     30  O   UNL     1      34.603 -22.792 -17.662  0.00  0.00    -0.464 OA
BRANCH  30  31
ATOM     31  C   UNL     1      33.354 -23.428 -17.929  0.00  0.00    +0.314 C 
BRANCH  31  33
ATOM     32  O   UNL     1      32.581 -23.525 -15.628  0.00  0.00    -0.246 OA
ATOM     33  C   UNL     1      32.405 -23.186 -16.789  0.00  0.00    +0.359 C 
BRANCH  33  34
ATOM     34  O   UNL     1      31.304 -22.526 -17.228  0.00  0.00    -0.478 OA
ATOM     35  H   UNL     1      30.871 -22.805 -18.011  0.00  0.00    +0.295 HD
ENDBRANCH  33  34
ENDBRANCH  31  33
ENDBRANCH  30  31
ENDBRANCH  27  30
ENDBRANCH  23  24
ENDBRANCH   1  23
TORSDOF 11
ENDMDL
MODEL 8
REMARK VINA RESULT:      -9.2      8.406     12.992
REMARK  Name = 18376177
REMARK  11 active torsions:
REMARK  status: ('A' for Active; 'I' for Inactive)
REMARK    1  A    between atoms: N_1  and  S_2
REMARK    2  A    between atoms: N_1  and  C_11
REMARK    3  A    between atoms: N_1  and  C_23
REMARK    4  A    between atoms: S_2  and  C_6
REMARK    5  A    between atoms: C_11  and  C_12
REMARK    6  A    between atoms: C_15  and  N_18
REMARK    7  A    between atoms: C_23  and  C_24
REMARK    8  A    between atoms: C_27  and  O_30
REMARK    9  A    between atoms: O_30  and  C_31
REMARK   10  A    between atoms: C_31  and  C_33
REMARK   11  A    between atoms: C_33  and  O_34
REMARK                            x       y       z     vdW  Elec       q    Type
REMARK                         _______ _______ _______ _____ _____    ______ ____
ROOT
ATOM      1  N   UNL     1      32.393 -12.282 -21.935  0.00  0.00    -0.147 NA
ENDROOT
BRANCH   1   2
ATOM      2  S   UNL     1      31.091 -11.153 -21.971  0.00  0.00    +0.065 S 
ATOM      3  O   UNL     1      30.088 -11.540 -20.996  0.00  0.00    -0.153 OA
ATOM      4  O   UNL     1      30.694 -10.917 -23.347  0.00  0.00    -0.153 OA
BRANCH   2   6
ATOM      5  N   UNL     1      32.438  -8.249 -19.513  0.00  0.00    -0.241 NA
ATOM      6  C   UNL     1      31.851  -9.667 -21.381  0.00  0.00    +0.141 C 
ATOM      7  C   UNL     1      32.443  -8.767 -22.260  0.00  0.00    +0.023 C 
ATOM      8  C   UNL     1      31.875  -9.364 -20.029  0.00  0.00    +0.119 C 
ATOM      9  C   UNL     1      33.033  -7.608 -21.768  0.00  0.00    +0.022 C 
ATOM     10  C   UNL     1      33.004  -7.398 -20.397  0.00  0.00    +0.099 C 
ENDBRANCH   2   6
ENDBRANCH   1   2
BRANCH   1  11
ATOM     11  C   UNL     1      32.808 -12.822 -20.615  0.00  0.00    +0.122 C 
BRANCH  11  12
ATOM     12  C   UNL     1      33.157 -14.282 -20.681  0.00  0.00    -0.004 C 
ATOM     13  C   UNL     1      34.492 -14.682 -20.623  0.00  0.00    -0.002 C 
ATOM     14  C   UNL     1      32.148 -15.237 -20.800  0.00  0.00    -0.002 C 
ATOM     15  C   UNL     1      33.807 -16.992 -20.806  0.00  0.00    +0.074 C 
ATOM     16  C   UNL     1      34.817 -16.037 -20.685  0.00  0.00    +0.016 C 
ATOM     17  C   UNL     1      32.472 -16.591 -20.863  0.00  0.00    +0.016 C 
BRANCH  15  18
ATOM     18  N   UNL     1      34.130 -18.335 -20.866  0.00  0.00    -0.189 N 
ATOM     19  N   UNL     1      35.416 -18.726 -20.892  0.00  0.00    -0.172 NA
ATOM     20  C   UNL     1      33.239 -19.367 -20.899  0.00  0.00    +0.091 C 
ATOM     21  C   UNL     1      33.994 -20.513 -20.953  0.00  0.00    +0.040 C 
ATOM     22  C   UNL     1      35.326 -20.058 -20.946  0.00  0.00    +0.120 C 
ENDBRANCH  15  18
ENDBRANCH  11  12
ENDBRANCH   1  11
BRANCH   1  23
ATOM     23  C   UNL     1      33.558 -12.025 -22.820  0.00  0.00    +0.123 C 
BRANCH  23  24
ATOM     24  C   UNL     1      33.477 -12.798 -24.106  0.00  0.00    -0.001 C 
ATOM     25  C   UNL     1      33.493 -14.192 -24.085  0.00  0.00    +0.034 C 
ATOM     26  C   UNL     1      33.386 -12.120 -25.323  0.00  0.00    -0.003 C 
ATOM     27  C   UNL     1      33.418 -14.909 -25.279  0.00  0.00    +0.139 C 
ATOM     28  C   UNL     1      33.310 -12.837 -26.517  0.00  0.00    +0.003 C 
ATOM     29  C   UNL     1      33.326 -14.232 -26.495  0.00  0.00    +0.037 C 
BRANCH  27  30
ATOM     30  O   UNL     1      33.436 -16.270 -25.259  0.00  0.00    -0.464 OA
BRANCH  30  31
ATOM     31  C   UNL     1      34.697 -16.906 -25.462  0.00  0.00    +0.314 C 
BRANCH  31  33
ATOM     32  O   UNL     1      34.290 -18.996 -24.292  0.00  0.00    -0.246 OA
ATOM     33  C   UNL     1      34.916 -17.952 -24.405  0.00  0.00    +0.359 C 
BRANCH  33  34
ATOM     34  O   UNL     1      35.921 -17.577 -23.576  0.00  0.00    -0.478 OA
ATOM     35  H   UNL     1      36.463 -18.226 -23.172  0.00  0.00    +0.295 HD
ENDBRANCH  33  34
ENDBRANCH  31  33
ENDBRANCH  30  31
ENDBRANCH  27  30
ENDBRANCH  23  24
ENDBRANCH   1  23
TORSDOF 11
ENDMDL
MODEL 9
REMARK VINA RESULT:      -9.1      1.861      2.556
REMARK  Name = 18376177
REMARK  11 active torsions:
REMARK  status: ('A' for Active; 'I' for Inactive)
REMARK    1  A    between atoms: N_1  and  S_2
REMARK    2  A    between atoms: N_1  and  C_11
REMARK    3  A    between atoms: N_1  and  C_23
REMARK    4  A    between atoms: S_2  and  C_6
REMARK    5  A    between atoms: C_11  and  C_12
REMARK    6  A    between atoms: C_15  and  N_18
REMARK    7  A    between atoms: C_23  and  C_24
REMARK    8  A    between atoms: C_27  and  O_30
REMARK    9  A    between atoms: O_30  and  C_31
REMARK   10  A    between atoms: C_31  and  C_33
REMARK   11  A    between atoms: C_33  and  O_34
REMARK                            x       y       z     vdW  Elec       q    Type
REMARK                         _______ _______ _______ _____ _____    ______ ____
ROOT
ATOM      1  N   UNL     1      34.905 -22.511 -16.989  0.00  0.00    -0.147 NA
ENDROOT
BRANCH   1   2
ATOM      2  S   UNL     1      33.976 -23.958 -17.109  0.00  0.00    +0.065 S 
ATOM      3  O   UNL     1      34.614 -25.008 -16.335  0.00  0.00    -0.153 OA
ATOM      4  O   UNL     1      33.639 -24.202 -18.500  0.00  0.00    -0.153 OA
BRANCH   2   6
ATOM      5  N   UNL     1      31.123 -23.636 -14.273  0.00  0.00    -0.241 NA
ATOM      6  C   UNL     1      32.476 -23.526 -16.273  0.00  0.00    +0.141 C 
ATOM      7  C   UNL     1      31.495 -22.771 -16.905  0.00  0.00    +0.023 C 
ATOM      8  C   UNL     1      32.243 -23.931 -14.968  0.00  0.00    +0.119 C 
ATOM      9  C   UNL     1      30.328 -22.447 -16.223  0.00  0.00    +0.022 C 
ATOM     10  C   UNL     1      30.191 -22.899 -14.920  0.00  0.00    +0.099 C 
ENDBRANCH   2   6
ENDBRANCH   1   2
BRANCH   1  11
ATOM     11  C   UNL     1      36.089 -22.370 -17.873  0.00  0.00    +0.122 C 
BRANCH  11  12
ATOM     12  C   UNL     1      35.849 -21.404 -18.999  0.00  0.00    -0.004 C 
ATOM     13  C   UNL     1      36.909 -20.660 -19.517  0.00  0.00    -0.002 C 
ATOM     14  C   UNL     1      34.566 -21.250 -19.525  0.00  0.00    -0.002 C 
ATOM     15  C   UNL     1      35.402 -19.607 -21.086  0.00  0.00    +0.074 C 
ATOM     16  C   UNL     1      36.685 -19.761 -20.561  0.00  0.00    +0.016 C 
ATOM     17  C   UNL     1      34.343 -20.352 -20.568  0.00  0.00    +0.016 C 
BRANCH  15  18
ATOM     18  N   UNL     1      35.182 -18.717 -22.121  0.00  0.00    -0.189 N 
ATOM     19  N   UNL     1      34.835 -19.165 -23.341  0.00  0.00    -0.172 NA
ATOM     20  C   UNL     1      35.279 -17.360 -22.039  0.00  0.00    +0.091 C 
ATOM     21  C   UNL     1      34.976 -16.886 -23.292  0.00  0.00    +0.040 C 
ATOM     22  C   UNL     1      34.711 -18.040 -24.052  0.00  0.00    +0.120 C 
ENDBRANCH  15  18
ENDBRANCH  11  12
ENDBRANCH   1  11
BRANCH   1  23
ATOM     23  C   UNL     1      35.156 -21.959 -15.633  0.00  0.00    +0.123 C 
BRANCH  23  24
ATOM     24  C   UNL     1      35.915 -22.918 -14.760  0.00  0.00    -0.001 C 
ATOM     25  C   UNL     1      37.233 -23.253 -15.072  0.00  0.00    +0.034 C 
ATOM     26  C   UNL     1      35.301 -23.474 -13.637  0.00  0.00    -0.003 C 
ATOM     27  C   UNL     1      37.937 -24.143 -14.261  0.00  0.00    +0.139 C 
ATOM     28  C   UNL     1      36.005 -24.364 -12.826  0.00  0.00    +0.003 C 
ATOM     29  C   UNL     1      37.324 -24.698 -13.138  0.00  0.00    +0.037 C 
BRANCH  27  30
ATOM     30  O   UNL     1      39.221 -24.471 -14.567  0.00  0.00    -0.464 OA
BRANCH  30  31
ATOM     31  C   UNL     1      39.856 -25.449 -13.744  0.00  0.00    +0.314 C 
BRANCH  31  33
ATOM     32  O   UNL     1      41.510 -27.177 -14.166  0.00  0.00    -0.246 OA
ATOM     33  C   UNL     1      40.738 -26.329 -14.585  0.00  0.00    +0.359 C 
BRANCH  33  34
ATOM     34  O   UNL     1      40.557 -26.050 -15.901  0.00  0.00    -0.478 OA
ATOM     35  H   UNL     1      40.188 -26.696 -16.471  0.00  0.00    +0.295 HD
ENDBRANCH  33  34
ENDBRANCH  31  33
ENDBRANCH  30  31
ENDBRANCH  27  30
ENDBRANCH  23  24
ENDBRANCH   1  23
TORSDOF 11
ENDMDL
