MODEL 1
REMARK VINA RESULT:     -10.4      0.000      0.000
REMARK  Name = 3883
REMARK  6 active torsions:
REMARK  status: ('A' for Active; 'I' for Inactive)
REMARK    1  A    between atoms: C_1  and  C_3
REMARK    2  A    between atoms: C_1  and  S_15
REMARK    3  A    between atoms: C_5  and  O_9
REMARK    4  A    between atoms: O_9  and  C_10
REMARK    5  A    between atoms: C_10  and  C_14
REMARK    6  A    between atoms: S_15  and  C_19
REMARK                            x       y       z     vdW  Elec       q    Type
REMARK                         _______ _______ _______ _____ _____    ______ ____
ROOT
ATOM      1  C   UNL     1      34.608 -14.462 -23.328  0.00  0.00    +0.140 C 
ENDROOT
BRANCH   1   3
ATOM      2  N   UNL     1      34.761 -16.607 -24.415  0.00  0.00    -0.247 NA
ATOM      3  C   UNL     1      34.695 -15.958 -23.234  0.00  0.00    +0.072 C 
ATOM      4  C   UNL     1      34.704 -16.575 -21.998  0.00  0.00    +0.027 C 
ATOM      5  C   UNL     1      34.787 -17.962 -21.971  0.00  0.00    +0.138 C 
ATOM      6  C   UNL     1      34.627 -15.791 -20.731  0.00  0.00    +0.035 C 
ATOM      7  C   UNL     1      34.858 -18.674 -23.163  0.00  0.00    +0.057 C 
ATOM      8  C   UNL     1      34.841 -17.955 -24.348  0.00  0.00    +0.102 C 
BRANCH   5   9
ATOM      9  O   UNL     1      34.801 -18.639 -20.788  0.00  0.00    -0.467 OA
BRANCH   9  10
ATOM     10  C   UNL     1      34.337 -19.988 -20.808  0.00  0.00    +0.308 C 
BRANCH  10  14
ATOM     11  F   UNL     1      32.160 -20.687 -21.355  0.00  0.00    -0.166 F 
ATOM     12  F   UNL     1      32.373 -18.764 -20.348  0.00  0.00    -0.166 F 
ATOM     13  F   UNL     1      32.690 -20.622 -19.241  0.00  0.00    -0.166 F 
ATOM     14  C   UNL     1      32.878 -20.013 -20.431  0.00  0.00    +0.438 C 
ENDBRANCH  10  14
ENDBRANCH   9  10
ENDBRANCH   5   9
ENDBRANCH   1   3
BRANCH   1  15
ATOM     15  S   UNL     1      32.927 -13.912 -23.723  0.00  0.00    +0.085 S 
ATOM     16  O   UNL     1      32.690 -14.234 -25.174  0.00  0.00    -0.252 OA
BRANCH  15  19
ATOM     17  N   UNL     1      34.263 -11.511 -24.236  0.00  0.00    -0.307 N 
ATOM     18  N   UNL     1      32.459 -11.318 -22.952  0.00  0.00    -0.307 N 
ATOM     19  C   UNL     1      33.222 -12.151 -23.624  0.00  0.00    +0.226 C 
ATOM     20  C   UNL     1      34.166 -10.176 -23.940  0.00  0.00    +0.060 C 
ATOM     21  C   UNL     1      33.033 -10.081 -23.137  0.00  0.00    +0.060 C 
ATOM     22  C   UNL     1      34.949  -9.076 -24.294  0.00  0.00    +0.016 C 
ATOM     23  C   UNL     1      32.643  -8.822 -22.650  0.00  0.00    +0.016 C 
ATOM     24  C   UNL     1      34.546  -7.831 -23.800  0.00  0.00    +0.001 C 
ATOM     25  C   UNL     1      33.413  -7.704 -22.992  0.00  0.00    +0.001 C 
ATOM     26  H   UNL     1      34.958 -11.933 -24.792  0.00  0.00    +0.149 HD
ATOM     27  H   UNL     1      31.654 -11.532 -22.428  0.00  0.00    +0.149 HD
ENDBRANCH  15  19
ENDBRANCH   1  15
TORSDOF 6
ENDMDL
MODEL 2
REMARK VINA RESULT:     -10.3      1.423      1.673
REMARK  Name = 3883
REMARK  6 active torsions:
REMARK  status: ('A' for Active; 'I' for Inactive)
REMARK    1  A    between atoms: C_1  and  C_3
REMARK    2  A    between atoms: C_1  and  S_15
REMARK    3  A    between atoms: C_5  and  O_9
REMARK    4  A    between atoms: O_9  and  C_10
REMARK    5  A    between atoms: C_10  and  C_14
REMARK    6  A    between atoms: S_15  and  C_19
REMARK                            x       y       z     vdW  Elec       q    Type
REMARK                         _______ _______ _______ _____ _____    ______ ____
ROOT
ATOM      1  C   UNL     1      34.635 -14.607 -23.280  0.00  0.00    +0.140 C 
ENDROOT
BRANCH   1   3
ATOM      2  N   UNL     1      34.751 -16.776 -24.324  0.00  0.00    -0.247 NA
ATOM      3  C   UNL     1      34.714 -16.101 -23.157  0.00  0.00    +0.072 C 
ATOM      4  C   UNL     1      34.745 -16.693 -21.907  0.00  0.00    +0.027 C 
ATOM      5  C   UNL     1      34.820 -18.080 -21.853  0.00  0.00    +0.138 C 
ATOM      6  C   UNL     1      34.700 -15.882 -20.656  0.00  0.00    +0.035 C 
ATOM      7  C   UNL     1      34.860 -18.816 -23.031  0.00  0.00    +0.057 C 
ATOM      8  C   UNL     1      34.823 -18.122 -24.230  0.00  0.00    +0.102 C 
BRANCH   5   9
ATOM      9  O   UNL     1      34.853 -18.731 -20.657  0.00  0.00    -0.467 OA
BRANCH   9  10
ATOM     10  C   UNL     1      34.692 -20.149 -20.686  0.00  0.00    +0.308 C 
BRANCH  10  14
ATOM     11  F   UNL     1      36.914 -19.920 -19.954  0.00  0.00    -0.166 F 
ATOM     12  F   UNL     1      36.311 -21.865 -20.738  0.00  0.00    -0.166 F 
ATOM     13  F   UNL     1      35.599 -21.204 -18.780  0.00  0.00    -0.166 F 
ATOM     14  C   UNL     1      35.887 -20.794 -20.033  0.00  0.00    +0.438 C 
ENDBRANCH  10  14
ENDBRANCH   9  10
ENDBRANCH   5   9
ENDBRANCH   1   3
BRANCH   1  15
ATOM     15  S   UNL     1      32.967 -14.060 -23.733  0.00  0.00    +0.085 S 
ATOM     16  O   UNL     1      32.773 -14.402 -25.185  0.00  0.00    -0.252 OA
BRANCH  15  19
ATOM     17  N   UNL     1      34.305 -11.664 -24.267  0.00  0.00    -0.307 N 
ATOM     18  N   UNL     1      32.500 -11.459 -22.986  0.00  0.00    -0.307 N 
ATOM     19  C   UNL     1      33.263 -12.298 -23.650  0.00  0.00    +0.226 C 
ATOM     20  C   UNL     1      34.208 -10.326 -23.983  0.00  0.00    +0.060 C 
ATOM     21  C   UNL     1      33.075 -10.224 -23.182  0.00  0.00    +0.060 C 
ATOM     22  C   UNL     1      34.992  -9.230 -24.345  0.00  0.00    +0.016 C 
ATOM     23  C   UNL     1      32.685  -8.961 -22.706  0.00  0.00    +0.016 C 
ATOM     24  C   UNL     1      34.589  -7.981 -23.863  0.00  0.00    +0.001 C 
ATOM     25  C   UNL     1      33.455  -7.846 -23.058  0.00  0.00    +0.001 C 
ATOM     26  H   UNL     1      35.000 -12.092 -24.818  0.00  0.00    +0.149 HD
ATOM     27  H   UNL     1      31.694 -11.668 -22.461  0.00  0.00    +0.149 HD
ENDBRANCH  15  19
ENDBRANCH   1  15
TORSDOF 6
ENDMDL
MODEL 3
REMARK VINA RESULT:     -10.0      2.997      4.351
REMARK  Name = 3883
REMARK  6 active torsions:
REMARK  status: ('A' for Active; 'I' for Inactive)
REMARK    1  A    between atoms: C_1  and  C_3
REMARK    2  A    between atoms: C_1  and  S_15
REMARK    3  A    between atoms: C_5  and  O_9
REMARK    4  A    between atoms: O_9  and  C_10
REMARK    5  A    between atoms: C_10  and  C_14
REMARK    6  A    between atoms: S_15  and  C_19
REMARK                            x       y       z     vdW  Elec       q    Type
REMARK                         _______ _______ _______ _____ _____    ______ ____
ROOT
ATOM      1  C   UNL     1      33.999 -17.598 -21.660  0.00  0.00    +0.140 C 
ENDROOT
BRANCH   1   3
ATOM      2  N   UNL     1      36.183 -18.435 -21.080  0.00  0.00    -0.247 NA
ATOM      3  C   UNL     1      34.859 -18.691 -21.096  0.00  0.00    +0.072 C 
ATOM      4  C   UNL     1      34.281 -19.860 -20.636  0.00  0.00    +0.027 C 
ATOM      5  C   UNL     1      35.124 -20.838 -20.123  0.00  0.00    +0.138 C 
ATOM      6  C   UNL     1      32.805 -20.074 -20.685  0.00  0.00    +0.035 C 
ATOM      7  C   UNL     1      36.497 -20.617 -20.087  0.00  0.00    +0.057 C 
ATOM      8  C   UNL     1      36.971 -19.410 -20.574  0.00  0.00    +0.102 C 
BRANCH   5   9
ATOM      9  O   UNL     1      34.625 -22.015 -19.652  0.00  0.00    -0.467 OA
BRANCH   9  10
ATOM     10  C   UNL     1      34.832 -22.300 -18.269  0.00  0.00    +0.308 C 
BRANCH  10  14
ATOM     11  F   UNL     1      33.432 -24.187 -18.205  0.00  0.00    -0.166 F 
ATOM     12  F   UNL     1      32.487 -22.229 -18.022  0.00  0.00    -0.166 F 
ATOM     13  F   UNL     1      33.655 -23.041 -16.363  0.00  0.00    -0.166 F 
ATOM     14  C   UNL     1      33.590 -22.941 -17.708  0.00  0.00    +0.438 C 
ENDBRANCH  10  14
ENDBRANCH   9  10
ENDBRANCH   5   9
ENDBRANCH   1   3
BRANCH   1  15
ATOM     15  S   UNL     1      34.599 -15.957 -21.175  0.00  0.00    +0.085 S 
ATOM     16  O   UNL     1      33.650 -15.434 -20.132  0.00  0.00    -0.252 OA
BRANCH  15  19
ATOM     17  N   UNL     1      33.767 -15.720 -23.833  0.00  0.00    -0.307 N 
ATOM     18  N   UNL     1      34.339 -13.805 -22.861  0.00  0.00    -0.307 N 
ATOM     19  C   UNL     1      34.218 -15.103 -22.699  0.00  0.00    +0.226 C 
ATOM     20  C   UNL     1      33.584 -14.754 -24.789  0.00  0.00    +0.060 C 
ATOM     21  C   UNL     1      33.948 -13.569 -24.159  0.00  0.00    +0.060 C 
ATOM     22  C   UNL     1      33.146 -14.816 -26.113  0.00  0.00    +0.016 C 
ATOM     23  C   UNL     1      33.876 -12.362 -24.876  0.00  0.00    +0.016 C 
ATOM     24  C   UNL     1      33.080 -13.605 -26.811  0.00  0.00    +0.001 C 
ATOM     25  C   UNL     1      33.438 -12.399 -26.205  0.00  0.00    +0.001 C 
ATOM     26  H   UNL     1      33.601 -16.684 -23.942  0.00  0.00    +0.149 HD
ATOM     27  H   UNL     1      34.644 -13.144 -22.198  0.00  0.00    +0.149 HD
ENDBRANCH  15  19
ENDBRANCH   1  15
TORSDOF 6
ENDMDL
MODEL 4
REMARK VINA RESULT:     -10.0      3.912      8.592
REMARK  Name = 3883
REMARK  6 active torsions:
REMARK  status: ('A' for Active; 'I' for Inactive)
REMARK    1  A    between atoms: C_1  and  C_3
REMARK    2  A    between atoms: C_1  and  S_15
REMARK    3  A    between atoms: C_5  and  O_9
REMARK    4  A    between atoms: O_9  and  C_10
REMARK    5  A    between atoms: C_10  and  C_14
REMARK    6  A    between atoms: S_15  and  C_19
REMARK                            x       y       z     vdW  Elec       q    Type
REMARK                         _______ _______ _______ _____ _____    ______ ____
ROOT
ATOM      1  C   UNL     1      34.845 -15.811 -21.495  0.00  0.00    +0.140 C 
ENDROOT
BRANCH   1   3
ATOM      2  N   UNL     1      34.577 -14.193 -23.261  0.00  0.00    -0.247 NA
ATOM      3  C   UNL     1      34.104 -14.644 -22.081  0.00  0.00    +0.072 C 
ATOM      4  C   UNL     1      33.016 -14.109 -21.416  0.00  0.00    +0.027 C 
ATOM      5  C   UNL     1      32.366 -13.032 -22.005  0.00  0.00    +0.138 C 
ATOM      6  C   UNL     1      32.548 -14.661 -20.111  0.00  0.00    +0.035 C 
ATOM      7  C   UNL     1      32.819 -12.533 -23.222  0.00  0.00    +0.057 C 
ATOM      8  C   UNL     1      33.919 -13.144 -23.803  0.00  0.00    +0.102 C 
BRANCH   5   9
ATOM      9  O   UNL     1      31.288 -12.453 -21.407  0.00  0.00    -0.467 OA
BRANCH   9  10
ATOM     10  C   UNL     1      31.324 -11.037 -21.235  0.00  0.00    +0.308 C 
BRANCH  10  14
ATOM     11  F   UNL     1      31.799 -11.826 -19.072  0.00  0.00    -0.166 F 
ATOM     12  F   UNL     1      30.276 -10.276 -19.263  0.00  0.00    -0.166 F 
ATOM     13  F   UNL     1      32.386  -9.780 -19.544  0.00  0.00    -0.166 F 
ATOM     14  C   UNL     1      31.446 -10.723 -19.767  0.00  0.00    +0.438 C 
ENDBRANCH  10  14
ENDBRANCH   9  10
ENDBRANCH   5   9
ENDBRANCH   1   3
BRANCH   1  15
ATOM     15  S   UNL     1      35.214 -17.067 -22.748  0.00  0.00    +0.085 S 
ATOM     16  O   UNL     1      34.069 -17.062 -23.725  0.00  0.00    -0.252 OA
BRANCH  15  19
ATOM     17  N   UNL     1      36.037 -19.229 -21.179  0.00  0.00    -0.307 N 
ATOM     18  N   UNL     1      33.834 -19.000 -21.368  0.00  0.00    -0.307 N 
ATOM     19  C   UNL     1      35.004 -18.508 -21.710  0.00  0.00    +0.226 C 
ATOM     20  C   UNL     1      35.498 -20.253 -20.444  0.00  0.00    +0.060 C 
ATOM     21  C   UNL     1      34.123 -20.089 -20.578  0.00  0.00    +0.060 C 
ATOM     22  C   UNL     1      36.079 -21.280 -19.697  0.00  0.00    +0.016 C 
ATOM     23  C   UNL     1      33.260 -20.993 -19.935  0.00  0.00    +0.016 C 
ATOM     24  C   UNL     1      35.204 -22.169 -19.064  0.00  0.00    +0.001 C 
ATOM     25  C   UNL     1      33.819 -22.030 -19.179  0.00  0.00    +0.001 C 
ATOM     26  H   UNL     1      36.997 -19.044 -21.300  0.00  0.00    +0.149 HD
ATOM     27  H   UNL     1      32.945 -18.664 -21.622  0.00  0.00    +0.149 HD
ENDBRANCH  15  19
ENDBRANCH   1  15
TORSDOF 6
ENDMDL
MODEL 5
REMARK VINA RESULT:     -10.0      2.075      2.650
REMARK  Name = 3883
REMARK  6 active torsions:
REMARK  status: ('A' for Active; 'I' for Inactive)
REMARK    1  A    between atoms: C_1  and  C_3
REMARK    2  A    between atoms: C_1  and  S_15
REMARK    3  A    between atoms: C_5  and  O_9
REMARK    4  A    between atoms: O_9  and  C_10
REMARK    5  A    between atoms: C_10  and  C_14
REMARK    6  A    between atoms: S_15  and  C_19
REMARK                            x       y       z     vdW  Elec       q    Type
REMARK                         _______ _______ _______ _____ _____    ______ ____
ROOT
ATOM      1  C   UNL     1      34.519 -14.687 -23.375  0.00  0.00    +0.140 C 
ENDROOT
BRANCH   1   3
ATOM      2  N   UNL     1      34.715 -16.873 -24.370  0.00  0.00    -0.247 NA
ATOM      3  C   UNL     1      34.671 -16.172 -23.219  0.00  0.00    +0.072 C 
ATOM      4  C   UNL     1      34.757 -16.730 -21.957  0.00  0.00    +0.027 C 
ATOM      5  C   UNL     1      34.898 -18.110 -21.870  0.00  0.00    +0.138 C 
ATOM      6  C   UNL     1      34.700 -15.891 -20.724  0.00  0.00    +0.035 C 
ATOM      7  C   UNL     1      34.949 -18.873 -23.032  0.00  0.00    +0.057 C 
ATOM      8  C   UNL     1      34.853 -18.212 -24.246  0.00  0.00    +0.102 C 
BRANCH   5   9
ATOM      9  O   UNL     1      34.989 -18.730 -20.661  0.00  0.00    -0.467 OA
BRANCH   9  10
ATOM     10  C   UNL     1      34.749 -20.136 -20.633  0.00  0.00    +0.308 C 
BRANCH  10  14
ATOM     11  F   UNL     1      36.308 -21.893 -20.715  0.00  0.00    -0.166 F 
ATOM     12  F   UNL     1      35.613 -21.259 -18.746  0.00  0.00    -0.166 F 
ATOM     13  F   UNL     1      36.983 -19.992 -19.886  0.00  0.00    -0.166 F 
ATOM     14  C   UNL     1      35.923 -20.823 -19.986  0.00  0.00    +0.438 C 
ENDBRANCH  10  14
ENDBRANCH   9  10
ENDBRANCH   5   9
ENDBRANCH   1   3
BRANCH   1  15
ATOM     15  S   UNL     1      32.880 -14.246 -24.013  0.00  0.00    +0.085 S 
ATOM     16  O   UNL     1      33.093 -13.569 -25.340  0.00  0.00    -0.252 OA
BRANCH  15  19
ATOM     17  N   UNL     1      32.559 -11.622 -23.104  0.00  0.00    -0.307 N 
ATOM     18  N   UNL     1      32.134 -13.192 -21.589  0.00  0.00    -0.307 N 
ATOM     19  C   UNL     1      32.502 -12.960 -22.829  0.00  0.00    +0.226 C 
ATOM     20  C   UNL     1      32.203 -10.946 -21.965  0.00  0.00    +0.060 C 
ATOM     21  C   UNL     1      31.944 -11.947 -21.035  0.00  0.00    +0.060 C 
ATOM     22  C   UNL     1      32.092  -9.584 -21.678  0.00  0.00    +0.016 C 
ATOM     23  C   UNL     1      31.548 -11.588 -19.735  0.00  0.00    +0.016 C 
ATOM     24  C   UNL     1      31.696  -9.245 -20.380  0.00  0.00    +0.001 C 
ATOM     25  C   UNL     1      31.428 -10.228 -19.424  0.00  0.00    +0.001 C 
ATOM     26  H   UNL     1      32.808 -11.216 -23.966  0.00  0.00    +0.149 HD
ATOM     27  H   UNL     1      32.021 -14.066 -21.151  0.00  0.00    +0.149 HD
ENDBRANCH  15  19
ENDBRANCH   1  15
TORSDOF 6
ENDMDL
MODEL 6
REMARK VINA RESULT:     -10.0      3.594      5.441
REMARK  Name = 3883
REMARK  6 active torsions:
REMARK  status: ('A' for Active; 'I' for Inactive)
REMARK    1  A    between atoms: C_1  and  C_3
REMARK    2  A    between atoms: C_1  and  S_15
REMARK    3  A    between atoms: C_5  and  O_9
REMARK    4  A    between atoms: O_9  and  C_10
REMARK    5  A    between atoms: C_10  and  C_14
REMARK    6  A    between atoms: S_15  and  C_19
REMARK                            x       y       z     vdW  Elec       q    Type
REMARK                         _______ _______ _______ _____ _____    ______ ____
ROOT
ATOM      1  C   UNL     1      34.719 -19.153 -21.977  0.00  0.00    +0.140 C 
ENDROOT
BRANCH   1   3
ATOM      2  N   UNL     1      36.113 -20.491 -20.538  0.00  0.00    -0.247 NA
ATOM      3  C   UNL     1      34.849 -20.154 -20.866  0.00  0.00    +0.072 C 
ATOM      4  C   UNL     1      33.718 -20.662 -20.254  0.00  0.00    +0.027 C 
ATOM      5  C   UNL     1      33.898 -21.583 -19.230  0.00  0.00    +0.138 C 
ATOM      6  C   UNL     1      32.348 -20.242 -20.671  0.00  0.00    +0.035 C 
ATOM      7  C   UNL     1      35.184 -21.960 -18.858  0.00  0.00    +0.057 C 
ATOM      8  C   UNL     1      36.248 -21.390 -19.537  0.00  0.00    +0.102 C 
BRANCH   5   9
ATOM      9  O   UNL     1      32.830 -22.126 -18.582  0.00  0.00    -0.467 OA
BRANCH   9  10
ATOM     10  C   UNL     1      33.106 -23.123 -17.599  0.00  0.00    +0.308 C 
BRANCH  10  14
ATOM     11  F   UNL     1      31.011 -22.283 -16.940  0.00  0.00    -0.166 F 
ATOM     12  F   UNL     1      32.476 -22.672 -15.370  0.00  0.00    -0.166 F 
ATOM     13  F   UNL     1      31.487 -24.338 -16.385  0.00  0.00    -0.166 F 
ATOM     14  C   UNL     1      32.013 -23.107 -16.562  0.00  0.00    +0.438 C 
ENDBRANCH  10  14
ENDBRANCH   9  10
ENDBRANCH   5   9
ENDBRANCH   1   3
BRANCH   1  15
ATOM     15  S   UNL     1      35.758 -17.695 -21.691  0.00  0.00    +0.085 S 
ATOM     16  O   UNL     1      35.410 -17.170 -20.325  0.00  0.00    -0.252 OA
BRANCH  15  19
ATOM     17  N   UNL     1      34.743 -15.280 -22.665  0.00  0.00    -0.307 N 
ATOM     18  N   UNL     1      34.566 -16.997 -24.065  0.00  0.00    -0.307 N 
ATOM     19  C   UNL     1      34.979 -16.609 -22.879  0.00  0.00    +0.226 C 
ATOM     20  C   UNL     1      34.137 -14.777 -23.788  0.00  0.00    +0.060 C 
ATOM     21  C   UNL     1      34.037 -15.867 -24.645  0.00  0.00    +0.060 C 
ATOM     22  C   UNL     1      33.680 -13.499 -24.115  0.00  0.00    +0.016 C 
ATOM     23  C   UNL     1      33.451 -15.692 -25.910  0.00  0.00    +0.016 C 
ATOM     24  C   UNL     1      33.100 -13.343 -25.378  0.00  0.00    +0.001 C 
ATOM     25  C   UNL     1      32.986 -14.419 -26.262  0.00  0.00    +0.001 C 
ATOM     26  H   UNL     1      34.969 -14.774 -21.851  0.00  0.00    +0.149 HD
ATOM     27  H   UNL     1      34.620 -17.900 -24.452  0.00  0.00    +0.149 HD
ENDBRANCH  15  19
ENDBRANCH   1  15
TORSDOF 6
ENDMDL
MODEL 7
REMARK VINA RESULT:      -9.9      5.585     10.692
REMARK  Name = 3883
REMARK  6 active torsions:
REMARK  status: ('A' for Active; 'I' for Inactive)
REMARK    1  A    between atoms: C_1  and  C_3
REMARK    2  A    between atoms: C_1  and  S_15
REMARK    3  A    between atoms: C_5  and  O_9
REMARK    4  A    between atoms: O_9  and  C_10
REMARK    5  A    between atoms: C_10  and  C_14
REMARK    6  A    between atoms: S_15  and  C_19
REMARK                            x       y       z     vdW  Elec       q    Type
REMARK                         _______ _______ _______ _____ _____    ______ ____
ROOT
ATOM      1  C   UNL     1      33.460 -21.400 -19.546  0.00  0.00    +0.140 C 
ENDROOT
BRANCH   1   3
ATOM      2  N   UNL     1      35.718 -20.636 -19.902  0.00  0.00    -0.247 NA
ATOM      3  C   UNL     1      34.415 -20.434 -20.186  0.00  0.00    +0.072 C 
ATOM      4  C   UNL     1      33.937 -19.426 -21.002  0.00  0.00    +0.027 C 
ATOM      5  C   UNL     1      34.866 -18.561 -21.570  0.00  0.00    +0.138 C 
ATOM      6  C   UNL     1      32.479 -19.262 -21.272  0.00  0.00    +0.035 C 
ATOM      7  C   UNL     1      36.221 -18.732 -21.305  0.00  0.00    +0.057 C 
ATOM      8  C   UNL     1      36.591 -19.775 -20.472  0.00  0.00    +0.102 C 
BRANCH   5   9
ATOM      9  O   UNL     1      34.469 -17.545 -22.385  0.00  0.00    -0.467 OA
BRANCH   9  10
ATOM     10  C   UNL     1      35.056 -16.264 -22.158  0.00  0.00    +0.308 C 
BRANCH  10  14
ATOM     11  F   UNL     1      34.208 -14.204 -21.409  0.00  0.00    -0.166 F 
ATOM     12  F   UNL     1      34.770 -15.669 -19.893  0.00  0.00    -0.166 F 
ATOM     13  F   UNL     1      32.970 -15.972 -21.095  0.00  0.00    -0.166 F 
ATOM     14  C   UNL     1      34.243 -15.525 -21.127  0.00  0.00    +0.438 C 
ENDBRANCH  10  14
ENDBRANCH   9  10
ENDBRANCH   5   9
ENDBRANCH   1   3
BRANCH   1  15
ATOM     15  S   UNL     1      34.329 -22.813 -18.814  0.00  0.00    +0.085 S 
ATOM     16  O   UNL     1      34.130 -23.979 -19.743  0.00  0.00    -0.252 OA
BRANCH  15  19
ATOM     17  N   UNL     1      33.649 -23.496 -16.189  0.00  0.00    -0.307 N 
ATOM     18  N   UNL     1      31.939 -22.864 -17.460  0.00  0.00    -0.307 N 
ATOM     19  C   UNL     1      33.237 -23.068 -17.421  0.00  0.00    +0.226 C 
ATOM     20  C   UNL     1      32.545 -23.573 -15.381  0.00  0.00    +0.060 C 
ATOM     21  C   UNL     1      31.490 -23.174 -16.197  0.00  0.00    +0.060 C 
ATOM     22  C   UNL     1      32.382 -23.948 -14.047  0.00  0.00    +0.016 C 
ATOM     23  C   UNL     1      30.189 -23.140 -15.667  0.00  0.00    +0.016 C 
ATOM     24  C   UNL     1      31.080 -23.908 -13.536  0.00  0.00    +0.001 C 
ATOM     25  C   UNL     1      30.002 -23.511 -14.330  0.00  0.00    +0.001 C 
ATOM     26  H   UNL     1      34.575 -23.709 -15.930  0.00  0.00    +0.149 HD
ATOM     27  H   UNL     1      31.404 -22.557 -18.227  0.00  0.00    +0.149 HD
ENDBRANCH  15  19
ENDBRANCH   1  15
TORSDOF 6
ENDMDL
MODEL 8
REMARK VINA RESULT:      -9.6      6.189     11.182
REMARK  Name = 3883
REMARK  6 active torsions:
REMARK  status: ('A' for Active; 'I' for Inactive)
REMARK    1  A    between atoms: C_1  and  C_3
REMARK    2  A    between atoms: C_1  and  S_15
REMARK    3  A    between atoms: C_5  and  O_9
REMARK    4  A    between atoms: O_9  and  C_10
REMARK    5  A    between atoms: C_10  and  C_14
REMARK    6  A    between atoms: S_15  and  C_19
REMARK                            x       y       z     vdW  Elec       q    Type
REMARK                         _______ _______ _______ _____ _____    ______ ____
ROOT
ATOM      1  C   UNL     1      34.164 -22.736 -18.659  0.00  0.00    +0.140 C 
ENDROOT
BRANCH   1   3
ATOM      2  N   UNL     1      36.278 -21.703 -19.182  0.00  0.00    -0.247 NA
ATOM      3  C   UNL     1      34.940 -21.651 -19.347  0.00  0.00    +0.072 C 
ATOM      4  C   UNL     1      34.278 -20.690 -20.088  0.00  0.00    +0.027 C 
ATOM      5  C   UNL     1      35.047 -19.710 -20.705  0.00  0.00    +0.138 C 
ATOM      6  C   UNL     1      32.793 -20.694 -20.228  0.00  0.00    +0.035 C 
ATOM      7  C   UNL     1      36.430 -19.724 -20.562  0.00  0.00    +0.057 C 
ATOM      8  C   UNL     1      36.991 -20.734 -19.797  0.00  0.00    +0.102 C 
BRANCH   5   9
ATOM      9  O   UNL     1      34.463 -18.730 -21.451  0.00  0.00    -0.467 OA
BRANCH   9  10
ATOM     10  C   UNL     1      35.254 -17.580 -21.743  0.00  0.00    +0.308 C 
BRANCH  10  14
ATOM     11  F   UNL     1      35.003 -15.980 -20.039  0.00  0.00    -0.166 F 
ATOM     12  F   UNL     1      33.210 -16.574 -21.131  0.00  0.00    -0.166 F 
ATOM     13  F   UNL     1      34.711 -15.310 -22.093  0.00  0.00    -0.166 F 
ATOM     14  C   UNL     1      34.536 -16.350 -21.251  0.00  0.00    +0.438 C 
ENDBRANCH  10  14
ENDBRANCH   9  10
ENDBRANCH   5   9
ENDBRANCH   1   3
BRANCH   1  15
ATOM     15  S   UNL     1      34.379 -22.674 -16.860  0.00  0.00    +0.085 S 
ATOM     16  O   UNL     1      35.278 -23.821 -16.485  0.00  0.00    -0.252 OA
BRANCH  15  19
ATOM     17  N   UNL     1      31.587 -22.663 -17.003  0.00  0.00    -0.307 N 
ATOM     18  N   UNL     1      32.435 -24.010 -15.452  0.00  0.00    -0.307 N 
ATOM     19  C   UNL     1      32.716 -23.149 -16.404  0.00  0.00    +0.226 C 
ATOM     20  C   UNL     1      30.506 -23.250 -16.397  0.00  0.00    +0.060 C 
ATOM     21  C   UNL     1      31.061 -24.085 -15.433  0.00  0.00    +0.060 C 
ATOM     22  C   UNL     1      29.131 -23.123 -16.603  0.00  0.00    +0.016 C 
ATOM     23  C   UNL     1      30.210 -24.848 -14.616  0.00  0.00    +0.016 C 
ATOM     24  C   UNL     1      28.299 -23.891 -15.781  0.00  0.00    +0.001 C 
ATOM     25  C   UNL     1      28.827 -24.739 -14.805  0.00  0.00    +0.001 C 
ATOM     26  H   UNL     1      31.556 -22.010 -17.740  0.00  0.00    +0.149 HD
ATOM     27  H   UNL     1      33.069 -24.494 -14.876  0.00  0.00    +0.149 HD
ENDBRANCH  15  19
ENDBRANCH   1  15
TORSDOF 6
ENDMDL
MODEL 9
REMARK VINA RESULT:      -9.5      5.138      9.212
REMARK  Name = 3883
REMARK  6 active torsions:
REMARK  status: ('A' for Active; 'I' for Inactive)
REMARK    1  A    between atoms: C_1  and  C_3
REMARK    2  A    between atoms: C_1  and  S_15
REMARK    3  A    between atoms: C_5  and  O_9
REMARK    4  A    between atoms: O_9  and  C_10
REMARK    5  A    between atoms: C_10  and  C_14
REMARK    6  A    between atoms: S_15  and  C_19
REMARK                            x       y       z     vdW  Elec       q    Type
REMARK                         _______ _______ _______ _____ _____    ______ ____
ROOT
ATOM      1  C   UNL     1      32.763 -12.845 -23.280  0.00  0.00    +0.140 C 
ENDROOT
BRANCH   1   3
ATOM      2  N   UNL     1      34.061 -10.948 -24.003  0.00  0.00    -0.247 NA
ATOM      3  C   UNL     1      33.004 -11.363 -23.276  0.00  0.00    +0.072 C 
ATOM      4  C   UNL     1      32.169 -10.527 -22.559  0.00  0.00    +0.027 C 
ATOM      5  C   UNL     1      32.438  -9.164 -22.592  0.00  0.00    +0.138 C 
ATOM      6  C   UNL     1      31.016 -11.058 -21.775  0.00  0.00    +0.035 C 
ATOM      7  C   UNL     1      33.518  -8.691 -23.329  0.00  0.00    +0.057 C 
ATOM      8  C   UNL     1      34.291  -9.616 -24.011  0.00  0.00    +0.102 C 
BRANCH   5   9
ATOM      9  O   UNL     1      31.657  -8.280 -21.909  0.00  0.00    -0.467 OA
BRANCH   9  10
ATOM     10  C   UNL     1      31.218  -7.122 -22.617  0.00  0.00    +0.308 C 
BRANCH  10  14
ATOM     11  F   UNL     1      32.091  -4.946 -22.439  0.00  0.00    -0.166 F 
ATOM     12  F   UNL     1      32.165  -6.207 -20.659  0.00  0.00    -0.166 F 
ATOM     13  F   UNL     1      30.258  -5.384 -21.341  0.00  0.00    -0.166 F 
ATOM     14  C   UNL     1      31.433  -5.907 -21.753  0.00  0.00    +0.438 C 
ENDBRANCH  10  14
ENDBRANCH   9  10
ENDBRANCH   5   9
ENDBRANCH   1   3
BRANCH   1  15
ATOM     15  S   UNL     1      33.598 -13.655 -24.670  0.00  0.00    +0.085 S 
ATOM     16  O   UNL     1      32.531 -14.053 -25.652  0.00  0.00    -0.252 OA
BRANCH  15  19
ATOM     17  N   UNL     1      34.247 -16.363 -24.415  0.00  0.00    -0.307 N 
ATOM     18  N   UNL     1      34.365 -15.194 -22.528  0.00  0.00    -0.307 N 
ATOM     19  C   UNL     1      34.097 -15.144 -23.814  0.00  0.00    +0.226 C 
ATOM     20  C   UNL     1      34.637 -17.258 -23.453  0.00  0.00    +0.060 C 
ATOM     21  C   UNL     1      34.703 -16.506 -22.285  0.00  0.00    +0.060 C 
ATOM     22  C   UNL     1      34.928 -18.623 -23.504  0.00  0.00    +0.016 C 
ATOM     23  C   UNL     1      35.080 -17.134 -21.086  0.00  0.00    +0.016 C 
ATOM     24  C   UNL     1      35.302 -19.231 -22.301  0.00  0.00    +0.001 C 
ATOM     25  C   UNL     1      35.378 -18.502 -21.113  0.00  0.00    +0.001 C 
ATOM     26  H   UNL     1      34.102 -16.560 -25.369  0.00  0.00    +0.149 HD
ATOM     27  H   UNL     1      34.329 -14.455 -21.879  0.00  0.00    +0.149 HD
ENDBRANCH  15  19
ENDBRANCH   1  15
TORSDOF 6
ENDMDL
