MODEL 1
REMARK VINA RESULT:      -7.8      0.000      0.000
REMARK  Name = 1616
REMARK  2 active torsions:
REMARK  status: ('A' for Active; 'I' for Inactive)
REMARK    1  A    between atoms: C_7  and  N_15
REMARK    2  A    between atoms: C_10  and  N_18
REMARK                            x       y       z     vdW  Elec       q    Type
REMARK                         _______ _______ _______ _____ _____    ______ ____
ROOT
ATOM      1  O   UNL     1      34.871 -16.942 -25.761  0.00  0.00    -0.266 OA
ATOM      2  O   UNL     1      35.028 -16.502 -20.448  0.00  0.00    -0.266 OA
ATOM      3  N   UNL     1      35.631 -17.650 -23.745  0.00  0.00    -0.263 N 
ATOM      4  N   UNL     1      35.678 -17.545 -22.379  0.00  0.00    -0.263 N 
ATOM      5  C   UNL     1      34.109 -15.764 -23.850  0.00  0.00    +0.075 A 
ATOM      6  C   UNL     1      34.158 -15.657 -22.459  0.00  0.00    +0.064 A 
ATOM      7  C   UNL     1      33.324 -14.874 -24.592  0.00  0.00    +0.048 C 
ATOM      8  C   UNL     1      33.421 -14.660 -21.809  0.00  0.00    +0.019 C 
ATOM      9  C   UNL     1      34.883 -16.812 -24.540  0.00  0.00    +0.273 A 
ATOM     10  C   UNL     1      32.640 -13.775 -22.552  0.00  0.00    +0.043 C 
ATOM     11  C   UNL     1      34.983 -16.592 -21.672  0.00  0.00    +0.272 A 
ATOM     12  C   UNL     1      32.591 -13.881 -23.941  0.00  0.00    +0.028 C 
ATOM     13  H   UNL     1      36.158 -18.359 -24.178  0.00  0.00    +0.190 HD
ATOM     14  H   UNL     1      36.237 -18.184 -21.879  0.00  0.00    +0.190 HD
ENDROOT
BRANCH   7  15
ATOM     15  N   UNL     1      33.226 -14.922 -26.002  0.00  0.00    -0.357 N 
ATOM     16  H   UNL     1      33.242 -14.088 -26.526  0.00  0.00    +0.142 HD
ATOM     17  H   UNL     1      33.141 -15.789 -26.460  0.00  0.00    +0.142 HD
ENDBRANCH   7  15
BRANCH  10  18
ATOM     18  N   UNL     1      31.897 -12.769 -21.898  0.00  0.00    -0.357 N 
ATOM     19  H   UNL     1      32.207 -11.834 -21.922  0.00  0.00    +0.142 HD
ATOM     20  H   UNL     1      31.070 -13.002 -21.417  0.00  0.00    +0.142 HD
ENDBRANCH  10  18
TORSDOF 2
ENDMDL
MODEL 2
REMARK VINA RESULT:      -7.7      1.934      3.931
REMARK  Name = 1616
REMARK  2 active torsions:
REMARK  status: ('A' for Active; 'I' for Inactive)
REMARK    1  A    between atoms: C_7  and  N_15
REMARK    2  A    between atoms: C_10  and  N_18
REMARK                            x       y       z     vdW  Elec       q    Type
REMARK                         _______ _______ _______ _____ _____    ______ ____
ROOT
ATOM      1  O   UNL     1      34.004 -16.386 -25.561  0.00  0.00    -0.266 OA
ATOM      2  O   UNL     1      34.855 -14.770 -20.550  0.00  0.00    -0.266 OA
ATOM      3  N   UNL     1      34.093 -14.735 -24.010  0.00  0.00    -0.263 N 
ATOM      4  N   UNL     1      34.310 -14.309 -22.725  0.00  0.00    -0.263 N 
ATOM      5  C   UNL     1      34.584 -17.017 -23.350  0.00  0.00    +0.075 A 
ATOM      6  C   UNL     1      34.803 -16.584 -22.042  0.00  0.00    +0.064 A 
ATOM      7  C   UNL     1      34.719 -18.373 -23.670  0.00  0.00    +0.048 C 
ATOM      8  C   UNL     1      35.160 -17.506 -21.051  0.00  0.00    +0.019 C 
ATOM      9  C   UNL     1      34.208 -16.049 -24.398  0.00  0.00    +0.273 A 
ATOM     10  C   UNL     1      35.294 -18.857 -21.373  0.00  0.00    +0.043 C 
ATOM     11  C   UNL     1      34.662 -15.156 -21.700  0.00  0.00    +0.272 A 
ATOM     12  C   UNL     1      35.074 -19.290 -22.680  0.00  0.00    +0.028 C 
ATOM     13  H   UNL     1      33.844 -14.067 -24.688  0.00  0.00    +0.190 HD
ATOM     14  H   UNL     1      34.209 -13.350 -22.526  0.00  0.00    +0.190 HD
ENDROOT
BRANCH   7  15
ATOM     15  N   UNL     1      34.513 -18.884 -24.972  0.00  0.00    -0.357 N 
ATOM     16  H   UNL     1      33.665 -18.710 -25.440  0.00  0.00    +0.142 HD
ATOM     17  H   UNL     1      35.218 -19.414 -25.409  0.00  0.00    +0.142 HD
ENDBRANCH   7  15
BRANCH  10  18
ATOM     18  N   UNL     1      35.653 -19.787 -20.375  0.00  0.00    -0.357 N 
ATOM     19  H   UNL     1      35.852 -19.476 -19.461  0.00  0.00    +0.142 HD
ATOM     20  H   UNL     1      35.705 -20.746 -20.590  0.00  0.00    +0.142 HD
ENDBRANCH  10  18
TORSDOF 2
ENDMDL
MODEL 3
REMARK VINA RESULT:      -7.5      1.835      4.254
REMARK  Name = 1616
REMARK  2 active torsions:
REMARK  status: ('A' for Active; 'I' for Inactive)
REMARK    1  A    between atoms: C_7  and  N_15
REMARK    2  A    between atoms: C_10  and  N_18
REMARK                            x       y       z     vdW  Elec       q    Type
REMARK                         _______ _______ _______ _____ _____    ______ ____
ROOT
ATOM      1  O   UNL     1      32.380 -13.192 -23.192  0.00  0.00    -0.266 OA
ATOM      2  O   UNL     1      34.781 -17.175 -25.802  0.00  0.00    -0.266 OA
ATOM      3  N   UNL     1      32.918 -14.237 -25.130  0.00  0.00    -0.263 N 
ATOM      4  N   UNL     1      33.532 -15.257 -25.811  0.00  0.00    -0.263 N 
ATOM      5  C   UNL     1      33.678 -15.169 -23.023  0.00  0.00    +0.075 A 
ATOM      6  C   UNL     1      34.303 -16.206 -23.716  0.00  0.00    +0.064 A 
ATOM      7  C   UNL     1      33.747 -15.119 -21.626  0.00  0.00    +0.048 C 
ATOM      8  C   UNL     1      34.999 -17.197 -23.012  0.00  0.00    +0.019 C 
ATOM      9  C   UNL     1      32.944 -14.123 -23.760  0.00  0.00    +0.273 A 
ATOM     10  C   UNL     1      35.066 -17.144 -21.620  0.00  0.00    +0.043 C 
ATOM     11  C   UNL     1      34.233 -16.264 -25.189  0.00  0.00    +0.272 A 
ATOM     12  C   UNL     1      34.442 -16.108 -20.928  0.00  0.00    +0.028 C 
ATOM     13  H   UNL     1      32.435 -13.554 -25.648  0.00  0.00    +0.190 HD
ATOM     14  H   UNL     1      33.468 -15.269 -26.794  0.00  0.00    +0.190 HD
ENDROOT
BRANCH   7  15
ATOM     15  N   UNL     1      33.139 -14.100 -20.859  0.00  0.00    -0.357 N 
ATOM     16  H   UNL     1      32.695 -13.344 -21.308  0.00  0.00    +0.142 HD
ATOM     17  H   UNL     1      33.159 -14.146 -19.875  0.00  0.00    +0.142 HD
ENDBRANCH   7  15
BRANCH  10  18
ATOM     18  N   UNL     1      35.767 -18.142 -20.910  0.00  0.00    -0.357 N 
ATOM     19  H   UNL     1      35.794 -19.065 -21.255  0.00  0.00    +0.142 HD
ATOM     20  H   UNL     1      36.229 -17.917 -20.071  0.00  0.00    +0.142 HD
ENDBRANCH  10  18
TORSDOF 2
ENDMDL
MODEL 4
REMARK VINA RESULT:      -7.5      1.305      3.161
REMARK  Name = 1616
REMARK  2 active torsions:
REMARK  status: ('A' for Active; 'I' for Inactive)
REMARK    1  A    between atoms: C_7  and  N_15
REMARK    2  A    between atoms: C_10  and  N_18
REMARK                            x       y       z     vdW  Elec       q    Type
REMARK                         _______ _______ _______ _____ _____    ______ ____
ROOT
ATOM      1  O   UNL     1      35.774 -17.593 -21.722  0.00  0.00    -0.266 OA
ATOM      2  O   UNL     1      33.698 -15.669 -26.243  0.00  0.00    -0.266 OA
ATOM      3  N   UNL     1      35.542 -17.673 -23.976  0.00  0.00    -0.263 N 
ATOM      4  N   UNL     1      35.014 -17.186 -25.144  0.00  0.00    -0.263 N 
ATOM      5  C   UNL     1      34.379 -15.955 -22.719  0.00  0.00    +0.075 A 
ATOM      6  C   UNL     1      33.841 -15.460 -23.908  0.00  0.00    +0.064 A 
ATOM      7  C   UNL     1      34.065 -15.342 -21.501  0.00  0.00    +0.048 C 
ATOM      8  C   UNL     1      32.988 -14.350 -23.880  0.00  0.00    +0.019 C 
ATOM      9  C   UNL     1      35.279 -17.123 -22.743  0.00  0.00    +0.273 A 
ATOM     10  C   UNL     1      32.677 -13.742 -22.664  0.00  0.00    +0.043 C 
ATOM     11  C   UNL     1      34.169 -16.102 -25.195  0.00  0.00    +0.272 A 
ATOM     12  C   UNL     1      33.214 -14.236 -21.476  0.00  0.00    +0.028 C 
ATOM     13  H   UNL     1      36.139 -18.454 -24.023  0.00  0.00    +0.190 HD
ATOM     14  H   UNL     1      35.251 -17.635 -25.988  0.00  0.00    +0.190 HD
ENDROOT
BRANCH   7  15
ATOM     15  N   UNL     1      34.572 -15.787 -20.259  0.00  0.00    -0.357 N 
ATOM     16  H   UNL     1      35.520 -16.042 -20.177  0.00  0.00    +0.142 HD
ATOM     17  H   UNL     1      33.978 -15.844 -19.476  0.00  0.00    +0.142 HD
ENDBRANCH   7  15
BRANCH  10  18
ATOM     18  N   UNL     1      31.817 -12.624 -22.635  0.00  0.00    -0.357 N 
ATOM     19  H   UNL     1      31.984 -11.859 -23.233  0.00  0.00    +0.142 HD
ATOM     20  H   UNL     1      31.050 -12.608 -22.018  0.00  0.00    +0.142 HD
ENDBRANCH  10  18
TORSDOF 2
ENDMDL
MODEL 5
REMARK VINA RESULT:      -7.4      1.596      3.521
REMARK  Name = 1616
REMARK  2 active torsions:
REMARK  status: ('A' for Active; 'I' for Inactive)
REMARK    1  A    between atoms: C_7  and  N_15
REMARK    2  A    between atoms: C_10  and  N_18
REMARK                            x       y       z     vdW  Elec       q    Type
REMARK                         _______ _______ _______ _____ _____    ______ ____
ROOT
ATOM      1  O   UNL     1      35.024 -16.152 -20.113  0.00  0.00    -0.266 OA
ATOM      2  O   UNL     1      35.073 -19.567 -24.210  0.00  0.00    -0.266 OA
ATOM      3  N   UNL     1      35.415 -18.222 -20.950  0.00  0.00    -0.263 N 
ATOM      4  N   UNL     1      35.431 -19.108 -21.996  0.00  0.00    -0.263 N 
ATOM      5  C   UNL     1      34.607 -16.475 -22.425  0.00  0.00    +0.075 A 
ATOM      6  C   UNL     1      34.623 -17.376 -23.490  0.00  0.00    +0.064 A 
ATOM      7  C   UNL     1      34.195 -15.154 -22.634  0.00  0.00    +0.048 C 
ATOM      8  C   UNL     1      34.227 -16.958 -24.766  0.00  0.00    +0.019 C 
ATOM      9  C   UNL     1      35.023 -16.911 -21.079  0.00  0.00    +0.273 A 
ATOM     10  C   UNL     1      33.817 -15.640 -24.970  0.00  0.00    +0.043 C 
ATOM     11  C   UNL     1      35.057 -18.770 -23.276  0.00  0.00    +0.272 A 
ATOM     12  C   UNL     1      33.801 -14.739 -23.906  0.00  0.00    +0.028 C 
ATOM     13  H   UNL     1      35.699 -18.542 -20.063  0.00  0.00    +0.190 HD
ATOM     14  H   UNL     1      35.727 -20.032 -21.824  0.00  0.00    +0.190 HD
ENDROOT
BRANCH   7  15
ATOM     15  N   UNL     1      34.154 -14.186 -21.604  0.00  0.00    -0.357 N 
ATOM     16  H   UNL     1      34.667 -13.350 -21.693  0.00  0.00    +0.142 HD
ATOM     17  H   UNL     1      33.613 -14.348 -20.797  0.00  0.00    +0.142 HD
ENDBRANCH   7  15
BRANCH  10  18
ATOM     18  N   UNL     1      33.418 -15.218 -26.256  0.00  0.00    -0.357 N 
ATOM     19  H   UNL     1      34.094 -15.063 -26.955  0.00  0.00    +0.142 HD
ATOM     20  H   UNL     1      32.464 -15.077 -26.454  0.00  0.00    +0.142 HD
ENDBRANCH  10  18
TORSDOF 2
ENDMDL
MODEL 6
REMARK VINA RESULT:      -7.4      1.767      4.881
REMARK  Name = 1616
REMARK  2 active torsions:
REMARK  status: ('A' for Active; 'I' for Inactive)
REMARK    1  A    between atoms: C_7  and  N_15
REMARK    2  A    between atoms: C_10  and  N_18
REMARK                            x       y       z     vdW  Elec       q    Type
REMARK                         _______ _______ _______ _____ _____    ______ ____
ROOT
ATOM      1  O   UNL     1      34.433 -14.462 -21.551  0.00  0.00    -0.266 OA
ATOM      2  O   UNL     1      33.377 -15.476 -26.679  0.00  0.00    -0.266 OA
ATOM      3  N   UNL     1      33.747 -13.768 -23.597  0.00  0.00    -0.263 N 
ATOM      4  N   UNL     1      33.473 -14.018 -24.916  0.00  0.00    -0.263 N 
ATOM      5  C   UNL     1      34.386 -16.086 -23.278  0.00  0.00    +0.075 A 
ATOM      6  C   UNL     1      34.107 -16.340 -24.621  0.00  0.00    +0.064 A 
ATOM      7  C   UNL     1      34.844 -17.119 -22.451  0.00  0.00    +0.048 C 
ATOM      8  C   UNL     1      34.285 -17.629 -25.140  0.00  0.00    +0.019 C 
ATOM      9  C   UNL     1      34.199 -14.731 -22.726  0.00  0.00    +0.273 A 
ATOM     10  C   UNL     1      34.742 -18.655 -24.313  0.00  0.00    +0.043 C 
ATOM     11  C   UNL     1      33.624 -15.256 -25.497  0.00  0.00    +0.272 A 
ATOM     12  C   UNL     1      35.021 -18.401 -22.971  0.00  0.00    +0.028 C 
ATOM     13  H   UNL     1      33.613 -12.854 -23.257  0.00  0.00    +0.190 HD
ATOM     14  H   UNL     1      33.151 -13.275 -25.477  0.00  0.00    +0.190 HD
ENDROOT
BRANCH   7  15
ATOM     15  N   UNL     1      35.145 -16.935 -21.082  0.00  0.00    -0.357 N 
ATOM     16  H   UNL     1      34.559 -17.324 -20.392  0.00  0.00    +0.142 HD
ATOM     17  H   UNL     1      35.941 -16.419 -20.818  0.00  0.00    +0.142 HD
ENDBRANCH   7  15
BRANCH  10  18
ATOM     18  N   UNL     1      34.922 -19.953 -24.835  0.00  0.00    -0.357 N 
ATOM     19  H   UNL     1      35.591 -20.111 -25.541  0.00  0.00    +0.142 HD
ATOM     20  H   UNL     1      34.380 -20.701 -24.495  0.00  0.00    +0.142 HD
ENDBRANCH  10  18
TORSDOF 2
ENDMDL
MODEL 7
REMARK VINA RESULT:      -7.3     13.393     14.347
REMARK  Name = 1616
REMARK  2 active torsions:
REMARK  status: ('A' for Active; 'I' for Inactive)
REMARK    1  A    between atoms: C_7  and  N_15
REMARK    2  A    between atoms: C_10  and  N_18
REMARK                            x       y       z     vdW  Elec       q    Type
REMARK                         _______ _______ _______ _____ _____    ______ ____
ROOT
ATOM      1  O   UNL     1      34.379 -24.988 -14.243  0.00  0.00    -0.266 OA
ATOM      2  O   UNL     1      38.432 -22.854 -11.511  0.00  0.00    -0.266 OA
ATOM      3  N   UNL     1      35.170 -23.485 -12.741  0.00  0.00    -0.263 N 
ATOM      4  N   UNL     1      36.204 -22.930 -12.034  0.00  0.00    -0.263 N 
ATOM      5  C   UNL     1      36.708 -25.029 -13.804  0.00  0.00    +0.075 A 
ATOM      6  C   UNL     1      37.761 -24.464 -13.085  0.00  0.00    +0.064 A 
ATOM      7  C   UNL     1      36.954 -26.082 -14.693  0.00  0.00    +0.048 C 
ATOM      8  C   UNL     1      39.064 -24.951 -13.253  0.00  0.00    +0.019 C 
ATOM      9  C   UNL     1      35.335 -24.520 -13.631  0.00  0.00    +0.273 A 
ATOM     10  C   UNL     1      39.305 -26.000 -14.140  0.00  0.00    +0.043 C 
ATOM     11  C   UNL     1      37.508 -23.355 -12.146  0.00  0.00    +0.272 A 
ATOM     12  C   UNL     1      38.253 -26.565 -14.859  0.00  0.00    +0.028 C 
ATOM     13  H   UNL     1      34.264 -23.125 -12.605  0.00  0.00    +0.190 HD
ATOM     14  H   UNL     1      36.005 -22.190 -11.415  0.00  0.00    +0.190 HD
ENDROOT
BRANCH   7  15
ATOM     15  N   UNL     1      35.938 -26.702 -15.456  0.00  0.00    -0.357 N 
ATOM     16  H   UNL     1      35.997 -26.712 -16.439  0.00  0.00    +0.142 HD
ATOM     17  H   UNL     1      35.172 -27.124 -15.005  0.00  0.00    +0.142 HD
ENDBRANCH   7  15
BRANCH  10  18
ATOM     18  N   UNL     1      40.617 -26.491 -14.310  0.00  0.00    -0.357 N 
ATOM     19  H   UNL     1      40.939 -26.733 -15.209  0.00  0.00    +0.142 HD
ATOM     20  H   UNL     1      41.210 -26.593 -13.531  0.00  0.00    +0.142 HD
ENDBRANCH  10  18
TORSDOF 2
ENDMDL
MODEL 8
REMARK VINA RESULT:      -7.3      9.760     11.680
REMARK  Name = 1616
REMARK  2 active torsions:
REMARK  status: ('A' for Active; 'I' for Inactive)
REMARK    1  A    between atoms: C_7  and  N_15
REMARK    2  A    between atoms: C_10  and  N_18
REMARK                            x       y       z     vdW  Elec       q    Type
REMARK                         _______ _______ _______ _____ _____    ______ ____
ROOT
ATOM      1  O   UNL     1      31.691 -24.293 -13.034  0.00  0.00    -0.266 OA
ATOM      2  O   UNL     1      36.274 -24.263 -15.762  0.00  0.00    -0.266 OA
ATOM      3  N   UNL     1      33.909 -24.743 -13.168  0.00  0.00    -0.263 N 
ATOM      4  N   UNL     1      35.092 -24.740 -13.860  0.00  0.00    -0.263 N 
ATOM      5  C   UNL     1      32.780 -23.742 -15.067  0.00  0.00    +0.075 A 
ATOM      6  C   UNL     1      33.984 -23.739 -15.771  0.00  0.00    +0.064 A 
ATOM      7  C   UNL     1      31.618 -23.243 -15.666  0.00  0.00    +0.048 C 
ATOM      8  C   UNL     1      34.028 -23.237 -17.078  0.00  0.00    +0.019 C 
ATOM      9  C   UNL     1      32.729 -24.270 -13.691  0.00  0.00    +0.273 A 
ATOM     10  C   UNL     1      32.868 -22.740 -17.672  0.00  0.00    +0.043 C 
ATOM     11  C   UNL     1      35.212 -24.264 -15.145  0.00  0.00    +0.272 A 
ATOM     12  C   UNL     1      31.665 -22.743 -16.968  0.00  0.00    +0.028 C 
ATOM     13  H   UNL     1      33.905 -25.102 -12.251  0.00  0.00    +0.190 HD
ATOM     14  H   UNL     1      35.896 -25.096 -13.416  0.00  0.00    +0.190 HD
ENDROOT
BRANCH   7  15
ATOM     15  N   UNL     1      30.364 -23.214 -15.013  0.00  0.00    -0.357 N 
ATOM     16  H   UNL     1      30.316 -23.022 -14.048  0.00  0.00    +0.142 HD
ATOM     17  H   UNL     1      29.540 -23.385 -15.523  0.00  0.00    +0.142 HD
ENDBRANCH   7  15
BRANCH  10  18
ATOM     18  N   UNL     1      32.911 -22.234 -18.988  0.00  0.00    -0.357 N 
ATOM     19  H   UNL     1      32.163 -22.406 -19.606  0.00  0.00    +0.142 HD
ATOM     20  H   UNL     1      33.688 -21.710 -19.289  0.00  0.00    +0.142 HD
ENDBRANCH  10  18
TORSDOF 2
ENDMDL
MODEL 9
REMARK VINA RESULT:      -7.2      1.938      3.645
REMARK  Name = 1616
REMARK  2 active torsions:
REMARK  status: ('A' for Active; 'I' for Inactive)
REMARK    1  A    between atoms: C_7  and  N_15
REMARK    2  A    between atoms: C_10  and  N_18
REMARK                            x       y       z     vdW  Elec       q    Type
REMARK                         _______ _______ _______ _____ _____    ______ ____
ROOT
ATOM      1  O   UNL     1      33.601 -13.557 -24.113  0.00  0.00    -0.266 OA
ATOM      2  O   UNL     1      35.283 -17.022 -20.424  0.00  0.00    -0.266 OA
ATOM      3  N   UNL     1      34.214 -14.024 -21.981  0.00  0.00    -0.263 N 
ATOM      4  N   UNL     1      34.646 -14.907 -21.025  0.00  0.00    -0.263 N 
ATOM      5  C   UNL     1      34.237 -15.792 -23.642  0.00  0.00    +0.075 A 
ATOM      6  C   UNL     1      34.677 -16.690 -22.669  0.00  0.00    +0.064 A 
ATOM      7  C   UNL     1      34.030 -16.229 -24.955  0.00  0.00    +0.048 C 
ATOM      8  C   UNL     1      34.911 -18.028 -23.008  0.00  0.00    +0.019 C 
ATOM      9  C   UNL     1      33.989 -14.381 -23.290  0.00  0.00    +0.273 A 
ATOM     10  C   UNL     1      34.704 -18.461 -24.318  0.00  0.00    +0.043 C 
ATOM     11  C   UNL     1      34.896 -16.234 -21.283  0.00  0.00    +0.272 A 
ATOM     12  C   UNL     1      34.264 -17.563 -25.290  0.00  0.00    +0.028 C 
ATOM     13  H   UNL     1      34.057 -13.089 -21.717  0.00  0.00    +0.190 HD
ATOM     14  H   UNL     1      34.785 -14.574 -20.108  0.00  0.00    +0.190 HD
ENDROOT
BRANCH   7  15
ATOM     15  N   UNL     1      33.587 -15.376 -25.992  0.00  0.00    -0.357 N 
ATOM     16  H   UNL     1      32.685 -14.982 -25.954  0.00  0.00    +0.142 HD
ATOM     17  H   UNL     1      34.180 -15.177 -26.753  0.00  0.00    +0.142 HD
ENDBRANCH   7  15
BRANCH  10  18
ATOM     18  N   UNL     1      34.939 -19.809 -24.661  0.00  0.00    -0.357 N 
ATOM     19  H   UNL     1      34.246 -20.324 -25.136  0.00  0.00    +0.142 HD
ATOM     20  H   UNL     1      35.794 -20.235 -24.425  0.00  0.00    +0.142 HD
ENDBRANCH  10  18
TORSDOF 2
ENDMDL
