MODEL 1
REMARK VINA RESULT:      -6.6      0.000      0.000
REMARK  Name = 6179
REMARK  3 active torsions:
REMARK  status: ('A' for Active; 'I' for Inactive)
REMARK    1  A    between atoms: C_1  and  C_3
REMARK    2  A    between atoms: C_1  and  N_9
REMARK    3  A    between atoms: N_9  and  N_11
REMARK                            x       y       z     vdW  Elec       q    Type
REMARK                         _______ _______ _______ _____ _____    ______ ____
ROOT
ATOM      1  C   UNL     1      34.584 -17.701 -22.008  0.00  0.00    +0.090 C 
ATOM      2  C   UNL     1      34.670 -16.447 -21.118  0.00  0.00    +0.023 C 
ENDROOT
BRANCH   1   3
ATOM      3  C   UNL     1      34.557 -18.964 -21.215  0.00  0.00    -0.007 C 
ATOM      4  C   UNL     1      33.338 -19.506 -20.808  0.00  0.00    -0.003 C 
ATOM      5  C   UNL     1      35.751 -19.603 -20.881  0.00  0.00    -0.003 C 
ATOM      6  C   UNL     1      33.312 -20.686 -20.066  0.00  0.00    -0.000 C 
ATOM      7  C   UNL     1      35.726 -20.785 -20.139  0.00  0.00    -0.000 C 
ATOM      8  C   UNL     1      34.506 -21.326 -19.732  0.00  0.00    -0.000 C 
ENDBRANCH   1   3
BRANCH   1   9
ATOM      9  N   UNL     1      35.693 -17.671 -22.979  0.00  0.00    -0.246 NA
ATOM     10  H   UNL     1      36.578 -17.846 -22.502  0.00  0.00    +0.141 HD
BRANCH   9  11
ATOM     11  N   UNL     1      35.711 -16.378 -23.571  0.00  0.00    -0.270 NA
ATOM     12  H   UNL     1      35.639 -16.468 -24.585  0.00  0.00    +0.137 HD
ATOM     13  H   UNL     1      36.584 -15.908 -23.333  0.00  0.00    +0.137 HD
ENDBRANCH   9  11
ENDBRANCH   1   9
TORSDOF 3
ENDMDL
MODEL 2
REMARK VINA RESULT:      -6.6      0.030      1.529
REMARK  Name = 6179
REMARK  3 active torsions:
REMARK  status: ('A' for Active; 'I' for Inactive)
REMARK    1  A    between atoms: C_1  and  C_3
REMARK    2  A    between atoms: C_1  and  N_9
REMARK    3  A    between atoms: N_9  and  N_11
REMARK                            x       y       z     vdW  Elec       q    Type
REMARK                         _______ _______ _______ _____ _____    ______ ____
ROOT
ATOM      1  C   UNL     1      34.591 -17.714 -21.984  0.00  0.00    +0.090 C 
ATOM      2  C   UNL     1      34.666 -16.460 -21.092  0.00  0.00    +0.023 C 
ENDROOT
BRANCH   1   3
ATOM      3  C   UNL     1      34.560 -18.978 -21.194  0.00  0.00    -0.007 C 
ATOM      4  C   UNL     1      35.753 -19.613 -20.846  0.00  0.00    -0.003 C 
ATOM      5  C   UNL     1      33.338 -19.525 -20.802  0.00  0.00    -0.003 C 
ATOM      6  C   UNL     1      35.724 -20.795 -20.108  0.00  0.00    -0.000 C 
ATOM      7  C   UNL     1      33.309 -20.708 -20.063  0.00  0.00    -0.000 C 
ATOM      8  C   UNL     1      34.502 -21.343 -19.716  0.00  0.00    -0.000 C 
ENDBRANCH   1   3
BRANCH   1   9
ATOM      9  N   UNL     1      35.710 -17.680 -22.944  0.00  0.00    -0.246 NA
ATOM     10  H   UNL     1      36.591 -17.845 -22.458  0.00  0.00    +0.141 HD
BRANCH   9  11
ATOM     11  N   UNL     1      35.723 -16.390 -23.544  0.00  0.00    -0.270 NA
ATOM     12  H   UNL     1      35.752 -15.677 -22.815  0.00  0.00    +0.137 HD
ATOM     13  H   UNL     1      34.880 -16.269 -24.105  0.00  0.00    +0.137 HD
ENDBRANCH   9  11
ENDBRANCH   1   9
TORSDOF 3
ENDMDL
MODEL 3
REMARK VINA RESULT:      -6.3      3.650      4.741
REMARK  Name = 6179
REMARK  3 active torsions:
REMARK  status: ('A' for Active; 'I' for Inactive)
REMARK    1  A    between atoms: C_1  and  C_3
REMARK    2  A    between atoms: C_1  and  N_9
REMARK    3  A    between atoms: N_9  and  N_11
REMARK                            x       y       z     vdW  Elec       q    Type
REMARK                         _______ _______ _______ _____ _____    ______ ____
ROOT
ATOM      1  C   UNL     1      35.318 -22.140 -19.064  0.00  0.00    +0.090 C 
ATOM      2  C   UNL     1      36.464 -21.711 -18.129  0.00  0.00    +0.023 C 
ENDROOT
BRANCH   1   3
ATOM      3  C   UNL     1      34.783 -21.007 -19.873  0.00  0.00    -0.007 C 
ATOM      4  C   UNL     1      33.408 -20.780 -19.932  0.00  0.00    -0.003 C 
ATOM      5  C   UNL     1      35.659 -20.174 -20.570  0.00  0.00    -0.003 C 
ATOM      6  C   UNL     1      32.908 -19.720 -20.688  0.00  0.00    -0.000 C 
ATOM      7  C   UNL     1      35.158 -19.114 -21.327  0.00  0.00    -0.000 C 
ATOM      8  C   UNL     1      33.783 -18.887 -21.386  0.00  0.00    -0.000 C 
ENDBRANCH   1   3
BRANCH   1   9
ATOM      9  N   UNL     1      34.272 -22.798 -18.260  0.00  0.00    -0.246 NA
ATOM     10  H   UNL     1      34.661 -23.112 -17.371  0.00  0.00    +0.141 HD
BRANCH   9  11
ATOM     11  N   UNL     1      33.797 -23.915 -19.002  0.00  0.00    -0.270 NA
ATOM     12  H   UNL     1      34.333 -24.001 -19.866  0.00  0.00    +0.137 HD
ATOM     13  H   UNL     1      32.812 -23.779 -19.226  0.00  0.00    +0.137 HD
ENDBRANCH   9  11
ENDBRANCH   1   9
TORSDOF 3
ENDMDL
MODEL 4
REMARK VINA RESULT:      -6.2      2.353      4.295
REMARK  Name = 6179
REMARK  3 active torsions:
REMARK  status: ('A' for Active; 'I' for Inactive)
REMARK    1  A    between atoms: C_1  and  C_3
REMARK    2  A    between atoms: C_1  and  N_9
REMARK    3  A    between atoms: N_9  and  N_11
REMARK                            x       y       z     vdW  Elec       q    Type
REMARK                         _______ _______ _______ _____ _____    ______ ____
ROOT
ATOM      1  C   UNL     1      34.989 -18.686 -21.052  0.00  0.00    +0.090 C 
ATOM      2  C   UNL     1      34.086 -19.903 -20.776  0.00  0.00    +0.023 C 
ENDROOT
BRANCH   1   3
ATOM      3  C   UNL     1      34.870 -18.191 -22.454  0.00  0.00    -0.007 C 
ATOM      4  C   UNL     1      34.983 -16.827 -22.724  0.00  0.00    -0.003 C 
ATOM      5  C   UNL     1      34.646 -19.092 -23.495  0.00  0.00    -0.003 C 
ATOM      6  C   UNL     1      34.871 -16.363 -24.034  0.00  0.00    -0.000 C 
ATOM      7  C   UNL     1      34.534 -18.628 -24.806  0.00  0.00    -0.000 C 
ATOM      8  C   UNL     1      34.646 -17.264 -25.076  0.00  0.00    -0.000 C 
ENDBRANCH   1   3
BRANCH   1   9
ATOM      9  N   UNL     1      36.377 -19.035 -20.696  0.00  0.00    -0.246 NA
ATOM     10  H   UNL     1      36.913 -19.233 -21.540  0.00  0.00    +0.141 HD
BRANCH   9  11
ATOM     11  N   UNL     1      36.330 -20.191 -19.869  0.00  0.00    -0.270 NA
ATOM     12  H   UNL     1      37.259 -20.609 -19.816  0.00  0.00    +0.137 HD
ATOM     13  H   UNL     1      35.677 -20.867 -20.267  0.00  0.00    +0.137 HD
ENDBRANCH   9  11
ENDBRANCH   1   9
TORSDOF 3
ENDMDL
MODEL 5
REMARK VINA RESULT:      -6.1      3.916      5.495
REMARK  Name = 6179
REMARK  3 active torsions:
REMARK  status: ('A' for Active; 'I' for Inactive)
REMARK    1  A    between atoms: C_1  and  C_3
REMARK    2  A    between atoms: C_1  and  N_9
REMARK    3  A    between atoms: N_9  and  N_11
REMARK                            x       y       z     vdW  Elec       q    Type
REMARK                         _______ _______ _______ _____ _____    ______ ____
ROOT
ATOM      1  C   UNL     1      33.627 -22.623 -18.548  0.00  0.00    +0.090 C 
ATOM      2  C   UNL     1      34.584 -22.801 -17.354  0.00  0.00    +0.023 C 
ENDROOT
BRANCH   1   3
ATOM      3  C   UNL     1      34.038 -21.508 -19.449  0.00  0.00    -0.007 C 
ATOM      4  C   UNL     1      35.390 -21.290 -19.717  0.00  0.00    -0.003 C 
ATOM      5  C   UNL     1      33.071 -20.683 -20.023  0.00  0.00    -0.003 C 
ATOM      6  C   UNL     1      35.774 -20.247 -20.559  0.00  0.00    -0.000 C 
ATOM      7  C   UNL     1      33.456 -19.640 -20.866  0.00  0.00    -0.000 C 
ATOM      8  C   UNL     1      34.807 -19.422 -21.134  0.00  0.00    -0.000 C 
ENDBRANCH   1   3
BRANCH   1   9
ATOM      9  N   UNL     1      32.255 -22.454 -18.035  0.00  0.00    -0.246 NA
ATOM     10  H   UNL     1      32.065 -21.466 -17.869  0.00  0.00    +0.141 HD
BRANCH   9  11
ATOM     11  N   UNL     1      32.160 -23.178 -16.815  0.00  0.00    -0.270 NA
ATOM     12  H   UNL     1      31.979 -24.161 -17.016  0.00  0.00    +0.137 HD
ATOM     13  H   UNL     1      31.396 -22.800 -16.255  0.00  0.00    +0.137 HD
ENDBRANCH   9  11
ENDBRANCH   1   9
TORSDOF 3
ENDMDL
MODEL 6
REMARK VINA RESULT:      -5.9      8.345      9.382
REMARK  Name = 6179
REMARK  3 active torsions:
REMARK  status: ('A' for Active; 'I' for Inactive)
REMARK    1  A    between atoms: C_1  and  C_3
REMARK    2  A    between atoms: C_1  and  N_9
REMARK    3  A    between atoms: N_9  and  N_11
REMARK                            x       y       z     vdW  Elec       q    Type
REMARK                         _______ _______ _______ _____ _____    ______ ____
ROOT
ATOM      1  C   UNL     1      28.198 -23.792 -15.869  0.00  0.00    +0.090 C 
ATOM      2  C   UNL     1      27.691 -22.342 -15.746  0.00  0.00    +0.023 C 
ENDROOT
BRANCH   1   3
ATOM      3  C   UNL     1      29.603 -23.949 -15.395  0.00  0.00    -0.007 C 
ATOM      4  C   UNL     1      29.905 -24.888 -14.409  0.00  0.00    -0.003 C 
ATOM      5  C   UNL     1      30.614 -23.156 -15.937  0.00  0.00    -0.003 C 
ATOM      6  C   UNL     1      31.219 -25.035 -13.965  0.00  0.00    -0.000 C 
ATOM      7  C   UNL     1      31.929 -23.302 -15.493  0.00  0.00    -0.000 C 
ATOM      8  C   UNL     1      32.231 -24.242 -14.507  0.00  0.00    -0.000 C 
ENDBRANCH   1   3
BRANCH   1   9
ATOM      9  N   UNL     1      28.022 -24.238 -17.264  0.00  0.00    -0.246 NA
ATOM     10  H   UNL     1      28.926 -24.483 -17.667  0.00  0.00    +0.141 HD
BRANCH   9  11
ATOM     11  N   UNL     1      27.444 -23.160 -17.990  0.00  0.00    -0.270 NA
ATOM     12  H   UNL     1      26.581 -22.866 -17.533  0.00  0.00    +0.137 HD
ATOM     13  H   UNL     1      27.237 -23.465 -18.941  0.00  0.00    +0.137 HD
ENDBRANCH   9  11
ENDBRANCH   1   9
TORSDOF 3
ENDMDL
MODEL 7
REMARK VINA RESULT:      -5.9      2.374      4.644
REMARK  Name = 6179
REMARK  3 active torsions:
REMARK  status: ('A' for Active; 'I' for Inactive)
REMARK    1  A    between atoms: C_1  and  C_3
REMARK    2  A    between atoms: C_1  and  N_9
REMARK    3  A    between atoms: N_9  and  N_11
REMARK                            x       y       z     vdW  Elec       q    Type
REMARK                         _______ _______ _______ _____ _____    ______ ____
ROOT
ATOM      1  C   UNL     1      34.830 -18.435 -21.354  0.00  0.00    +0.090 C 
ATOM      2  C   UNL     1      34.785 -19.373 -22.575  0.00  0.00    +0.023 C 
ENDROOT
BRANCH   1   3
ATOM      3  C   UNL     1      34.673 -17.000 -21.729  0.00  0.00    -0.007 C 
ATOM      4  C   UNL     1      34.695 -16.624 -23.072  0.00  0.00    -0.003 C 
ATOM      5  C   UNL     1      34.504 -16.035 -20.737  0.00  0.00    -0.003 C 
ATOM      6  C   UNL     1      34.549 -15.283 -23.423  0.00  0.00    -0.000 C 
ATOM      7  C   UNL     1      34.358 -14.693 -21.088  0.00  0.00    -0.000 C 
ATOM      8  C   UNL     1      34.380 -14.316 -22.431  0.00  0.00    -0.000 C 
ENDBRANCH   1   3
BRANCH   1   9
ATOM      9  N   UNL     1      36.076 -18.688 -20.608  0.00  0.00    -0.246 NA
ATOM     10  H   UNL     1      36.882 -18.538 -21.216  0.00  0.00    +0.141 HD
BRANCH   9  11
ATOM     11  N   UNL     1      36.047 -20.039 -20.167  0.00  0.00    -0.270 NA
ATOM     12  H   UNL     1      35.083 -20.315 -19.980  0.00  0.00    +0.137 HD
ATOM     13  H   UNL     1      36.597 -20.129 -19.312  0.00  0.00    +0.137 HD
ENDBRANCH   9  11
ENDBRANCH   1   9
TORSDOF 3
ENDMDL
MODEL 8
REMARK VINA RESULT:      -5.8      2.581      4.339
REMARK  Name = 6179
REMARK  3 active torsions:
REMARK  status: ('A' for Active; 'I' for Inactive)
REMARK    1  A    between atoms: C_1  and  C_3
REMARK    2  A    between atoms: C_1  and  N_9
REMARK    3  A    between atoms: N_9  and  N_11
REMARK                            x       y       z     vdW  Elec       q    Type
REMARK                         _______ _______ _______ _____ _____    ______ ____
ROOT
ATOM      1  C   UNL     1      34.409 -20.248 -21.092  0.00  0.00    +0.090 C 
ATOM      2  C   UNL     1      35.589 -20.586 -20.161  0.00  0.00    +0.023 C 
ENDROOT
BRANCH   1   3
ATOM      3  C   UNL     1      34.641 -19.004 -21.881  0.00  0.00    -0.007 C 
ATOM      4  C   UNL     1      34.720 -17.771 -21.232  0.00  0.00    -0.003 C 
ATOM      5  C   UNL     1      34.778 -19.073 -23.267  0.00  0.00    -0.003 C 
ATOM      6  C   UNL     1      34.936 -16.608 -21.970  0.00  0.00    -0.000 C 
ATOM      7  C   UNL     1      34.994 -17.909 -24.006  0.00  0.00    -0.000 C 
ATOM      8  C   UNL     1      35.073 -16.676 -23.357  0.00  0.00    -0.000 C 
ENDBRANCH   1   3
BRANCH   1   9
ATOM      9  N   UNL     1      33.175 -20.181 -20.287  0.00  0.00    -0.246 NA
ATOM     10  H   UNL     1      33.339 -19.632 -19.444  0.00  0.00    +0.141 HD
BRANCH   9  11
ATOM     11  N   UNL     1      32.817 -21.512 -19.938  0.00  0.00    -0.270 NA
ATOM     12  H   UNL     1      33.510 -21.892 -19.293  0.00  0.00    +0.137 HD
ATOM     13  H   UNL     1      32.785 -22.087 -20.780  0.00  0.00    +0.137 HD
ENDBRANCH   9  11
ENDBRANCH   1   9
TORSDOF 3
ENDMDL
MODEL 9
REMARK VINA RESULT:      -5.8      7.765      9.362
REMARK  Name = 6179
REMARK  3 active torsions:
REMARK  status: ('A' for Active; 'I' for Inactive)
REMARK    1  A    between atoms: C_1  and  C_3
REMARK    2  A    between atoms: C_1  and  N_9
REMARK    3  A    between atoms: N_9  and  N_11
REMARK                            x       y       z     vdW  Elec       q    Type
REMARK                         _______ _______ _______ _____ _____    ______ ____
ROOT
ATOM      1  C   UNL     1      38.642 -25.000 -14.476  0.00  0.00    +0.090 C 
ATOM      2  C   UNL     1      38.447 -25.481 -13.026  0.00  0.00    +0.023 C 
ENDROOT
BRANCH   1   3
ATOM      3  C   UNL     1      37.437 -24.306 -15.016  0.00  0.00    -0.007 C 
ATOM      4  C   UNL     1      37.573 -23.087 -15.681  0.00  0.00    -0.003 C 
ATOM      5  C   UNL     1      36.174 -24.876 -14.855  0.00  0.00    -0.003 C 
ATOM      6  C   UNL     1      36.447 -22.438 -16.185  0.00  0.00    -0.000 C 
ATOM      7  C   UNL     1      35.047 -24.226 -15.359  0.00  0.00    -0.000 C 
ATOM      8  C   UNL     1      35.183 -23.007 -16.024  0.00  0.00    -0.000 C 
ENDBRANCH   1   3
BRANCH   1   9
ATOM      9  N   UNL     1      39.047 -26.149 -15.307  0.00  0.00    -0.246 NA
ATOM     10  H   UNL     1      39.120 -26.986 -14.730  0.00  0.00    +0.141 HD
BRANCH   9  11
ATOM     11  N   UNL     1      40.313 -25.842 -15.877  0.00  0.00    -0.270 NA
ATOM     12  H   UNL     1      40.829 -25.225 -15.249  0.00  0.00    +0.137 HD
ATOM     13  H   UNL     1      40.177 -25.375 -16.774  0.00  0.00    +0.137 HD
ENDBRANCH   9  11
ENDBRANCH   1   9
TORSDOF 3
ENDMDL
