MODEL 1
REMARK VINA RESULT:      -9.8      0.000      0.000
REMARK  Name = 9906855
REMARK  8 active torsions:
REMARK  status: ('A' for Active; 'I' for Inactive)
REMARK    1  A    between atoms: C_1  and  C_3
REMARK    2  A    between atoms: C_1  and  S_15
REMARK    3  A    between atoms: C_5  and  O_9
REMARK    4  A    between atoms: O_9  and  C_10
REMARK    5  A    between atoms: C_10  and  C_11
REMARK    6  A    between atoms: C_11  and  C_12
REMARK    7  A    between atoms: C_12  and  O_13
REMARK    8  A    between atoms: S_15  and  C_19
REMARK                            x       y       z     vdW  Elec       q    Type
REMARK                         _______ _______ _______ _____ _____    ______ ____
ROOT
ATOM      1  C   UNL     1      34.602 -14.555 -23.174  0.00  0.00    +0.140 C 
ENDROOT
BRANCH   1   3
ATOM      2  N   UNL     1      34.646 -16.673 -24.322  0.00  0.00    -0.247 NA
ATOM      3  C   UNL     1      34.650 -16.055 -23.124  0.00  0.00    +0.072 C 
ATOM      4  C   UNL     1      34.695 -16.705 -21.905  0.00  0.00    +0.027 C 
ATOM      5  C   UNL     1      34.738 -18.095 -21.917  0.00  0.00    +0.137 C 
ATOM      6  C   UNL     1      34.695 -15.954 -20.616  0.00  0.00    +0.035 C 
ATOM      7  C   UNL     1      34.736 -18.775 -23.130  0.00  0.00    +0.057 C 
ATOM      8  C   UNL     1      34.689 -18.025 -24.294  0.00  0.00    +0.102 C 
BRANCH   5   9
ATOM      9  O   UNL     1      34.783 -18.804 -20.754  0.00  0.00    -0.476 OA
BRANCH   9  10
ATOM     10  C   UNL     1      35.551 -20.006 -20.758  0.00  0.00    +0.208 C 
BRANCH  10  11
ATOM     11  C   UNL     1      34.858 -21.033 -19.877  0.00  0.00    +0.079 C 
BRANCH  11  12
ATOM     12  C   UNL     1      33.345 -20.883 -19.909  0.00  0.00    +0.146 C 
BRANCH  12  13
ATOM     13  O   UNL     1      32.741 -21.934 -19.166  0.00  0.00    -0.351 OA
ATOM     14  C   UNL     1      33.711 -22.713 -18.480  0.00  0.00    +0.174 C 
ENDBRANCH  12  13
ENDBRANCH  11  12
ENDBRANCH  10  11
ENDBRANCH   9  10
ENDBRANCH   5   9
ENDBRANCH   1   3
BRANCH   1  15
ATOM     15  S   UNL     1      32.914 -13.946 -23.455  0.00  0.00    +0.085 S 
ATOM     16  O   UNL     1      32.109 -14.278 -22.213  0.00  0.00    -0.252 OA
BRANCH  15  19
ATOM     17  N   UNL     1      34.268 -11.597 -24.136  0.00  0.00    -0.307 N 
ATOM     18  N   UNL     1      32.442 -11.298 -22.903  0.00  0.00    -0.307 N 
ATOM     19  C   UNL     1      33.213 -12.184 -23.493  0.00  0.00    +0.226 C 
ATOM     20  C   UNL     1      34.171 -10.242 -23.949  0.00  0.00    +0.060 C 
ATOM     21  C   UNL     1      33.023 -10.080 -23.177  0.00  0.00    +0.060 C 
ATOM     22  C   UNL     1      34.964  -9.177 -24.376  0.00  0.00    +0.016 C 
ATOM     23  C   UNL     1      32.630  -8.786 -22.799  0.00  0.00    +0.016 C 
ATOM     24  C   UNL     1      34.556  -7.895 -23.992  0.00  0.00    +0.001 C 
ATOM     25  C   UNL     1      33.410  -7.701 -23.217  0.00  0.00    +0.001 C 
ATOM     26  H   UNL     1      34.971 -12.065 -24.643  0.00  0.00    +0.149 HD
ATOM     27  H   UNL     1      31.626 -11.467 -22.379  0.00  0.00    +0.149 HD
ENDBRANCH  15  19
ENDBRANCH   1  15
TORSDOF 8
ENDMDL
MODEL 2
REMARK VINA RESULT:      -9.6      3.240      5.092
REMARK  Name = 9906855
REMARK  8 active torsions:
REMARK  status: ('A' for Active; 'I' for Inactive)
REMARK    1  A    between atoms: C_1  and  C_3
REMARK    2  A    between atoms: C_1  and  S_15
REMARK    3  A    between atoms: C_5  and  O_9
REMARK    4  A    between atoms: O_9  and  C_10
REMARK    5  A    between atoms: C_10  and  C_11
REMARK    6  A    between atoms: C_11  and  C_12
REMARK    7  A    between atoms: C_12  and  O_13
REMARK    8  A    between atoms: S_15  and  C_19
REMARK                            x       y       z     vdW  Elec       q    Type
REMARK                         _______ _______ _______ _____ _____    ______ ____
ROOT
ATOM      1  C   UNL     1      34.958 -18.327 -21.336  0.00  0.00    +0.140 C 
ENDROOT
BRANCH   1   3
ATOM      2  N   UNL     1      36.394 -19.931 -20.254  0.00  0.00    -0.247 NA
ATOM      3  C   UNL     1      35.125 -19.610 -20.575  0.00  0.00    +0.072 C 
ATOM      4  C   UNL     1      34.017 -20.370 -20.249  0.00  0.00    +0.027 C 
ATOM      5  C   UNL     1      34.229 -21.549 -19.543  0.00  0.00    +0.137 C 
ATOM      6  C   UNL     1      32.639 -19.952 -20.638  0.00  0.00    +0.035 C 
ATOM      7  C   UNL     1      35.522 -21.920 -19.191  0.00  0.00    +0.057 C 
ATOM      8  C   UNL     1      36.561 -21.084 -19.567  0.00  0.00    +0.102 C 
BRANCH   5   9
ATOM      9  O   UNL     1      33.185 -22.350 -19.189  0.00  0.00    -0.476 OA
BRANCH   9  10
ATOM     10  C   UNL     1      33.462 -23.405 -18.271  0.00  0.00    +0.208 C 
BRANCH  10  11
ATOM     11  C   UNL     1      32.816 -23.076 -16.935  0.00  0.00    +0.079 C 
BRANCH  11  12
ATOM     12  C   UNL     1      33.709 -23.451 -15.762  0.00  0.00    +0.146 C 
BRANCH  12  13
ATOM     13  O   UNL     1      35.004 -23.797 -16.234  0.00  0.00    -0.351 OA
ATOM     14  C   UNL     1      36.023 -23.158 -15.477  0.00  0.00    +0.174 C 
ENDBRANCH  12  13
ENDBRANCH  11  12
ENDBRANCH  10  11
ENDBRANCH   9  10
ENDBRANCH   5   9
ENDBRANCH   1   3
BRANCH   1  15
ATOM     15  S   UNL     1      35.580 -18.470 -23.037  0.00  0.00    +0.085 S 
ATOM     16  O   UNL     1      34.913 -19.685 -23.652  0.00  0.00    -0.252 OA
BRANCH  15  19
ATOM     17  N   UNL     1      34.824 -15.780 -23.136  0.00  0.00    -0.307 N 
ATOM     18  N   UNL     1      34.331 -16.955 -24.957  0.00  0.00    -0.307 N 
ATOM     19  C   UNL     1      34.871 -16.997 -23.760  0.00  0.00    +0.226 C 
ATOM     20  C   UNL     1      34.215 -14.896 -23.988  0.00  0.00    +0.060 C 
ATOM     21  C   UNL     1      33.917 -15.652 -25.118  0.00  0.00    +0.060 C 
ATOM     22  C   UNL     1      33.907 -13.540 -23.871  0.00  0.00    +0.016 C 
ATOM     23  C   UNL     1      33.274 -15.037 -26.205  0.00  0.00    +0.016 C 
ATOM     24  C   UNL     1      33.268 -12.942 -24.963  0.00  0.00    +0.001 C 
ATOM     25  C   UNL     1      32.956 -13.676 -26.110  0.00  0.00    +0.001 C 
ATOM     26  H   UNL     1      35.168 -15.577 -22.236  0.00  0.00    +0.149 HD
ATOM     27  H   UNL     1      34.243 -17.695 -25.601  0.00  0.00    +0.149 HD
ENDBRANCH  15  19
ENDBRANCH   1  15
TORSDOF 8
ENDMDL
MODEL 3
REMARK VINA RESULT:      -9.6      3.271      5.225
REMARK  Name = 9906855
REMARK  8 active torsions:
REMARK  status: ('A' for Active; 'I' for Inactive)
REMARK    1  A    between atoms: C_1  and  C_3
REMARK    2  A    between atoms: C_1  and  S_15
REMARK    3  A    between atoms: C_5  and  O_9
REMARK    4  A    between atoms: O_9  and  C_10
REMARK    5  A    between atoms: C_10  and  C_11
REMARK    6  A    between atoms: C_11  and  C_12
REMARK    7  A    between atoms: C_12  and  O_13
REMARK    8  A    between atoms: S_15  and  C_19
REMARK                            x       y       z     vdW  Elec       q    Type
REMARK                         _______ _______ _______ _____ _____    ______ ____
ROOT
ATOM      1  C   UNL     1      34.931 -18.361 -21.336  0.00  0.00    +0.140 C 
ENDROOT
BRANCH   1   3
ATOM      2  N   UNL     1      36.372 -19.966 -20.262  0.00  0.00    -0.247 NA
ATOM      3  C   UNL     1      35.100 -19.638 -20.565  0.00  0.00    +0.072 C 
ATOM      4  C   UNL     1      33.993 -20.386 -20.215  0.00  0.00    +0.027 C 
ATOM      5  C   UNL     1      34.206 -21.560 -19.502  0.00  0.00    +0.137 C 
ATOM      6  C   UNL     1      32.611 -19.962 -20.586  0.00  0.00    +0.035 C 
ATOM      7  C   UNL     1      35.502 -21.938 -19.167  0.00  0.00    +0.057 C 
ATOM      8  C   UNL     1      36.542 -21.113 -19.567  0.00  0.00    +0.102 C 
BRANCH   5   9
ATOM      9  O   UNL     1      33.162 -22.350 -19.123  0.00  0.00    -0.476 OA
BRANCH   9  10
ATOM     10  C   UNL     1      33.336 -23.132 -17.943  0.00  0.00    +0.208 C 
BRANCH  10  11
ATOM     11  C   UNL     1      32.123 -22.944 -17.047  0.00  0.00    +0.079 C 
BRANCH  11  12
ATOM     12  C   UNL     1      32.326 -23.569 -15.675  0.00  0.00    +0.146 C 
BRANCH  12  13
ATOM     13  O   UNL     1      31.066 -23.855 -15.084  0.00  0.00    -0.351 OA
ATOM     14  C   UNL     1      31.155 -24.929 -14.159  0.00  0.00    +0.174 C 
ENDBRANCH  12  13
ENDBRANCH  11  12
ENDBRANCH  10  11
ENDBRANCH   9  10
ENDBRANCH   5   9
ENDBRANCH   1   3
BRANCH   1  15
ATOM     15  S   UNL     1      35.555 -18.514 -23.035  0.00  0.00    +0.085 S 
ATOM     16  O   UNL     1      34.889 -19.732 -23.644  0.00  0.00    -0.252 OA
BRANCH  15  19
ATOM     17  N   UNL     1      34.812 -15.822 -23.156  0.00  0.00    -0.307 N 
ATOM     18  N   UNL     1      34.298 -17.014 -24.961  0.00  0.00    -0.307 N 
ATOM     19  C   UNL     1      34.847 -17.045 -23.767  0.00  0.00    +0.226 C 
ATOM     20  C   UNL     1      34.200 -14.943 -24.013  0.00  0.00    +0.060 C 
ATOM     21  C   UNL     1      33.888 -15.711 -25.132  0.00  0.00    +0.060 C 
ATOM     22  C   UNL     1      33.900 -13.585 -23.908  0.00  0.00    +0.016 C 
ATOM     23  C   UNL     1      33.239 -15.104 -26.220  0.00  0.00    +0.016 C 
ATOM     24  C   UNL     1      33.255 -12.996 -25.001  0.00  0.00    +0.001 C 
ATOM     25  C   UNL     1      32.929 -13.740 -26.137  0.00  0.00    +0.001 C 
ATOM     26  H   UNL     1      35.164 -15.610 -22.262  0.00  0.00    +0.149 HD
ATOM     27  H   UNL     1      34.201 -17.760 -25.596  0.00  0.00    +0.149 HD
ENDBRANCH  15  19
ENDBRANCH   1  15
TORSDOF 8
ENDMDL
MODEL 4
REMARK VINA RESULT:      -9.4      2.801      9.327
REMARK  Name = 9906855
REMARK  8 active torsions:
REMARK  status: ('A' for Active; 'I' for Inactive)
REMARK    1  A    between atoms: C_1  and  C_3
REMARK    2  A    between atoms: C_1  and  S_15
REMARK    3  A    between atoms: C_5  and  O_9
REMARK    4  A    between atoms: O_9  and  C_10
REMARK    5  A    between atoms: C_10  and  C_11
REMARK    6  A    between atoms: C_11  and  C_12
REMARK    7  A    between atoms: C_12  and  O_13
REMARK    8  A    between atoms: S_15  and  C_19
REMARK                            x       y       z     vdW  Elec       q    Type
REMARK                         _______ _______ _______ _____ _____    ______ ____
ROOT
ATOM      1  C   UNL     1      34.952 -16.232 -22.171  0.00  0.00    +0.140 C 
ENDROOT
BRANCH   1   3
ATOM      2  N   UNL     1      34.375 -14.498 -23.742  0.00  0.00    -0.247 NA
ATOM      3  C   UNL     1      34.148 -15.013 -22.516  0.00  0.00    +0.072 C 
ATOM      4  C   UNL     1      33.250 -14.495 -21.603  0.00  0.00    +0.027 C 
ATOM      5  C   UNL     1      32.531 -13.364 -21.974  0.00  0.00    +0.137 C 
ATOM      6  C   UNL     1      33.050 -15.117 -20.262  0.00  0.00    +0.035 C 
ATOM      7  C   UNL     1      32.734 -12.799 -23.229  0.00  0.00    +0.057 C 
ATOM      8  C   UNL     1      33.659 -13.399 -24.068  0.00  0.00    +0.102 C 
BRANCH   5   9
ATOM      9  O   UNL     1      31.628 -12.797 -21.125  0.00  0.00    -0.476 OA
BRANCH   9  10
ATOM     10  C   UNL     1      31.229 -11.457 -21.406  0.00  0.00    +0.208 C 
BRANCH  10  11
ATOM     11  C   UNL     1      30.858 -10.773 -20.100  0.00  0.00    +0.079 C 
BRANCH  11  12
ATOM     12  C   UNL     1      32.072 -10.179 -19.403  0.00  0.00    +0.146 C 
BRANCH  12  13
ATOM     13  O   UNL     1      31.914  -8.772 -19.272  0.00  0.00    -0.351 OA
ATOM     14  C   UNL     1      32.565  -8.073 -20.324  0.00  0.00    +0.174 C 
ENDBRANCH  12  13
ENDBRANCH  11  12
ENDBRANCH  10  11
ENDBRANCH   9  10
ENDBRANCH   5   9
ENDBRANCH   1   3
BRANCH   1  15
ATOM     15  S   UNL     1      34.381 -17.694 -23.085  0.00  0.00    +0.085 S 
ATOM     16  O   UNL     1      35.391 -17.950 -24.187  0.00  0.00    -0.252 OA
BRANCH  15  19
ATOM     17  N   UNL     1      33.532 -19.641 -21.269  0.00  0.00    -0.307 N 
ATOM     18  N   UNL     1      35.730 -19.320 -21.331  0.00  0.00    -0.307 N 
ATOM     19  C   UNL     1      34.571 -18.951 -21.828  0.00  0.00    +0.226 C 
ATOM     20  C   UNL     1      34.055 -20.515 -20.350  0.00  0.00    +0.060 C 
ATOM     21  C   UNL     1      35.429 -20.296 -20.408  0.00  0.00    +0.060 C 
ATOM     22  C   UNL     1      33.463 -21.449 -19.500  0.00  0.00    +0.016 C 
ATOM     23  C   UNL     1      36.277 -21.044 -19.575  0.00  0.00    +0.016 C 
ATOM     24  C   UNL     1      34.323 -22.186 -18.678  0.00  0.00    +0.001 C 
ATOM     25  C   UNL     1      35.705 -21.988 -18.713  0.00  0.00    +0.001 C 
ATOM     26  H   UNL     1      32.578 -19.531 -21.487  0.00  0.00    +0.149 HD
ATOM     27  H   UNL     1      36.621 -18.975 -21.569  0.00  0.00    +0.149 HD
ENDBRANCH  15  19
ENDBRANCH   1  15
TORSDOF 8
ENDMDL
MODEL 5
REMARK VINA RESULT:      -9.1      3.105      4.878
REMARK  Name = 9906855
REMARK  8 active torsions:
REMARK  status: ('A' for Active; 'I' for Inactive)
REMARK    1  A    between atoms: C_1  and  C_3
REMARK    2  A    between atoms: C_1  and  S_15
REMARK    3  A    between atoms: C_5  and  O_9
REMARK    4  A    between atoms: O_9  and  C_10
REMARK    5  A    between atoms: C_10  and  C_11
REMARK    6  A    between atoms: C_11  and  C_12
REMARK    7  A    between atoms: C_12  and  O_13
REMARK    8  A    between atoms: S_15  and  C_19
REMARK                            x       y       z     vdW  Elec       q    Type
REMARK                         _______ _______ _______ _____ _____    ______ ____
ROOT
ATOM      1  C   UNL     1      36.052 -18.681 -21.338  0.00  0.00    +0.140 C 
ENDROOT
BRANCH   1   3
ATOM      2  N   UNL     1      33.737 -19.237 -20.968  0.00  0.00    -0.247 NA
ATOM      3  C   UNL     1      35.018 -19.597 -20.750  0.00  0.00    +0.072 C 
ATOM      4  C   UNL     1      35.409 -20.719 -20.045  0.00  0.00    +0.027 C 
ATOM      5  C   UNL     1      34.410 -21.532 -19.522  0.00  0.00    +0.137 C 
ATOM      6  C   UNL     1      36.848 -21.055 -19.842  0.00  0.00    +0.035 C 
ATOM      7  C   UNL     1      33.074 -21.200 -19.721  0.00  0.00    +0.057 C 
ATOM      8  C   UNL     1      32.793 -20.052 -20.445  0.00  0.00    +0.102 C 
BRANCH   5   9
ATOM      9  O   UNL     1      34.719 -22.655 -18.814  0.00  0.00    -0.476 OA
BRANCH   9  10
ATOM     10  C   UNL     1      33.632 -23.383 -18.248  0.00  0.00    +0.208 C 
BRANCH  10  11
ATOM     11  C   UNL     1      33.781 -23.391 -16.735  0.00  0.00    +0.079 C 
BRANCH  11  12
ATOM     12  C   UNL     1      32.438 -23.280 -16.030  0.00  0.00    +0.146 C 
BRANCH  12  13
ATOM     13  O   UNL     1      32.640 -23.055 -14.641  0.00  0.00    -0.351 OA
ATOM     14  C   UNL     1      31.867 -23.947 -13.850  0.00  0.00    +0.174 C 
ENDBRANCH  12  13
ENDBRANCH  11  12
ENDBRANCH  10  11
ENDBRANCH   9  10
ENDBRANCH   5   9
ENDBRANCH   1   3
BRANCH   1  15
ATOM     15  S   UNL     1      35.713 -18.317 -23.085  0.00  0.00    +0.085 S 
ATOM     16  O   UNL     1      34.765 -19.390 -23.586  0.00  0.00    -0.252 OA
BRANCH  15  19
ATOM     17  N   UNL     1      34.870 -15.756 -23.823  0.00  0.00    -0.307 N 
ATOM     18  N   UNL     1      34.008 -16.509 -21.917  0.00  0.00    -0.307 N 
ATOM     19  C   UNL     1      34.810 -16.783 -22.921  0.00  0.00    +0.226 C 
ATOM     20  C   UNL     1      34.052 -14.753 -23.370  0.00  0.00    +0.060 C 
ATOM     21  C   UNL     1      33.525 -15.247 -22.179  0.00  0.00    +0.060 C 
ATOM     22  C   UNL     1      33.737 -13.495 -23.884  0.00  0.00    +0.016 C 
ATOM     23  C   UNL     1      32.631 -14.451 -21.444  0.00  0.00    +0.016 C 
ATOM     24  C   UNL     1      32.844 -12.717 -23.140  0.00  0.00    +0.001 C 
ATOM     25  C   UNL     1      32.299 -13.184 -21.941  0.00  0.00    +0.001 C 
ATOM     26  H   UNL     1      35.404 -15.741 -24.650  0.00  0.00    +0.149 HD
ATOM     27  H   UNL     1      33.798 -17.082 -21.144  0.00  0.00    +0.149 HD
ENDBRANCH  15  19
ENDBRANCH   1  15
TORSDOF 8
ENDMDL
MODEL 6
REMARK VINA RESULT:      -9.1      2.943      4.903
REMARK  Name = 9906855
REMARK  8 active torsions:
REMARK  status: ('A' for Active; 'I' for Inactive)
REMARK    1  A    between atoms: C_1  and  C_3
REMARK    2  A    between atoms: C_1  and  S_15
REMARK    3  A    between atoms: C_5  and  O_9
REMARK    4  A    between atoms: O_9  and  C_10
REMARK    5  A    between atoms: C_10  and  C_11
REMARK    6  A    between atoms: C_11  and  C_12
REMARK    7  A    between atoms: C_12  and  O_13
REMARK    8  A    between atoms: S_15  and  C_19
REMARK                            x       y       z     vdW  Elec       q    Type
REMARK                         _______ _______ _______ _____ _____    ______ ____
ROOT
ATOM      1  C   UNL     1      34.328 -18.938 -21.506  0.00  0.00    +0.140 C 
ENDROOT
BRANCH   1   3
ATOM      2  N   UNL     1      36.389 -19.700 -20.516  0.00  0.00    -0.247 NA
ATOM      3  C   UNL     1      35.057 -19.890 -20.603  0.00  0.00    +0.072 C 
ATOM      4  C   UNL     1      34.360 -20.874 -19.929  0.00  0.00    +0.027 C 
ATOM      5  C   UNL     1      35.084 -21.729 -19.105  0.00  0.00    +0.137 C 
ATOM      6  C   UNL     1      32.883 -21.026 -20.073  0.00  0.00    +0.035 C 
ATOM      7  C   UNL     1      36.460 -21.570 -18.986  0.00  0.00    +0.057 C 
ATOM      8  C   UNL     1      37.060 -20.550 -19.706  0.00  0.00    +0.102 C 
BRANCH   5   9
ATOM      9  O   UNL     1      34.464 -22.724 -18.410  0.00  0.00    -0.476 OA
BRANCH   9  10
ATOM     10  C   UNL     1      34.763 -22.825 -17.019  0.00  0.00    +0.208 C 
BRANCH  10  11
ATOM     11  C   UNL     1      33.606 -23.516 -16.317  0.00  0.00    +0.079 C 
BRANCH  11  12
ATOM     12  C   UNL     1      32.261 -23.103 -16.895  0.00  0.00    +0.146 C 
BRANCH  12  13
ATOM     13  O   UNL     1      31.225 -23.408 -15.970  0.00  0.00    -0.351 OA
ATOM     14  C   UNL     1      31.466 -22.815 -14.702  0.00  0.00    +0.174 C 
ENDBRANCH  12  13
ENDBRANCH  11  12
ENDBRANCH  10  11
ENDBRANCH   9  10
ENDBRANCH   5   9
ENDBRANCH   1   3
BRANCH   1  15
ATOM     15  S   UNL     1      35.474 -17.995 -22.553  0.00  0.00    +0.085 S 
ATOM     16  O   UNL     1      35.425 -18.616 -23.936  0.00  0.00    -0.252 OA
BRANCH  15  19
ATOM     17  N   UNL     1      33.697 -16.017 -21.691  0.00  0.00    -0.307 N 
ATOM     18  N   UNL     1      34.852 -15.501 -23.520  0.00  0.00    -0.307 N 
ATOM     19  C   UNL     1      34.636 -16.417 -22.601  0.00  0.00    +0.226 C 
ATOM     20  C   UNL     1      33.279 -14.760 -22.045  0.00  0.00    +0.060 C 
ATOM     21  C   UNL     1      34.015 -14.459 -23.189  0.00  0.00    +0.060 C 
ATOM     22  C   UNL     1      32.349 -13.886 -21.481  0.00  0.00    +0.016 C 
ATOM     23  C   UNL     1      33.823 -13.219 -23.820  0.00  0.00    +0.016 C 
ATOM     24  C   UNL     1      32.172 -12.655 -22.121  0.00  0.00    +0.001 C 
ATOM     25  C   UNL     1      32.895 -12.325 -23.271  0.00  0.00    +0.001 C 
ATOM     26  H   UNL     1      33.378 -16.539 -20.920  0.00  0.00    +0.149 HD
ATOM     27  H   UNL     1      35.477 -15.549 -24.278  0.00  0.00    +0.149 HD
ENDBRANCH  15  19
ENDBRANCH   1  15
TORSDOF 8
ENDMDL
MODEL 7
REMARK VINA RESULT:      -9.0      1.566      2.103
REMARK  Name = 9906855
REMARK  8 active torsions:
REMARK  status: ('A' for Active; 'I' for Inactive)
REMARK    1  A    between atoms: C_1  and  C_3
REMARK    2  A    between atoms: C_1  and  S_15
REMARK    3  A    between atoms: C_5  and  O_9
REMARK    4  A    between atoms: O_9  and  C_10
REMARK    5  A    between atoms: C_10  and  C_11
REMARK    6  A    between atoms: C_11  and  C_12
REMARK    7  A    between atoms: C_12  and  O_13
REMARK    8  A    between atoms: S_15  and  C_19
REMARK                            x       y       z     vdW  Elec       q    Type
REMARK                         _______ _______ _______ _____ _____    ______ ____
ROOT
ATOM      1  C   UNL     1      33.042 -13.780 -23.911  0.00  0.00    +0.140 C 
ENDROOT
BRANCH   1   3
ATOM      2  N   UNL     1      33.904 -15.704 -25.077  0.00  0.00    -0.247 NA
ATOM      3  C   UNL     1      33.701 -15.128 -23.876  0.00  0.00    +0.072 C 
ATOM      4  C   UNL     1      34.055 -15.693 -22.665  0.00  0.00    +0.027 C 
ATOM      5  C   UNL     1      34.662 -16.943 -22.690  0.00  0.00    +0.137 C 
ATOM      6  C   UNL     1      33.798 -14.997 -21.371  0.00  0.00    +0.035 C 
ATOM      7  C   UNL     1      34.891 -17.575 -23.907  0.00  0.00    +0.057 C 
ATOM      8  C   UNL     1      34.496 -16.919 -25.062  0.00  0.00    +0.102 C 
BRANCH   5   9
ATOM      9  O   UNL     1      35.038 -17.562 -21.535  0.00  0.00    -0.476 OA
BRANCH   9  10
ATOM     10  C   UNL     1      35.576 -18.878 -21.652  0.00  0.00    +0.208 C 
BRANCH  10  11
ATOM     11  C   UNL     1      34.815 -19.804 -20.717  0.00  0.00    +0.079 C 
BRANCH  11  12
ATOM     12  C   UNL     1      33.312 -19.718 -20.929  0.00  0.00    +0.146 C 
BRANCH  12  13
ATOM     13  O   UNL     1      32.671 -20.816 -20.293  0.00  0.00    -0.351 OA
ATOM     14  C   UNL     1      33.580 -21.557 -19.490  0.00  0.00    +0.174 C 
ENDBRANCH  12  13
ENDBRANCH  11  12
ENDBRANCH  10  11
ENDBRANCH   9  10
ENDBRANCH   5   9
ENDBRANCH   1   3
BRANCH   1  15
ATOM     15  S   UNL     1      34.002 -12.588 -24.891  0.00  0.00    +0.085 S 
ATOM     16  O   UNL     1      33.375 -12.542 -26.271  0.00  0.00    -0.252 OA
BRANCH  15  19
ATOM     17  N   UNL     1      32.622 -10.961 -23.085  0.00  0.00    -0.307 N 
ATOM     18  N   UNL     1      34.228  -9.933 -24.227  0.00  0.00    -0.307 N 
ATOM     19  C   UNL     1      33.606 -11.074 -24.028  0.00  0.00    +0.226 C 
ATOM     20  C   UNL     1      32.609  -9.663 -22.645  0.00  0.00    +0.060 C 
ATOM     21  C   UNL     1      33.622  -9.041 -23.372  0.00  0.00    +0.060 C 
ATOM     22  C   UNL     1      31.824  -8.998 -21.703  0.00  0.00    +0.016 C 
ATOM     23  C   UNL     1      33.878  -7.677 -23.161  0.00  0.00    +0.016 C 
ATOM     24  C   UNL     1      32.094  -7.640 -21.504  0.00  0.00    +0.001 C 
ATOM     25  C   UNL     1      33.102  -6.989 -22.219  0.00  0.00    +0.001 C 
ATOM     26  H   UNL     1      32.029 -11.684 -22.776  0.00  0.00    +0.149 HD
ATOM     27  H   UNL     1      34.969  -9.756 -24.851  0.00  0.00    +0.149 HD
ENDBRANCH  15  19
ENDBRANCH   1  15
TORSDOF 8
ENDMDL
MODEL 8
REMARK VINA RESULT:      -9.0      7.608     10.678
REMARK  Name = 9906855
REMARK  8 active torsions:
REMARK  status: ('A' for Active; 'I' for Inactive)
REMARK    1  A    between atoms: C_1  and  C_3
REMARK    2  A    between atoms: C_1  and  S_15
REMARK    3  A    between atoms: C_5  and  O_9
REMARK    4  A    between atoms: O_9  and  C_10
REMARK    5  A    between atoms: C_10  and  C_11
REMARK    6  A    between atoms: C_11  and  C_12
REMARK    7  A    between atoms: C_12  and  O_13
REMARK    8  A    between atoms: S_15  and  C_19
REMARK                            x       y       z     vdW  Elec       q    Type
REMARK                         _______ _______ _______ _____ _____    ______ ____
ROOT
ATOM      1  C   UNL     1      34.056 -22.888 -15.599  0.00  0.00    +0.140 C 
ENDROOT
BRANCH   1   3
ATOM      2  N   UNL     1      36.294 -22.178 -16.139  0.00  0.00    -0.247 NA
ATOM      3  C   UNL     1      35.534 -23.149 -15.595  0.00  0.00    +0.072 C 
ATOM      4  C   UNL     1      36.028 -24.321 -15.055  0.00  0.00    +0.027 C 
ATOM      5  C   UNL     1      37.405 -24.512 -15.076  0.00  0.00    +0.137 C 
ATOM      6  C   UNL     1      35.126 -25.355 -14.468  0.00  0.00    +0.035 C 
ATOM      7  C   UNL     1      38.228 -23.536 -15.629  0.00  0.00    +0.057 C 
ATOM      8  C   UNL     1      37.628 -22.397 -16.143  0.00  0.00    +0.102 C 
BRANCH   5   9
ATOM      9  O   UNL     1      37.964 -25.644 -14.563  0.00  0.00    -0.476 OA
BRANCH   9  10
ATOM     10  C   UNL     1      38.882 -25.480 -13.484  0.00  0.00    +0.208 C 
BRANCH  10  11
ATOM     11  C   UNL     1      38.108 -25.080 -12.238  0.00  0.00    +0.079 C 
BRANCH  11  12
ATOM     12  C   UNL     1      38.476 -23.683 -11.764  0.00  0.00    +0.146 C 
BRANCH  12  13
ATOM     13  O   UNL     1      37.318 -23.020 -11.273  0.00  0.00    -0.351 OA
ATOM     14  C   UNL     1      36.221 -23.913 -11.143  0.00  0.00    +0.174 C 
ENDBRANCH  12  13
ENDBRANCH  11  12
ENDBRANCH  10  11
ENDBRANCH   9  10
ENDBRANCH   5   9
ENDBRANCH   1   3
BRANCH   1  15
ATOM     15  S   UNL     1      33.240 -23.669 -17.022  0.00  0.00    +0.085 S 
ATOM     16  O   UNL     1      31.749 -23.650 -16.743  0.00  0.00    -0.252 OA
BRANCH  15  19
ATOM     17  N   UNL     1      34.863 -22.165 -18.729  0.00  0.00    -0.307 N 
ATOM     18  N   UNL     1      32.684 -21.769 -18.926  0.00  0.00    -0.307 N 
ATOM     19  C   UNL     1      33.602 -22.468 -18.295  0.00  0.00    +0.226 C 
ATOM     20  C   UNL     1      34.752 -21.208 -19.705  0.00  0.00    +0.060 C 
ATOM     21  C   UNL     1      33.382 -20.979 -19.811  0.00  0.00    +0.060 C 
ATOM     22  C   UNL     1      35.701 -20.544 -20.482  0.00  0.00    +0.016 C 
ATOM     23  C   UNL     1      32.915 -20.034 -20.738  0.00  0.00    +0.016 C 
ATOM     24  C   UNL     1      35.219 -19.608 -21.403  0.00  0.00    +0.001 C 
ATOM     25  C   UNL     1      33.851 -19.355 -21.530  0.00  0.00    +0.001 C 
ATOM     26  H   UNL     1      35.701 -22.563 -18.400  0.00  0.00    +0.149 HD
ATOM     27  H   UNL     1      31.709 -21.805 -18.795  0.00  0.00    +0.149 HD
ENDBRANCH  15  19
ENDBRANCH   1  15
TORSDOF 8
ENDMDL
MODEL 9
REMARK VINA RESULT:      -9.0      5.339     11.386
REMARK  Name = 9906855
REMARK  8 active torsions:
REMARK  status: ('A' for Active; 'I' for Inactive)
REMARK    1  A    between atoms: C_1  and  C_3
REMARK    2  A    between atoms: C_1  and  S_15
REMARK    3  A    between atoms: C_5  and  O_9
REMARK    4  A    between atoms: O_9  and  C_10
REMARK    5  A    between atoms: C_10  and  C_11
REMARK    6  A    between atoms: C_11  and  C_12
REMARK    7  A    between atoms: C_12  and  O_13
REMARK    8  A    between atoms: S_15  and  C_19
REMARK                            x       y       z     vdW  Elec       q    Type
REMARK                         _______ _______ _______ _____ _____    ______ ____
ROOT
ATOM      1  C   UNL     1      35.037 -22.128 -18.823  0.00  0.00    +0.140 C 
ENDROOT
BRANCH   1   3
ATOM      2  N   UNL     1      33.170 -20.967 -19.809  0.00  0.00    -0.247 NA
ATOM      3  C   UNL     1      34.513 -21.036 -19.709  0.00  0.00    +0.072 C 
ATOM      4  C   UNL     1      35.392 -20.187 -20.355  0.00  0.00    +0.027 C 
ATOM      5  C   UNL     1      34.853 -19.193 -21.164  0.00  0.00    +0.137 C 
ATOM      6  C   UNL     1      36.869 -20.324 -20.199  0.00  0.00    +0.035 C 
ATOM      7  C   UNL     1      33.473 -19.085 -21.296  0.00  0.00    +0.057 C 
ATOM      8  C   UNL     1      32.682 -19.988 -20.604  0.00  0.00    +0.102 C 
BRANCH   5   9
ATOM      9  O   UNL     1      35.658 -18.320 -21.832  0.00  0.00    -0.476 OA
BRANCH   9  10
ATOM     10  C   UNL     1      35.685 -18.424 -23.254  0.00  0.00    +0.208 C 
BRANCH  10  11
ATOM     11  C   UNL     1      34.931 -17.246 -23.847  0.00  0.00    +0.079 C 
BRANCH  11  12
ATOM     12  C   UNL     1      34.423 -17.542 -25.250  0.00  0.00    +0.146 C 
BRANCH  12  13
ATOM     13  O   UNL     1      34.288 -16.329 -25.980  0.00  0.00    -0.351 OA
ATOM     14  C   UNL     1      33.586 -15.346 -25.233  0.00  0.00    +0.174 C 
ENDBRANCH  12  13
ENDBRANCH  11  12
ENDBRANCH  10  11
ENDBRANCH   9  10
ENDBRANCH   5   9
ENDBRANCH   1   3
BRANCH   1  15
ATOM     15  S   UNL     1      33.691 -23.045 -18.019  0.00  0.00    +0.085 S 
ATOM     16  O   UNL     1      33.611 -24.400 -18.697  0.00  0.00    -0.252 OA
BRANCH  15  19
ATOM     17  N   UNL     1      35.668 -22.934 -16.046  0.00  0.00    -0.307 N 
ATOM     18  N   UNL     1      33.716 -23.751 -15.365  0.00  0.00    -0.307 N 
ATOM     19  C   UNL     1      34.384 -23.260 -16.385  0.00  0.00    +0.226 C 
ATOM     20  C   UNL     1      35.840 -23.234 -14.719  0.00  0.00    +0.060 C 
ATOM     21  C   UNL     1      34.607 -23.742 -14.316  0.00  0.00    +0.060 C 
ATOM     22  C   UNL     1      36.934 -23.110 -13.862  0.00  0.00    +0.016 C 
ATOM     23  C   UNL     1      34.439 -24.156 -12.985  0.00  0.00    +0.016 C 
ATOM     24  C   UNL     1      36.748 -23.525 -12.539  0.00  0.00    +0.001 C 
ATOM     25  C   UNL     1      35.524 -24.039 -12.106  0.00  0.00    +0.001 C 
ATOM     26  H   UNL     1      36.347 -22.551 -16.647  0.00  0.00    +0.149 HD
ATOM     27  H   UNL     1      32.780 -24.058 -15.353  0.00  0.00    +0.149 HD
ENDBRANCH  15  19
ENDBRANCH   1  15
TORSDOF 8
ENDMDL
