MODEL 1
REMARK VINA RESULT:      -8.1      0.000      0.000
REMARK  Name = 5360696
REMARK  1 active torsions:
REMARK  status: ('A' for Active; 'I' for Inactive)
REMARK    1  A    between atoms: C_17  and  O_20
REMARK                            x       y       z     vdW  Elec       q    Type
REMARK                         _______ _______ _______ _____ _____    ______ ____
ROOT
ATOM      1  N   UNL     1      31.322  -5.836 -23.163  0.00  0.00    +0.387 N 
ATOM      2  C   UNL     1      32.282  -8.586 -23.482  0.00  0.00    +0.015 C 
ATOM      3  C   UNL     1      33.210  -7.342 -23.558  0.00  0.00    -0.015 C 
ATOM      4  C   UNL     1      32.642  -6.244 -22.636  0.00  0.00    -0.053 C 
ATOM      5  C   UNL     1      30.878  -8.143 -23.978  0.00  0.00    -0.019 C 
ATOM      6  C   UNL     1      32.848  -9.659 -24.453  0.00  0.00    +0.004 C 
ATOM      7  C   UNL     1      34.687  -7.682 -23.273  0.00  0.00    -0.002 C 
ATOM      8  C   UNL     1      32.128  -9.071 -22.029  0.00  0.00    -0.024 C 
ATOM      9  C   UNL     1      32.663  -6.717 -21.168  0.00  0.00    +0.005 C 
ATOM     10  C   UNL     1      30.335  -6.917 -23.230  0.00  0.00    -0.077 C 
ATOM     11  C   UNL     1      34.309 -10.011 -24.170  0.00  0.00    +0.000 C 
ATOM     12  C   UNL     1      35.197  -8.772 -24.211  0.00  0.00    -0.000 C 
ATOM     13  C   UNL     1      32.293  -8.168 -20.954  0.00  0.00    -0.028 C 
ATOM     14  C   UNL     1      31.752 -10.393 -21.731  0.00  0.00    +0.032 C 
ATOM     15  C   UNL     1      30.773  -4.656 -22.502  0.00  0.00    -0.101 C 
ATOM     16  C   UNL     1      32.133  -8.614 -19.631  0.00  0.00    -0.002 C 
ATOM     17  C   UNL     1      31.589 -10.821 -20.412  0.00  0.00    +0.138 C 
ATOM     18  C   UNL     1      31.785  -9.934 -19.362  0.00  0.00    +0.037 C 
ATOM     19  H   UNL     1      31.520  -5.575 -24.129  0.00  0.00    -0.080 HD
ENDROOT
BRANCH  17  20
ATOM     20  O   UNL     1      31.233 -12.110 -20.157  0.00  0.00    -0.471 OA
ATOM     21  C   UNL     1      32.134 -13.130 -20.587  0.00  0.00    +0.252 C 
ENDBRANCH  17  20
TORSDOF 1
ENDMDL
MODEL 2
REMARK VINA RESULT:      -7.1     16.078     18.661
REMARK  Name = 5360696
REMARK  1 active torsions:
REMARK  status: ('A' for Active; 'I' for Inactive)
REMARK    1  A    between atoms: C_17  and  O_20
REMARK                            x       y       z     vdW  Elec       q    Type
REMARK                         _______ _______ _______ _____ _____    ______ ____
ROOT
ATOM      1  N   UNL     1      39.092 -25.801 -14.392  0.00  0.00    +0.387 N 
ATOM      2  C   UNL     1      36.527 -24.999 -13.222  0.00  0.00    +0.015 C 
ATOM      3  C   UNL     1      37.892 -24.394 -12.788  0.00  0.00    -0.015 C 
ATOM      4  C   UNL     1      38.842 -24.396 -14.002  0.00  0.00    -0.053 C 
ATOM      5  C   UNL     1      36.797 -26.456 -13.689  0.00  0.00    -0.019 C 
ATOM      6  C   UNL     1      35.604 -25.031 -11.972  0.00  0.00    +0.004 C 
ATOM      7  C   UNL     1      37.746 -23.011 -12.123  0.00  0.00    -0.002 C 
ATOM      8  C   UNL     1      35.940 -24.230 -14.419  0.00  0.00    -0.024 C 
ATOM      9  C   UNL     1      38.289 -23.479 -15.113  0.00  0.00    +0.005 C 
ATOM     10  C   UNL     1      37.888 -26.550 -14.766  0.00  0.00    -0.077 C 
ATOM     11  C   UNL     1      35.445 -23.660 -11.312  0.00  0.00    +0.000 C 
ATOM     12  C   UNL     1      36.796 -23.066 -10.930  0.00  0.00    -0.000 C 
ATOM     13  C   UNL     1      36.791 -23.536 -15.310  0.00  0.00    -0.028 C 
ATOM     14  C   UNL     1      34.563 -24.254 -14.705  0.00  0.00    +0.032 C 
ATOM     15  C   UNL     1      40.141 -25.947 -15.395  0.00  0.00    -0.101 C 
ATOM     16  C   UNL     1      36.249 -22.852 -16.411  0.00  0.00    -0.002 C 
ATOM     17  C   UNL     1      34.037 -23.576 -15.806  0.00  0.00    +0.138 C 
ATOM     18  C   UNL     1      34.879 -22.870 -16.656  0.00  0.00    +0.037 C 
ATOM     19  H   UNL     1      39.435 -26.230 -13.533  0.00  0.00    -0.080 HD
ENDROOT
BRANCH  17  20
ATOM     20  O   UNL     1      32.698 -23.611 -16.049  0.00  0.00    -0.471 OA
ATOM     21  C   UNL     1      31.834 -23.238 -14.976  0.00  0.00    +0.252 C 
ENDBRANCH  17  20
TORSDOF 1
ENDMDL
MODEL 3
REMARK VINA RESULT:      -6.7     14.243     18.168
REMARK  Name = 5360696
REMARK  1 active torsions:
REMARK  status: ('A' for Active; 'I' for Inactive)
REMARK    1  A    between atoms: C_17  and  O_20
REMARK                            x       y       z     vdW  Elec       q    Type
REMARK                         _______ _______ _______ _____ _____    ______ ____
ROOT
ATOM      1  N   UNL     1      38.402 -26.038 -14.100  0.00  0.00    +0.387 N 
ATOM      2  C   UNL     1      35.703 -24.971 -14.503  0.00  0.00    +0.015 C 
ATOM      3  C   UNL     1      36.498 -24.806 -13.178  0.00  0.00    -0.015 C 
ATOM      4  C   UNL     1      38.002 -24.742 -13.509  0.00  0.00    -0.053 C 
ATOM      5  C   UNL     1      36.165 -26.302 -15.156  0.00  0.00    -0.019 C 
ATOM      6  C   UNL     1      34.196 -25.080 -14.141  0.00  0.00    +0.004 C 
ATOM      7  C   UNL     1      36.003 -23.618 -12.330  0.00  0.00    -0.002 C 
ATOM      8  C   UNL     1      36.032 -23.833 -15.488  0.00  0.00    -0.024 C 
ATOM      9  C   UNL     1      38.308 -23.493 -14.361  0.00  0.00    +0.005 C 
ATOM     10  C   UNL     1      37.689 -26.389 -15.331  0.00  0.00    -0.077 C 
ATOM     11  C   UNL     1      33.694 -23.899 -13.308  0.00  0.00    +0.000 C 
ATOM     12  C   UNL     1      34.511 -23.731 -12.032  0.00  0.00    -0.000 C 
ATOM     13  C   UNL     1      37.275 -23.164 -15.415  0.00  0.00    -0.028 C 
ATOM     14  C   UNL     1      35.150 -23.479 -16.524  0.00  0.00    +0.032 C 
ATOM     15  C   UNL     1      39.845 -26.182 -14.263  0.00  0.00    -0.101 C 
ATOM     16  C   UNL     1      37.576 -22.139 -16.329  0.00  0.00    -0.002 C 
ATOM     17  C   UNL     1      35.464 -22.465 -17.430  0.00  0.00    +0.138 C 
ATOM     18  C   UNL     1      36.674 -21.790 -17.329  0.00  0.00    +0.037 C 
ATOM     19  H   UNL     1      38.108 -26.720 -13.400  0.00  0.00    -0.080 HD
ENDROOT
BRANCH  17  20
ATOM     20  O   UNL     1      34.583 -22.139 -18.416  0.00  0.00    -0.471 OA
ATOM     21  C   UNL     1      35.117 -21.515 -19.583  0.00  0.00    +0.252 C 
ENDBRANCH  17  20
TORSDOF 1
ENDMDL
MODEL 4
REMARK VINA RESULT:      -6.5      3.301      5.947
REMARK  Name = 5360696
REMARK  1 active torsions:
REMARK  status: ('A' for Active; 'I' for Inactive)
REMARK    1  A    between atoms: C_17  and  O_20
REMARK                            x       y       z     vdW  Elec       q    Type
REMARK                         _______ _______ _______ _____ _____    ______ ____
ROOT
ATOM      1  N   UNL     1      33.041  -9.954 -23.400  0.00  0.00    +0.387 N 
ATOM      2  C   UNL     1      31.729  -7.341 -23.198  0.00  0.00    +0.015 C 
ATOM      3  C   UNL     1      32.638  -7.931 -22.083  0.00  0.00    -0.015 C 
ATOM      4  C   UNL     1      33.716  -8.815 -22.740  0.00  0.00    -0.053 C 
ATOM      5  C   UNL     1      31.066  -8.539 -23.932  0.00  0.00    -0.019 C 
ATOM      6  C   UNL     1      30.624  -6.493 -22.509  0.00  0.00    +0.004 C 
ATOM      7  C   UNL     1      33.216  -6.848 -21.150  0.00  0.00    -0.002 C 
ATOM      8  C   UNL     1      32.563  -6.566 -24.235  0.00  0.00    -0.024 C 
ATOM      9  C   UNL     1      34.629  -7.961 -23.644  0.00  0.00    +0.005 C 
ATOM     10  C   UNL     1      32.083  -9.571 -24.441  0.00  0.00    -0.077 C 
ATOM     11  C   UNL     1      31.189  -5.409 -21.590  0.00  0.00    +0.000 C 
ATOM     12  C   UNL     1      32.109  -6.002 -20.528  0.00  0.00    -0.000 C 
ATOM     13  C   UNL     1      33.923  -6.889 -24.443  0.00  0.00    -0.028 C 
ATOM     14  C   UNL     1      31.986  -5.576 -25.050  0.00  0.00    +0.032 C 
ATOM     15  C   UNL     1      33.964 -10.978 -23.879  0.00  0.00    -0.101 C 
ATOM     16  C   UNL     1      34.672  -6.189 -25.405  0.00  0.00    -0.002 C 
ATOM     17  C   UNL     1      32.739  -4.894 -26.007  0.00  0.00    +0.138 C 
ATOM     18  C   UNL     1      34.084  -5.196 -26.181  0.00  0.00    +0.037 C 
ATOM     19  H   UNL     1      32.490 -10.372 -22.651  0.00  0.00    -0.080 HD
ENDROOT
BRANCH  17  20
ATOM     20  O   UNL     1      32.152  -3.934 -26.774  0.00  0.00    -0.471 OA
ATOM     21  C   UNL     1      32.616  -3.804 -28.118  0.00  0.00    +0.252 C 
ENDBRANCH  17  20
TORSDOF 1
ENDMDL
MODEL 5
REMARK VINA RESULT:      -6.4     14.625     18.556
REMARK  Name = 5360696
REMARK  1 active torsions:
REMARK  status: ('A' for Active; 'I' for Inactive)
REMARK    1  A    between atoms: C_17  and  O_20
REMARK                            x       y       z     vdW  Elec       q    Type
REMARK                         _______ _______ _______ _____ _____    ______ ____
ROOT
ATOM      1  N   UNL     1      36.438 -24.375 -11.253  0.00  0.00    +0.387 N 
ATOM      2  C   UNL     1      38.172 -24.227 -13.611  0.00  0.00    +0.015 C 
ATOM      3  C   UNL     1      37.664 -25.565 -13.005  0.00  0.00    -0.015 C 
ATOM      4  C   UNL     1      36.279 -25.328 -12.373  0.00  0.00    -0.053 C 
ATOM      5  C   UNL     1      38.282 -23.207 -12.446  0.00  0.00    -0.019 C 
ATOM      6  C   UNL     1      39.587 -24.480 -14.200  0.00  0.00    +0.004 C 
ATOM      7  C   UNL     1      37.687 -26.726 -14.020  0.00  0.00    -0.002 C 
ATOM      8  C   UNL     1      37.159 -23.664 -14.626  0.00  0.00    -0.024 C 
ATOM      9  C   UNL     1      35.259 -24.924 -13.458  0.00  0.00    +0.005 C 
ATOM     10  C   UNL     1      36.982 -23.070 -11.640  0.00  0.00    -0.077 C 
ATOM     11  C   UNL     1      39.616 -25.623 -15.216  0.00  0.00    +0.000 C 
ATOM     12  C   UNL     1      39.079 -26.917 -14.615  0.00  0.00    -0.000 C 
ATOM     13  C   UNL     1      35.788 -23.990 -14.522  0.00  0.00    -0.028 C 
ATOM     14  C   UNL     1      37.550 -22.759 -15.629  0.00  0.00    +0.032 C 
ATOM     15  C   UNL     1      35.236 -24.229 -10.438  0.00  0.00    -0.101 C 
ATOM     16  C   UNL     1      34.868 -23.456 -15.441  0.00  0.00    -0.002 C 
ATOM     17  C   UNL     1      36.625 -22.231 -16.531  0.00  0.00    +0.138 C 
ATOM     18  C   UNL     1      35.285 -22.584 -16.441  0.00  0.00    +0.037 C 
ATOM     19  H   UNL     1      37.149 -24.813 -10.666  0.00  0.00    -0.080 HD
ENDROOT
BRANCH  17  20
ATOM     20  O   UNL     1      37.038 -21.365 -17.497  0.00  0.00    -0.471 OA
ATOM     21  C   UNL     1      36.434 -21.492 -18.784  0.00  0.00    +0.252 C 
ENDBRANCH  17  20
TORSDOF 1
ENDMDL
MODEL 6
REMARK VINA RESULT:      -6.2      2.824      5.048
REMARK  Name = 5360696
REMARK  1 active torsions:
REMARK  status: ('A' for Active; 'I' for Inactive)
REMARK    1  A    between atoms: C_17  and  O_20
REMARK                            x       y       z     vdW  Elec       q    Type
REMARK                         _______ _______ _______ _____ _____    ______ ____
ROOT
ATOM      1  N   UNL     1      32.382  -9.093 -20.697  0.00  0.00    +0.387 N 
ATOM      2  C   UNL     1      33.853  -8.341 -23.117  0.00  0.00    +0.015 C 
ATOM      3  C   UNL     1      33.281  -9.765 -22.872  0.00  0.00    -0.015 C 
ATOM      4  C   UNL     1      32.004  -9.644 -22.017  0.00  0.00    -0.053 C 
ATOM      5  C   UNL     1      34.194  -7.736 -21.727  0.00  0.00    -0.019 C 
ATOM      6  C   UNL     1      35.163  -8.491 -23.940  0.00  0.00    +0.004 C 
ATOM      7  C   UNL     1      33.074 -10.557 -24.179  0.00  0.00    -0.002 C 
ATOM      8  C   UNL     1      32.799  -7.429 -23.773  0.00  0.00    -0.024 C 
ATOM      9  C   UNL     1      30.919  -8.863 -22.785  0.00  0.00    +0.005 C 
ATOM     10  C   UNL     1      33.010  -7.770 -20.750  0.00  0.00    -0.077 C 
ATOM     11  C   UNL     1      34.964  -9.266 -25.244  0.00  0.00    +0.000 C 
ATOM     12  C   UNL     1      34.366 -10.645 -24.986  0.00  0.00    -0.000 C 
ATOM     13  C   UNL     1      31.421  -7.682 -23.586  0.00  0.00    -0.028 C 
ATOM     14  C   UNL     1      33.168  -6.288 -24.506  0.00  0.00    +0.032 C 
ATOM     15  C   UNL     1      31.297  -9.127 -19.721  0.00  0.00    -0.101 C 
ATOM     16  C   UNL     1      30.465  -6.835 -24.173  0.00  0.00    -0.002 C 
ATOM     17  C   UNL     1      32.209  -5.450 -25.077  0.00  0.00    +0.138 C 
ATOM     18  C   UNL     1      30.857  -5.726 -24.916  0.00  0.00    +0.037 C 
ATOM     19  H   UNL     1      33.103  -9.735 -20.368  0.00  0.00    -0.080 HD
ENDROOT
BRANCH  17  20
ATOM     20  O   UNL     1      32.600  -4.358 -25.790  0.00  0.00    -0.471 OA
ATOM     21  C   UNL     1      33.405  -4.591 -26.945  0.00  0.00    +0.252 C 
ENDBRANCH  17  20
TORSDOF 1
ENDMDL
MODEL 7
REMARK VINA RESULT:      -6.1      6.548     10.256
REMARK  Name = 5360696
REMARK  1 active torsions:
REMARK  status: ('A' for Active; 'I' for Inactive)
REMARK    1  A    between atoms: C_17  and  O_20
REMARK                            x       y       z     vdW  Elec       q    Type
REMARK                         _______ _______ _______ _____ _____    ______ ____
ROOT
ATOM      1  N   UNL     1      35.700 -20.097 -21.044  0.00  0.00    +0.387 N 
ATOM      2  C   UNL     1      35.274 -17.735 -22.725  0.00  0.00    +0.015 C 
ATOM      3  C   UNL     1      34.879 -19.174 -23.157  0.00  0.00    -0.015 C 
ATOM      4  C   UNL     1      34.499 -19.981 -21.900  0.00  0.00    -0.053 C 
ATOM      5  C   UNL     1      36.498 -17.859 -21.777  0.00  0.00    -0.019 C 
ATOM      6  C   UNL     1      35.698 -16.956 -24.001  0.00  0.00    +0.004 C 
ATOM      7  C   UNL     1      33.793 -19.191 -24.251  0.00  0.00    -0.002 C 
ATOM      8  C   UNL     1      34.137 -17.068 -21.929  0.00  0.00    -0.024 C 
ATOM      9  C   UNL     1      33.253 -19.369 -21.229  0.00  0.00    +0.005 C 
ATOM     10  C   UNL     1      36.254 -18.815 -20.601  0.00  0.00    -0.077 C 
ATOM     11  C   UNL     1      34.620 -16.958 -25.087  0.00  0.00    +0.000 C 
ATOM     12  C   UNL     1      34.219 -18.379 -25.470  0.00  0.00    -0.000 C 
ATOM     13  C   UNL     1      33.207 -17.857 -21.214  0.00  0.00    -0.028 C 
ATOM     14  C   UNL     1      34.033 -15.669 -21.827  0.00  0.00    +0.032 C 
ATOM     15  C   UNL     1      35.529 -21.017 -19.925  0.00  0.00    -0.101 C 
ATOM     16  C   UNL     1      32.184 -17.240 -20.475  0.00  0.00    -0.002 C 
ATOM     17  C   UNL     1      33.017 -15.068 -21.083  0.00  0.00    +0.138 C 
ATOM     18  C   UNL     1      32.088 -15.853 -20.412  0.00  0.00    +0.037 C 
ATOM     19  H   UNL     1      36.398 -20.506 -21.666  0.00  0.00    -0.080 HD
ENDROOT
BRANCH  17  20
ATOM     20  O   UNL     1      32.938 -13.711 -21.013  0.00  0.00    -0.471 OA
ATOM     21  C   UNL     1      32.251 -13.045 -22.071  0.00  0.00    +0.252 C 
ENDBRANCH  17  20
TORSDOF 1
ENDMDL
MODEL 8
REMARK VINA RESULT:      -6.1     16.008     18.655
REMARK  Name = 5360696
REMARK  1 active torsions:
REMARK  status: ('A' for Active; 'I' for Inactive)
REMARK    1  A    between atoms: C_17  and  O_20
REMARK                            x       y       z     vdW  Elec       q    Type
REMARK                         _______ _______ _______ _____ _____    ______ ____
ROOT
ATOM      1  N   UNL     1      34.441 -22.900 -15.913  0.00  0.00    +0.387 N 
ATOM      2  C   UNL     1      36.552 -23.396 -13.941  0.00  0.00    +0.015 C 
ATOM      3  C   UNL     1      35.037 -23.400 -13.592  0.00  0.00    -0.015 C 
ATOM      4  C   UNL     1      34.247 -23.882 -14.824  0.00  0.00    -0.053 C 
ATOM      5  C   UNL     1      36.749 -22.410 -15.125  0.00  0.00    -0.019 C 
ATOM      6  C   UNL     1      37.323 -22.862 -12.703  0.00  0.00    +0.004 C 
ATOM      7  C   UNL     1      34.723 -24.195 -12.309  0.00  0.00    -0.002 C 
ATOM      8  C   UNL     1      37.010 -24.787 -14.416  0.00  0.00    -0.024 C 
ATOM      9  C   UNL     1      34.622 -25.340 -15.161  0.00  0.00    +0.005 C 
ATOM     10  C   UNL     1      35.836 -22.716 -16.322  0.00  0.00    -0.077 C 
ATOM     11  C   UNL     1      37.025 -23.652 -11.427  0.00  0.00    +0.000 C 
ATOM     12  C   UNL     1      35.531 -23.677 -11.123  0.00  0.00    -0.000 C 
ATOM     13  C   UNL     1      36.087 -25.680 -15.007  0.00  0.00    -0.028 C 
ATOM     14  C   UNL     1      38.359 -25.180 -14.347  0.00  0.00    +0.032 C 
ATOM     15  C   UNL     1      33.576 -23.132 -17.065  0.00  0.00    -0.101 C 
ATOM     16  C   UNL     1      36.518 -26.941 -15.454  0.00  0.00    -0.002 C 
ATOM     17  C   UNL     1      38.775 -26.432 -14.802  0.00  0.00    +0.138 C 
ATOM     18  C   UNL     1      37.853 -27.316 -15.350  0.00  0.00    +0.037 C 
ATOM     19  H   UNL     1      34.152 -22.017 -15.492  0.00  0.00    -0.080 HD
ENDROOT
BRANCH  17  20
ATOM     20  O   UNL     1      40.086 -26.786 -14.712  0.00  0.00    -0.471 OA
ATOM     21  C   UNL     1      40.996 -25.791 -14.244  0.00  0.00    +0.252 C 
ENDBRANCH  17  20
TORSDOF 1
ENDMDL
MODEL 9
REMARK VINA RESULT:      -5.1      3.511      6.226
REMARK  Name = 5360696
REMARK  1 active torsions:
REMARK  status: ('A' for Active; 'I' for Inactive)
REMARK    1  A    between atoms: C_17  and  O_20
REMARK                            x       y       z     vdW  Elec       q    Type
REMARK                         _______ _______ _______ _____ _____    ______ ____
ROOT
ATOM      1  N   UNL     1      31.200  -8.179 -22.951  0.00  0.00    +0.387 N 
ATOM      2  C   UNL     1      31.213  -5.604 -24.348  0.00  0.00    +0.015 C 
ATOM      3  C   UNL     1      31.326  -5.740 -22.804  0.00  0.00    -0.015 C 
ATOM      4  C   UNL     1      32.045  -7.063 -22.475  0.00  0.00    -0.053 C 
ATOM      5  C   UNL     1      30.376  -6.810 -24.856  0.00  0.00    -0.019 C 
ATOM      6  C   UNL     1      30.444  -4.288 -24.653  0.00  0.00    +0.004 C 
ATOM      7  C   UNL     1      31.973  -4.506 -22.143  0.00  0.00    -0.002 C 
ATOM      8  C   UNL     1      32.600  -5.690 -25.011  0.00  0.00    -0.024 C 
ATOM      9  C   UNL     1      33.489  -7.034 -23.019  0.00  0.00    +0.005 C 
ATOM     10  C   UNL     1      30.929  -8.165 -24.391  0.00  0.00    -0.077 C 
ATOM     11  C   UNL     1      31.086  -3.058 -24.010  0.00  0.00    +0.000 C 
ATOM     12  C   UNL     1      31.224  -3.226 -22.501  0.00  0.00    -0.000 C 
ATOM     13  C   UNL     1      33.653  -6.387 -24.376  0.00  0.00    -0.028 C 
ATOM     14  C   UNL     1      32.840  -5.150 -26.287  0.00  0.00    +0.032 C 
ATOM     15  C   UNL     1      31.669  -9.490 -22.512  0.00  0.00    -0.101 C 
ATOM     16  C   UNL     1      34.911  -6.477 -24.996  0.00  0.00    -0.002 C 
ATOM     17  C   UNL     1      34.092  -5.253 -26.896  0.00  0.00    +0.138 C 
ATOM     18  C   UNL     1      35.129  -5.911 -26.248  0.00  0.00    +0.037 C 
ATOM     19  H   UNL     1      30.304  -8.012 -22.494  0.00  0.00    -0.080 HD
ENDROOT
BRANCH  17  20
ATOM     20  O   UNL     1      34.294  -4.710 -28.128  0.00  0.00    -0.471 OA
ATOM     21  C   UNL     1      33.136  -4.459 -28.924  0.00  0.00    +0.252 C 
ENDBRANCH  17  20
TORSDOF 1
ENDMDL
