MODEL 1
REMARK VINA RESULT:      -6.4      0.000      0.000
REMARK  Name = 9794485
REMARK  5 active torsions:
REMARK  status: ('A' for Active; 'I' for Inactive)
REMARK    1  A    between atoms: C_1  and  C_8
REMARK    2  A    between atoms: C_1  and  C_13
REMARK    3  A    between atoms: C_8  and  C_10
REMARK    4  A    between atoms: C_10  and  O_11
REMARK    5  A    between atoms: C_13  and  N_14
REMARK                            x       y       z     vdW  Elec       q    Type
REMARK                         _______ _______ _______ _____ _____    ______ ____
ROOT
ATOM      1  C   UNL     1      30.462 -23.737 -15.205  0.00  0.00    -0.009 C 
ATOM      2  C   UNL     1      32.742 -24.243 -14.470  0.00  0.00    -0.000 C 
ATOM      3  C   UNL     1      32.821 -23.203 -15.592  0.00  0.00    -0.000 C 
ATOM      4  C   UNL     1      31.312 -24.059 -13.953  0.00  0.00    -0.002 C 
ATOM      5  C   UNL     1      31.484 -23.395 -16.315  0.00  0.00    -0.002 C 
ATOM      6  C   UNL     1      33.784 -24.056 -13.378  0.00  0.00    -0.000 C 
ATOM      7  C   UNL     1      34.014 -23.379 -16.517  0.00  0.00    -0.000 C 
ENDROOT
BRANCH   1   8
ATOM      8  C   UNL     1      29.535 -22.545 -14.930  0.00  0.00    +0.107 C 
BRANCH   8  10
ATOM      9  O   UNL     1      28.601 -22.008 -17.114  0.00  0.00    -0.250 OA
ATOM     10  C   UNL     1      28.473 -22.414 -15.968  0.00  0.00    +0.314 C 
BRANCH  10  11
ATOM     11  O   UNL     1      27.292 -22.825 -15.439  0.00  0.00    -0.480 OA
ATOM     12  H   UNL     1      26.671 -22.195 -15.132  0.00  0.00    +0.295 HD
ENDBRANCH  10  11
ENDBRANCH   8  10
ENDBRANCH   1   8
BRANCH   1  13
ATOM     13  C   UNL     1      29.614 -24.948 -15.615  0.00  0.00    -0.085 C 
BRANCH  13  14
ATOM     14  N   UNL     1      28.921 -25.500 -14.464  0.00  0.00    +0.380 N 
ATOM     15  H   UNL     1      27.925 -25.290 -14.533  0.00  0.00    -0.089 HD
ATOM     16  H   UNL     1      29.296 -25.087 -13.610  0.00  0.00    -0.089 HD
ATOM     17  H   UNL     1      29.053 -26.511 -14.439  0.00  0.00    -0.089 HD
ENDBRANCH  13  14
ENDBRANCH   1  13
TORSDOF 5
ENDMDL
MODEL 2
REMARK VINA RESULT:      -6.4      7.915      9.379
REMARK  Name = 9794485
REMARK  5 active torsions:
REMARK  status: ('A' for Active; 'I' for Inactive)
REMARK    1  A    between atoms: C_1  and  C_8
REMARK    2  A    between atoms: C_1  and  C_13
REMARK    3  A    between atoms: C_8  and  C_10
REMARK    4  A    between atoms: C_10  and  O_11
REMARK    5  A    between atoms: C_13  and  N_14
REMARK                            x       y       z     vdW  Elec       q    Type
REMARK                         _______ _______ _______ _____ _____    ______ ____
ROOT
ATOM      1  C   UNL     1      34.792 -18.186 -21.532  0.00  0.00    -0.009 C 
ATOM      2  C   UNL     1      34.115 -20.370 -20.656  0.00  0.00    -0.000 C 
ATOM      3  C   UNL     1      35.548 -20.091 -20.190  0.00  0.00    -0.000 C 
ATOM      4  C   UNL     1      33.587 -18.962 -20.950  0.00  0.00    -0.002 C 
ATOM      5  C   UNL     1      36.031 -19.056 -21.211  0.00  0.00    -0.002 C 
ATOM      6  C   UNL     1      33.265 -21.108 -19.634  0.00  0.00    -0.000 C 
ATOM      7  C   UNL     1      36.436 -21.325 -20.147  0.00  0.00    -0.000 C 
ENDROOT
BRANCH   1   8
ATOM      8  C   UNL     1      34.908 -16.806 -20.871  0.00  0.00    +0.107 C 
BRANCH   8  10
ATOM      9  O   UNL     1      32.627 -15.956 -20.930  0.00  0.00    -0.250 OA
ATOM     10  C   UNL     1      33.797 -15.898 -21.278  0.00  0.00    +0.314 C 
BRANCH  10  11
ATOM     11  O   UNL     1      34.289 -14.957 -22.124  0.00  0.00    -0.480 OA
ATOM     12  H   UNL     1      34.452 -14.088 -21.815  0.00  0.00    +0.295 HD
ENDBRANCH  10  11
ENDBRANCH   8  10
ENDBRANCH   1   8
BRANCH   1  13
ATOM     13  C   UNL     1      34.645 -18.005 -23.048  0.00  0.00    -0.085 C 
BRANCH  13  14
ATOM     14  N   UNL     1      35.785 -17.288 -23.590  0.00  0.00    +0.380 N 
ATOM     15  H   UNL     1      35.464 -16.433 -24.046  0.00  0.00    -0.089 HD
ATOM     16  H   UNL     1      36.266 -17.875 -24.271  0.00  0.00    -0.089 HD
ATOM     17  H   UNL     1      36.427 -17.048 -22.835  0.00  0.00    -0.089 HD
ENDBRANCH  13  14
ENDBRANCH   1  13
TORSDOF 5
ENDMDL
MODEL 3
REMARK VINA RESULT:      -6.3      5.643      6.958
REMARK  Name = 9794485
REMARK  5 active torsions:
REMARK  status: ('A' for Active; 'I' for Inactive)
REMARK    1  A    between atoms: C_1  and  C_8
REMARK    2  A    between atoms: C_1  and  C_13
REMARK    3  A    between atoms: C_8  and  C_10
REMARK    4  A    between atoms: C_10  and  O_11
REMARK    5  A    between atoms: C_13  and  N_14
REMARK                            x       y       z     vdW  Elec       q    Type
REMARK                         _______ _______ _______ _____ _____    ______ ____
ROOT
ATOM      1  C   UNL     1      36.177 -24.278 -13.889  0.00  0.00    -0.009 C 
ATOM      2  C   UNL     1      36.586 -23.036 -15.959  0.00  0.00    -0.000 C 
ATOM      3  C   UNL     1      35.083 -22.991 -15.663  0.00  0.00    -0.000 C 
ATOM      4  C   UNL     1      37.183 -23.326 -14.579  0.00  0.00    -0.002 C 
ATOM      5  C   UNL     1      34.891 -24.203 -14.746  0.00  0.00    -0.002 C 
ATOM      6  C   UNL     1      37.134 -21.757 -16.573  0.00  0.00    -0.000 C 
ATOM      7  C   UNL     1      34.205 -23.053 -16.903  0.00  0.00    -0.000 C 
ENDROOT
BRANCH   1   8
ATOM      8  C   UNL     1      35.904 -23.817 -12.452  0.00  0.00    +0.107 C 
BRANCH   8  10
ATOM      9  O   UNL     1      37.955 -24.460 -11.308  0.00  0.00    -0.250 OA
ATOM     10  C   UNL     1      37.165 -23.608 -11.684  0.00  0.00    +0.314 C 
BRANCH  10  11
ATOM     11  O   UNL     1      37.318 -22.279 -11.450  0.00  0.00    -0.480 OA
ATOM     12  H   UNL     1      37.070 -21.656 -12.103  0.00  0.00    +0.295 HD
ENDBRANCH  10  11
ENDBRANCH   8  10
ENDBRANCH   1   8
BRANCH   1  13
ATOM     13  C   UNL     1      36.717 -25.714 -13.861  0.00  0.00    -0.085 C 
BRANCH  13  14
ATOM     14  N   UNL     1      36.064 -26.526 -14.873  0.00  0.00    +0.380 N 
ATOM     15  H   UNL     1      36.698 -26.662 -15.661  0.00  0.00    -0.089 HD
ATOM     16  H   UNL     1      35.219 -26.054 -15.195  0.00  0.00    -0.089 HD
ATOM     17  H   UNL     1      35.817 -27.432 -14.476  0.00  0.00    -0.089 HD
ENDBRANCH  13  14
ENDBRANCH   1  13
TORSDOF 5
ENDMDL
MODEL 4
REMARK VINA RESULT:      -6.2      8.013      9.682
REMARK  Name = 9794485
REMARK  5 active torsions:
REMARK  status: ('A' for Active; 'I' for Inactive)
REMARK    1  A    between atoms: C_1  and  C_8
REMARK    2  A    between atoms: C_1  and  C_13
REMARK    3  A    between atoms: C_8  and  C_10
REMARK    4  A    between atoms: C_10  and  O_11
REMARK    5  A    between atoms: C_13  and  N_14
REMARK                            x       y       z     vdW  Elec       q    Type
REMARK                         _______ _______ _______ _____ _____    ______ ____
ROOT
ATOM      1  C   UNL     1      35.349 -18.377 -21.908  0.00  0.00    -0.009 C 
ATOM      2  C   UNL     1      35.602 -19.997 -20.090  0.00  0.00    -0.000 C 
ATOM      3  C   UNL     1      34.370 -20.389 -20.911  0.00  0.00    -0.000 C 
ATOM      4  C   UNL     1      36.404 -19.154 -21.084  0.00  0.00    -0.002 C 
ATOM      5  C   UNL     1      34.001 -19.072 -21.602  0.00  0.00    -0.002 C 
ATOM      6  C   UNL     1      36.394 -21.182 -19.559  0.00  0.00    -0.000 C 
ATOM      7  C   UNL     1      33.226 -20.952 -20.083  0.00  0.00    -0.000 C 
ENDROOT
BRANCH   1   8
ATOM      8  C   UNL     1      35.677 -18.455 -23.405  0.00  0.00    +0.107 C 
BRANCH   8  10
ATOM      9  O   UNL     1      34.234 -16.699 -24.281  0.00  0.00    -0.250 OA
ATOM     10  C   UNL     1      34.593 -17.867 -24.244  0.00  0.00    +0.314 C 
BRANCH  10  11
ATOM     11  O   UNL     1      34.037 -18.852 -24.994  0.00  0.00    -0.480 OA
ATOM     12  H   UNL     1      33.209 -18.715 -25.409  0.00  0.00    +0.295 HD
ENDBRANCH  10  11
ENDBRANCH   8  10
ENDBRANCH   1   8
BRANCH   1  13
ATOM     13  C   UNL     1      35.300 -16.904 -21.481  0.00  0.00    -0.085 C 
BRANCH  13  14
ATOM     14  N   UNL     1      33.947 -16.524 -21.114  0.00  0.00    +0.380 N 
ATOM     15  H   UNL     1      33.593 -15.840 -21.784  0.00  0.00    -0.089 HD
ATOM     16  H   UNL     1      33.949 -16.114 -20.180  0.00  0.00    -0.089 HD
ATOM     17  H   UNL     1      33.347 -17.349 -21.123  0.00  0.00    -0.089 HD
ENDBRANCH  13  14
ENDBRANCH   1  13
TORSDOF 5
ENDMDL
MODEL 5
REMARK VINA RESULT:      -6.0      5.345      7.150
REMARK  Name = 9794485
REMARK  5 active torsions:
REMARK  status: ('A' for Active; 'I' for Inactive)
REMARK    1  A    between atoms: C_1  and  C_8
REMARK    2  A    between atoms: C_1  and  C_13
REMARK    3  A    between atoms: C_8  and  C_10
REMARK    4  A    between atoms: C_10  and  O_11
REMARK    5  A    between atoms: C_13  and  N_14
REMARK                            x       y       z     vdW  Elec       q    Type
REMARK                         _______ _______ _______ _____ _____    ______ ____
ROOT
ATOM      1  C   UNL     1      36.685 -24.341 -14.056  0.00  0.00    -0.009 C 
ATOM      2  C   UNL     1      34.736 -24.102 -15.520  0.00  0.00    -0.000 C 
ATOM      3  C   UNL     1      34.282 -23.863 -14.076  0.00  0.00    -0.000 C 
ATOM      4  C   UNL     1      36.239 -23.816 -15.442  0.00  0.00    -0.002 C 
ATOM      5  C   UNL     1      35.374 -24.569 -13.265  0.00  0.00    -0.002 C 
ATOM      6  C   UNL     1      34.030 -23.228 -16.543  0.00  0.00    -0.000 C 
ATOM      7  C   UNL     1      32.892 -24.396 -13.768  0.00  0.00    -0.000 C 
ENDROOT
BRANCH   1   8
ATOM      8  C   UNL     1      37.574 -23.307 -13.354  0.00  0.00    +0.107 C 
BRANCH   8  10
ATOM      9  O   UNL     1      37.839 -24.508 -11.252  0.00  0.00    -0.250 OA
ATOM     10  C   UNL     1      37.579 -23.489 -11.874  0.00  0.00    +0.314 C 
BRANCH  10  11
ATOM     11  O   UNL     1      37.239 -22.312 -11.288  0.00  0.00    -0.480 OA
ATOM     12  H   UNL     1      37.887 -21.649 -11.158  0.00  0.00    +0.295 HD
ENDBRANCH  10  11
ENDBRANCH   8  10
ENDBRANCH   1   8
BRANCH   1  13
ATOM     13  C   UNL     1      37.460 -25.658 -14.195  0.00  0.00    -0.085 C 
BRANCH  13  14
ATOM     14  N   UNL     1      36.891 -26.679 -13.334  0.00  0.00    +0.380 N 
ATOM     15  H   UNL     1      37.201 -27.599 -13.647  0.00  0.00    -0.089 HD
ATOM     16  H   UNL     1      35.873 -26.632 -13.376  0.00  0.00    -0.089 HD
ATOM     17  H   UNL     1      37.199 -26.526 -12.374  0.00  0.00    -0.089 HD
ENDBRANCH  13  14
ENDBRANCH   1  13
TORSDOF 5
ENDMDL
MODEL 6
REMARK VINA RESULT:      -6.0      8.511     10.049
REMARK  Name = 9794485
REMARK  5 active torsions:
REMARK  status: ('A' for Active; 'I' for Inactive)
REMARK    1  A    between atoms: C_1  and  C_8
REMARK    2  A    between atoms: C_1  and  C_13
REMARK    3  A    between atoms: C_8  and  C_10
REMARK    4  A    between atoms: C_10  and  O_11
REMARK    5  A    between atoms: C_13  and  N_14
REMARK                            x       y       z     vdW  Elec       q    Type
REMARK                         _______ _______ _______ _____ _____    ______ ____
ROOT
ATOM      1  C   UNL     1      35.204 -18.192 -22.065  0.00  0.00    -0.009 C 
ATOM      2  C   UNL     1      34.660 -15.905 -21.383  0.00  0.00    -0.000 C 
ATOM      3  C   UNL     1      34.187 -16.098 -22.827  0.00  0.00    -0.000 C 
ATOM      4  C   UNL     1      34.724 -17.344 -20.863  0.00  0.00    -0.002 C 
ATOM      5  C   UNL     1      35.047 -17.275 -23.301  0.00  0.00    -0.002 C 
ATOM      6  C   UNL     1      33.746 -15.024 -20.545  0.00  0.00    -0.000 C 
ATOM      7  C   UNL     1      34.352 -14.866 -23.703  0.00  0.00    -0.000 C 
ENDROOT
BRANCH   1   8
ATOM      8  C   UNL     1      34.342 -19.454 -22.207  0.00  0.00    +0.107 C 
BRANCH   8  10
ATOM      9  O   UNL     1      32.497 -19.399 -20.619  0.00  0.00    -0.250 OA
ATOM     10  C   UNL     1      33.612 -19.775 -20.947  0.00  0.00    +0.314 C 
BRANCH  10  11
ATOM     11  O   UNL     1      34.394 -20.580 -20.182  0.00  0.00    -0.480 OA
ATOM     12  H   UNL     1      34.147 -21.471 -20.035  0.00  0.00    +0.295 HD
ENDBRANCH  10  11
ENDBRANCH   8  10
ENDBRANCH   1   8
BRANCH   1  13
ATOM     13  C   UNL     1      36.672 -18.604 -21.890  0.00  0.00    -0.085 C 
BRANCH  13  14
ATOM     14  N   UNL     1      36.886 -19.187 -20.577  0.00  0.00    +0.380 N 
ATOM     15  H   UNL     1      36.201 -19.927 -20.418  0.00  0.00    -0.089 HD
ATOM     16  H   UNL     1      36.779 -18.467 -19.862  0.00  0.00    -0.089 HD
ATOM     17  H   UNL     1      37.826 -19.579 -20.527  0.00  0.00    -0.089 HD
ENDBRANCH  13  14
ENDBRANCH   1  13
TORSDOF 5
ENDMDL
MODEL 7
REMARK VINA RESULT:      -6.0      5.500      7.185
REMARK  Name = 9794485
REMARK  5 active torsions:
REMARK  status: ('A' for Active; 'I' for Inactive)
REMARK    1  A    between atoms: C_1  and  C_8
REMARK    2  A    between atoms: C_1  and  C_13
REMARK    3  A    between atoms: C_8  and  C_10
REMARK    4  A    between atoms: C_10  and  O_11
REMARK    5  A    between atoms: C_13  and  N_14
REMARK                            x       y       z     vdW  Elec       q    Type
REMARK                         _______ _______ _______ _____ _____    ______ ____
ROOT
ATOM      1  C   UNL     1      36.574 -24.356 -13.636  0.00  0.00    -0.009 C 
ATOM      2  C   UNL     1      35.151 -23.117 -15.197  0.00  0.00    -0.000 C 
ATOM      3  C   UNL     1      36.554 -23.215 -15.804  0.00  0.00    -0.000 C 
ATOM      4  C   UNL     1      35.139 -24.289 -14.210  0.00  0.00    -0.002 C 
ATOM      5  C   UNL     1      37.430 -23.469 -14.572  0.00  0.00    -0.002 C 
ATOM      6  C   UNL     1      34.028 -23.205 -16.218  0.00  0.00    -0.000 C 
ATOM      7  C   UNL     1      36.982 -21.978 -16.577  0.00  0.00    -0.000 C 
ENDROOT
BRANCH   1   8
ATOM      8  C   UNL     1      37.083 -25.803 -13.638  0.00  0.00    +0.107 C 
BRANCH   8  10
ATOM      9  O   UNL     1      36.278 -26.794 -15.712  0.00  0.00    -0.250 OA
ATOM     10  C   UNL     1      37.184 -26.356 -15.020  0.00  0.00    +0.314 C 
BRANCH  10  11
ATOM     11  O   UNL     1      38.482 -26.303 -15.418  0.00  0.00    -0.480 OA
ATOM     12  H   UNL     1      39.169 -26.331 -14.782  0.00  0.00    +0.295 HD
ENDBRANCH  10  11
ENDBRANCH   8  10
ENDBRANCH   1   8
BRANCH   1  13
ATOM     13  C   UNL     1      36.614 -23.812 -12.202  0.00  0.00    -0.085 C 
BRANCH  13  14
ATOM     14  N   UNL     1      37.954 -23.921 -11.652  0.00  0.00    +0.380 N 
ATOM     15  H   UNL     1      38.604 -23.388 -12.230  0.00  0.00    -0.089 HD
ATOM     16  H   UNL     1      38.238 -24.901 -11.637  0.00  0.00    -0.089 HD
ATOM     17  H   UNL     1      37.963 -23.550 -10.702  0.00  0.00    -0.089 HD
ENDBRANCH  13  14
ENDBRANCH   1  13
TORSDOF 5
ENDMDL
MODEL 8
REMARK VINA RESULT:      -5.9      6.611      8.444
REMARK  Name = 9794485
REMARK  5 active torsions:
REMARK  status: ('A' for Active; 'I' for Inactive)
REMARK    1  A    between atoms: C_1  and  C_8
REMARK    2  A    between atoms: C_1  and  C_13
REMARK    3  A    between atoms: C_8  and  C_10
REMARK    4  A    between atoms: C_10  and  O_11
REMARK    5  A    between atoms: C_13  and  N_14
REMARK                            x       y       z     vdW  Elec       q    Type
REMARK                         _______ _______ _______ _____ _____    ______ ____
ROOT
ATOM      1  C   UNL     1      37.947 -24.621 -13.887  0.00  0.00    -0.009 C 
ATOM      2  C   UNL     1      35.718 -23.860 -14.556  0.00  0.00    -0.000 C 
ATOM      3  C   UNL     1      36.699 -23.510 -15.679  0.00  0.00    -0.000 C 
ATOM      4  C   UNL     1      36.446 -24.993 -13.826  0.00  0.00    -0.002 C 
ATOM      5  C   UNL     1      38.046 -23.499 -14.949  0.00  0.00    -0.002 C 
ATOM      6  C   UNL     1      34.340 -24.276 -15.047  0.00  0.00    -0.000 C 
ATOM      7  C   UNL     1      36.402 -22.189 -16.372  0.00  0.00    -0.000 C 
ENDROOT
BRANCH   1   8
ATOM      8  C   UNL     1      38.783 -25.839 -14.301  0.00  0.00    +0.107 C 
BRANCH   8  10
ATOM      9  O   UNL     1      40.994 -24.821 -14.220  0.00  0.00    -0.250 OA
ATOM     10  C   UNL     1      40.127 -25.446 -14.813  0.00  0.00    +0.314 C 
BRANCH  10  11
ATOM     11  O   UNL     1      40.259 -25.898 -16.086  0.00  0.00    -0.480 OA
ATOM     12  H   UNL     1      39.501 -26.019 -16.622  0.00  0.00    +0.295 HD
ENDBRANCH  10  11
ENDBRANCH   8  10
ENDBRANCH   1   8
BRANCH   1  13
ATOM     13  C   UNL     1      38.439 -24.113 -12.526  0.00  0.00    -0.085 C 
BRANCH  13  14
ATOM     14  N   UNL     1      37.436 -24.342 -11.501  0.00  0.00    +0.380 N 
ATOM     15  H   UNL     1      36.815 -25.097 -11.796  0.00  0.00    -0.089 HD
ATOM     16  H   UNL     1      36.892 -23.491 -11.361  0.00  0.00    -0.089 HD
ATOM     17  H   UNL     1      37.894 -24.602 -10.628  0.00  0.00    -0.089 HD
ENDBRANCH  13  14
ENDBRANCH   1  13
TORSDOF 5
ENDMDL
MODEL 9
REMARK VINA RESULT:      -5.9     12.440     13.578
REMARK  Name = 9794485
REMARK  5 active torsions:
REMARK  status: ('A' for Active; 'I' for Inactive)
REMARK    1  A    between atoms: C_1  and  C_8
REMARK    2  A    between atoms: C_1  and  C_13
REMARK    3  A    between atoms: C_8  and  C_10
REMARK    4  A    between atoms: C_10  and  O_11
REMARK    5  A    between atoms: C_13  and  N_14
REMARK                            x       y       z     vdW  Elec       q    Type
REMARK                         _______ _______ _______ _____ _____    ______ ____
ROOT
ATOM      1  C   UNL     1      33.346 -13.601 -24.133  0.00  0.00    -0.009 C 
ATOM      2  C   UNL     1      34.190 -14.451 -21.998  0.00  0.00    -0.000 C 
ATOM      3  C   UNL     1      32.693 -14.168 -21.841  0.00  0.00    -0.000 C 
ATOM      4  C   UNL     1      34.335 -14.617 -23.514  0.00  0.00    -0.002 C 
ATOM      5  C   UNL     1      32.427 -13.164 -22.967  0.00  0.00    -0.002 C 
ATOM      6  C   UNL     1      34.672 -15.672 -21.231  0.00  0.00    -0.000 C 
ATOM      7  C   UNL     1      32.304 -13.626 -20.474  0.00  0.00    -0.000 C 
ENDROOT
BRANCH   1   8
ATOM      8  C   UNL     1      32.531 -14.264 -25.252  0.00  0.00    +0.107 C 
BRANCH   8  10
ATOM      9  O   UNL     1      33.867 -16.105 -26.121  0.00  0.00    -0.250 OA
ATOM     10  C   UNL     1      33.402 -14.980 -26.227  0.00  0.00    +0.314 C 
BRANCH  10  11
ATOM     11  O   UNL     1      33.616 -14.172 -27.298  0.00  0.00    -0.480 OA
ATOM     12  H   UNL     1      34.481 -13.868 -27.490  0.00  0.00    +0.295 HD
ENDBRANCH  10  11
ENDBRANCH   8  10
ENDBRANCH   1   8
BRANCH   1  13
ATOM     13  C   UNL     1      34.094 -12.391 -24.707  0.00  0.00    -0.085 C 
BRANCH  13  14
ATOM     14  N   UNL     1      33.994 -11.255 -23.807  0.00  0.00    +0.380 N 
ATOM     15  H   UNL     1      34.550 -11.434 -22.971  0.00  0.00    -0.089 HD
ATOM     16  H   UNL     1      33.019 -11.114 -23.543  0.00  0.00    -0.089 HD
ATOM     17  H   UNL     1      34.344 -10.419 -24.274  0.00  0.00    -0.089 HD
ENDBRANCH  13  14
ENDBRANCH   1  13
TORSDOF 5
ENDMDL
