MODEL 1
REMARK VINA RESULT:      -7.8      0.000      0.000
REMARK  Name = 4284
REMARK  3 active torsions:
REMARK  status: ('A' for Active; 'I' for Inactive)
REMARK    1  A    between atoms: N_2  and  C_11
REMARK    2  A    between atoms: N_2  and  C_13
REMARK    3  A    between atoms: C_3  and  C_4
REMARK                            x       y       z     vdW  Elec       q    Type
REMARK                         _______ _______ _______ _____ _____    ______ ____
ROOT
ATOM      1  O   UNL     1      35.435 -18.740 -23.623  0.00  0.00    -0.270 OA
ATOM      2  N   UNL     1      34.699 -16.964 -22.293  0.00  0.00    -0.276 N 
ATOM      3  C   UNL     1      34.946 -18.323 -22.565  0.00  0.00    +0.249 C 
ENDROOT
BRANCH   3   4
ATOM      4  C   UNL     1      34.627 -19.312 -21.550  0.00  0.00    +0.053 C 
ATOM      5  C   UNL     1      35.650 -19.919 -20.819  0.00  0.00    +0.000 C 
ATOM      6  C   UNL     1      35.342 -20.866 -19.843  0.00  0.00    -0.022 C 
ATOM      7  C   UNL     1      33.297 -19.654 -21.303  0.00  0.00    +0.004 C 
ATOM      8  C   UNL     1      34.012 -21.208 -19.596  0.00  0.00    -0.004 C 
ATOM      9  C   UNL     1      32.990 -20.602 -20.327  0.00  0.00    -0.000 C 
ATOM     10  C   UNL     1      36.434 -21.514 -19.062  0.00  0.00    +0.031 C 
ENDBRANCH   3   4
BRANCH   2  11
ATOM     11  C   UNL     1      35.006 -15.912 -23.253  0.00  0.00    +0.094 C 
ATOM     12  C   UNL     1      33.862 -15.694 -24.221  0.00  0.00    +0.023 C 
ENDBRANCH   2  11
BRANCH   2  13
ATOM     13  C   UNL     1      34.119 -16.516 -21.029  0.00  0.00    +0.094 C 
ATOM     14  C   UNL     1      34.566 -15.110 -20.682  0.00  0.00    +0.023 C 
ENDBRANCH   2  13
TORSDOF 3
ENDMDL
MODEL 2
REMARK VINA RESULT:      -7.6      1.013      1.995
REMARK  Name = 4284
REMARK  3 active torsions:
REMARK  status: ('A' for Active; 'I' for Inactive)
REMARK    1  A    between atoms: N_2  and  C_11
REMARK    2  A    between atoms: N_2  and  C_13
REMARK    3  A    between atoms: C_3  and  C_4
REMARK                            x       y       z     vdW  Elec       q    Type
REMARK                         _______ _______ _______ _____ _____    ______ ____
ROOT
ATOM      1  O   UNL     1      35.210 -17.552 -23.988  0.00  0.00    -0.270 OA
ATOM      2  N   UNL     1      34.762 -16.019 -22.280  0.00  0.00    -0.276 N 
ATOM      3  C   UNL     1      35.057 -17.299 -22.786  0.00  0.00    +0.249 C 
ENDROOT
BRANCH   3   4
ATOM      4  C   UNL     1      35.208 -18.405 -21.854  0.00  0.00    +0.053 C 
ATOM      5  C   UNL     1      34.087 -19.112 -21.420  0.00  0.00    +0.000 C 
ATOM      6  C   UNL     1      34.235 -20.175 -20.528  0.00  0.00    -0.022 C 
ATOM      7  C   UNL     1      36.477 -18.761 -21.396  0.00  0.00    +0.004 C 
ATOM      8  C   UNL     1      35.503 -20.531 -20.070  0.00  0.00    -0.004 C 
ATOM      9  C   UNL     1      36.624 -19.824 -20.504  0.00  0.00    -0.000 C 
ATOM     10  C   UNL     1      33.036 -20.931 -20.065  0.00  0.00    +0.031 C 
ENDBRANCH   3   4
BRANCH   2  11
ATOM     11  C   UNL     1      34.610 -14.859 -23.148  0.00  0.00    +0.094 C 
ATOM     12  C   UNL     1      33.453 -15.033 -24.109  0.00  0.00    +0.023 C 
ENDBRANCH   2  11
BRANCH   2  13
ATOM     13  C   UNL     1      34.589 -15.767 -20.851  0.00  0.00    +0.094 C 
ATOM     14  C   UNL     1      33.186 -15.289 -20.538  0.00  0.00    +0.023 C 
ENDBRANCH   2  13
TORSDOF 3
ENDMDL
MODEL 3
REMARK VINA RESULT:      -7.5      1.391      2.076
REMARK  Name = 4284
REMARK  3 active torsions:
REMARK  status: ('A' for Active; 'I' for Inactive)
REMARK    1  A    between atoms: N_2  and  C_11
REMARK    2  A    between atoms: N_2  and  C_13
REMARK    3  A    between atoms: C_3  and  C_4
REMARK                            x       y       z     vdW  Elec       q    Type
REMARK                         _______ _______ _______ _____ _____    ______ ____
ROOT
ATOM      1  O   UNL     1      34.920 -16.454 -20.780  0.00  0.00    -0.270 OA
ATOM      2  N   UNL     1      34.786 -17.251 -22.974  0.00  0.00    -0.276 N 
ATOM      3  C   UNL     1      34.769 -17.392 -21.574  0.00  0.00    +0.249 C 
ENDROOT
BRANCH   3   4
ATOM      4  C   UNL     1      34.549 -18.710 -21.003  0.00  0.00    +0.053 C 
ATOM      5  C   UNL     1      35.635 -19.494 -20.614  0.00  0.00    +0.000 C 
ATOM      6  C   UNL     1      35.422 -20.758 -20.063  0.00  0.00    -0.022 C 
ATOM      7  C   UNL     1      33.249 -19.191 -20.842  0.00  0.00    +0.004 C 
ATOM      8  C   UNL     1      34.123 -21.239 -19.902  0.00  0.00    -0.004 C 
ATOM      9  C   UNL     1      33.036 -20.455 -20.291  0.00  0.00    -0.000 C 
ATOM     10  C   UNL     1      36.583 -21.595 -19.647  0.00  0.00    +0.031 C 
ENDBRANCH   3   4
BRANCH   2  11
ATOM     11  C   UNL     1      34.986 -15.961 -23.621  0.00  0.00    +0.094 C 
ATOM     12  C   UNL     1      33.758 -15.082 -23.496  0.00  0.00    +0.023 C 
ENDBRANCH   2  11
BRANCH   2  13
ATOM     13  C   UNL     1      34.603 -18.388 -23.873  0.00  0.00    +0.094 C 
ATOM     14  C   UNL     1      34.524 -17.942 -25.320  0.00  0.00    +0.023 C 
ENDBRANCH   2  13
TORSDOF 3
ENDMDL
MODEL 4
REMARK VINA RESULT:      -7.5      1.622      2.762
REMARK  Name = 4284
REMARK  3 active torsions:
REMARK  status: ('A' for Active; 'I' for Inactive)
REMARK    1  A    between atoms: N_2  and  C_11
REMARK    2  A    between atoms: N_2  and  C_13
REMARK    3  A    between atoms: C_3  and  C_4
REMARK                            x       y       z     vdW  Elec       q    Type
REMARK                         _______ _______ _______ _____ _____    ______ ____
ROOT
ATOM      1  O   UNL     1      35.038 -15.893 -20.576  0.00  0.00    -0.270 OA
ATOM      2  N   UNL     1      34.690 -16.421 -22.827  0.00  0.00    -0.276 N 
ATOM      3  C   UNL     1      34.937 -16.735 -21.477  0.00  0.00    +0.249 C 
ENDROOT
BRANCH   3   4
ATOM      4  C   UNL     1      35.072 -18.131 -21.094  0.00  0.00    +0.053 C 
ATOM      5  C   UNL     1      33.937 -18.891 -20.813  0.00  0.00    +0.000 C 
ATOM      6  C   UNL     1      34.068 -20.232 -20.448  0.00  0.00    -0.022 C 
ATOM      7  C   UNL     1      36.338 -18.711 -21.010  0.00  0.00    +0.004 C 
ATOM      8  C   UNL     1      35.333 -20.811 -20.363  0.00  0.00    -0.004 C 
ATOM      9  C   UNL     1      36.469 -20.051 -20.644  0.00  0.00    -0.000 C 
ATOM     10  C   UNL     1      32.854 -21.045 -20.148  0.00  0.00    +0.031 C 
ENDBRANCH   3   4
BRANCH   2  11
ATOM     11  C   UNL     1      34.528 -15.048 -23.286  0.00  0.00    +0.094 C 
ATOM     12  C   UNL     1      33.120 -14.545 -23.042  0.00  0.00    +0.023 C 
ENDBRANCH   2  11
BRANCH   2  13
ATOM     13  C   UNL     1      34.579 -17.451 -23.858  0.00  0.00    +0.094 C 
ATOM     14  C   UNL     1      34.871 -16.889 -25.235  0.00  0.00    +0.023 C 
ENDBRANCH   2  13
TORSDOF 3
ENDMDL
MODEL 5
REMARK VINA RESULT:      -7.2      1.621      5.159
REMARK  Name = 4284
REMARK  3 active torsions:
REMARK  status: ('A' for Active; 'I' for Inactive)
REMARK    1  A    between atoms: N_2  and  C_11
REMARK    2  A    between atoms: N_2  and  C_13
REMARK    3  A    between atoms: C_3  and  C_4
REMARK                            x       y       z     vdW  Elec       q    Type
REMARK                         _______ _______ _______ _____ _____    ______ ____
ROOT
ATOM      1  O   UNL     1      37.340 -19.367 -20.987  0.00  0.00    -0.270 OA
ATOM      2  N   UNL     1      35.233 -20.282 -20.552  0.00  0.00    -0.276 N 
ATOM      3  C   UNL     1      36.105 -19.290 -21.037  0.00  0.00    +0.249 C 
ENDROOT
BRANCH   3   4
ATOM      4  C   UNL     1      35.543 -18.099 -21.652  0.00  0.00    +0.053 C 
ATOM      5  C   UNL     1      35.411 -18.024 -23.038  0.00  0.00    +0.000 C 
ATOM      6  C   UNL     1      34.868 -16.880 -23.626  0.00  0.00    -0.022 C 
ATOM      7  C   UNL     1      35.133 -17.030 -20.853  0.00  0.00    +0.004 C 
ATOM      8  C   UNL     1      34.458 -15.812 -22.828  0.00  0.00    -0.004 C 
ATOM      9  C   UNL     1      34.591 -15.887 -21.442  0.00  0.00    -0.000 C 
ATOM     10  C   UNL     1      34.726 -16.800 -25.109  0.00  0.00    +0.031 C 
ENDBRANCH   3   4
BRANCH   2  11
ATOM     11  C   UNL     1      35.719 -21.510 -19.938  0.00  0.00    +0.094 C 
ATOM     12  C   UNL     1      36.485 -21.227 -18.662  0.00  0.00    +0.023 C 
ENDBRANCH   2  11
BRANCH   2  13
ATOM     13  C   UNL     1      33.780 -20.148 -20.633  0.00  0.00    +0.094 C 
ATOM     14  C   UNL     1      33.084 -21.061 -19.644  0.00  0.00    +0.023 C 
ENDBRANCH   2  13
TORSDOF 3
ENDMDL
MODEL 6
REMARK VINA RESULT:      -7.1      1.544      5.090
REMARK  Name = 4284
REMARK  3 active torsions:
REMARK  status: ('A' for Active; 'I' for Inactive)
REMARK    1  A    between atoms: N_2  and  C_11
REMARK    2  A    between atoms: N_2  and  C_13
REMARK    3  A    between atoms: C_3  and  C_4
REMARK                            x       y       z     vdW  Elec       q    Type
REMARK                         _______ _______ _______ _____ _____    ______ ____
ROOT
ATOM      1  O   UNL     1      37.333 -19.111 -21.106  0.00  0.00    -0.270 OA
ATOM      2  N   UNL     1      35.254 -20.125 -20.766  0.00  0.00    -0.276 N 
ATOM      3  C   UNL     1      36.098 -19.080 -21.186  0.00  0.00    +0.249 C 
ENDROOT
BRANCH   3   4
ATOM      4  C   UNL     1      35.504 -17.886 -21.765  0.00  0.00    +0.053 C 
ATOM      5  C   UNL     1      34.970 -16.899 -20.937  0.00  0.00    +0.000 C 
ATOM      6  C   UNL     1      34.402 -15.753 -21.495  0.00  0.00    -0.022 C 
ATOM      7  C   UNL     1      35.471 -17.727 -23.151  0.00  0.00    +0.004 C 
ATOM      8  C   UNL     1      34.369 -15.594 -22.880  0.00  0.00    -0.004 C 
ATOM      9  C   UNL     1      34.903 -16.581 -23.708  0.00  0.00    -0.000 C 
ATOM     10  C   UNL     1      33.831 -14.698 -20.609  0.00  0.00    +0.031 C 
ENDBRANCH   3   4
BRANCH   2  11
ATOM     11  C   UNL     1      35.775 -21.358 -20.191  0.00  0.00    +0.094 C 
ATOM     12  C   UNL     1      36.477 -21.103 -18.873  0.00  0.00    +0.023 C 
ENDBRANCH   2  11
BRANCH   2  13
ATOM     13  C   UNL     1      33.800 -20.045 -20.880  0.00  0.00    +0.094 C 
ATOM     14  C   UNL     1      33.114 -20.858 -19.801  0.00  0.00    +0.023 C 
ENDBRANCH   2  13
TORSDOF 3
ENDMDL
MODEL 7
REMARK VINA RESULT:      -6.8      8.977     12.110
REMARK  Name = 4284
REMARK  3 active torsions:
REMARK  status: ('A' for Active; 'I' for Inactive)
REMARK    1  A    between atoms: N_2  and  C_11
REMARK    2  A    between atoms: N_2  and  C_13
REMARK    3  A    between atoms: C_3  and  C_4
REMARK                            x       y       z     vdW  Elec       q    Type
REMARK                         _______ _______ _______ _____ _____    ______ ____
ROOT
ATOM      1  O   UNL     1      33.112  -7.405 -20.112  0.00  0.00    -0.270 OA
ATOM      2  N   UNL     1      32.034  -9.224 -21.111  0.00  0.00    -0.276 N 
ATOM      3  C   UNL     1      32.709  -7.989 -21.127  0.00  0.00    +0.249 C 
ENDROOT
BRANCH   3   4
ATOM      4  C   UNL     1      32.971  -7.347 -22.405  0.00  0.00    +0.053 C 
ATOM      5  C   UNL     1      32.008  -6.520 -22.982  0.00  0.00    +0.000 C 
ATOM      6  C   UNL     1      32.263  -5.902 -24.207  0.00  0.00    -0.022 C 
ATOM      7  C   UNL     1      34.189  -7.558 -23.053  0.00  0.00    +0.004 C 
ATOM      8  C   UNL     1      33.479  -6.113 -24.855  0.00  0.00    -0.004 C 
ATOM      9  C   UNL     1      34.443  -6.941 -24.278  0.00  0.00    -0.000 C 
ATOM     10  C   UNL     1      31.233  -5.017 -24.824  0.00  0.00    +0.031 C 
ENDBRANCH   3   4
BRANCH   2  11
ATOM     11  C   UNL     1      31.748  -9.936 -19.873  0.00  0.00    +0.094 C 
ATOM     12  C   UNL     1      30.790 -11.086 -20.102  0.00  0.00    +0.023 C 
ENDBRANCH   2  11
BRANCH   2  13
ATOM     13  C   UNL     1      31.576  -9.876 -22.336  0.00  0.00    +0.094 C 
ATOM     14  C   UNL     1      32.659 -10.750 -22.936  0.00  0.00    +0.023 C 
ENDBRANCH   2  13
TORSDOF 3
ENDMDL
MODEL 8
REMARK VINA RESULT:      -6.7      3.995      6.920
REMARK  Name = 4284
REMARK  3 active torsions:
REMARK  status: ('A' for Active; 'I' for Inactive)
REMARK    1  A    between atoms: N_2  and  C_11
REMARK    2  A    between atoms: N_2  and  C_13
REMARK    3  A    between atoms: C_3  and  C_4
REMARK                            x       y       z     vdW  Elec       q    Type
REMARK                         _______ _______ _______ _____ _____    ______ ____
ROOT
ATOM      1  O   UNL     1      33.509 -23.915 -18.178  0.00  0.00    -0.270 OA
ATOM      2  N   UNL     1      35.027 -23.022 -16.640  0.00  0.00    -0.276 N 
ATOM      3  C   UNL     1      34.347 -23.057 -17.872  0.00  0.00    +0.249 C 
ENDROOT
BRANCH   3   4
ATOM      4  C   UNL     1      34.621 -22.022 -18.855  0.00  0.00    +0.053 C 
ATOM      5  C   UNL     1      33.571 -21.289 -19.409  0.00  0.00    +0.000 C 
ATOM      6  C   UNL     1      33.836 -20.294 -20.350  0.00  0.00    -0.022 C 
ATOM      7  C   UNL     1      35.935 -21.760 -19.243  0.00  0.00    +0.004 C 
ATOM      8  C   UNL     1      35.149 -20.032 -20.739  0.00  0.00    -0.004 C 
ATOM      9  C   UNL     1      36.199 -20.765 -20.185  0.00  0.00    -0.000 C 
ATOM     10  C   UNL     1      32.713 -19.510 -20.942  0.00  0.00    +0.031 C 
ENDBRANCH   3   4
BRANCH   2  11
ATOM     11  C   UNL     1      34.796 -24.013 -15.598  0.00  0.00    +0.094 C 
ATOM     12  C   UNL     1      33.704 -23.573 -14.645  0.00  0.00    +0.023 C 
ENDBRANCH   2  11
BRANCH   2  13
ATOM     13  C   UNL     1      36.009 -21.987 -16.322  0.00  0.00    +0.094 C 
ATOM     14  C   UNL     1      37.352 -22.591 -15.962  0.00  0.00    +0.023 C 
ENDBRANCH   2  13
TORSDOF 3
ENDMDL
MODEL 9
REMARK VINA RESULT:      -6.7      2.386      6.044
REMARK  Name = 4284
REMARK  3 active torsions:
REMARK  status: ('A' for Active; 'I' for Inactive)
REMARK    1  A    between atoms: N_2  and  C_11
REMARK    2  A    between atoms: N_2  and  C_13
REMARK    3  A    between atoms: C_3  and  C_4
REMARK                            x       y       z     vdW  Elec       q    Type
REMARK                         _______ _______ _______ _____ _____    ______ ____
ROOT
ATOM      1  O   UNL     1      35.071 -15.979 -20.044  0.00  0.00    -0.270 OA
ATOM      2  N   UNL     1      34.957 -17.010 -22.140  0.00  0.00    -0.276 N 
ATOM      3  C   UNL     1      34.679 -15.983 -21.218  0.00  0.00    +0.249 C 
ENDROOT
BRANCH   3   4
ATOM      4  C   UNL     1      33.895 -14.840 -21.655  0.00  0.00    +0.053 C 
ATOM      5  C   UNL     1      34.230 -14.171 -22.833  0.00  0.00    +0.000 C 
ATOM      6  C   UNL     1      33.474 -13.076 -23.252  0.00  0.00    -0.022 C 
ATOM      7  C   UNL     1      32.804 -14.412 -20.897  0.00  0.00    +0.004 C 
ATOM      8  C   UNL     1      32.384 -12.648 -22.494  0.00  0.00    -0.004 C 
ATOM      9  C   UNL     1      32.049 -13.316 -21.317  0.00  0.00    -0.000 C 
ATOM     10  C   UNL     1      33.833 -12.362 -24.512  0.00  0.00    +0.031 C 
ENDBRANCH   3   4
BRANCH   2  11
ATOM     11  C   UNL     1      35.748 -18.179 -21.782  0.00  0.00    +0.094 C 
ATOM     12  C   UNL     1      34.921 -19.199 -21.027  0.00  0.00    +0.023 C 
ENDBRANCH   2  11
BRANCH   2  13
ATOM     13  C   UNL     1      34.472 -16.972 -23.518  0.00  0.00    +0.094 C 
ATOM     14  C   UNL     1      35.019 -18.128 -24.330  0.00  0.00    +0.023 C 
ENDBRANCH   2  13
TORSDOF 3
ENDMDL
