MODEL 1
REMARK VINA RESULT:     -10.9      0.000      0.000
REMARK  Name = 9889366
REMARK  10 active torsions:
REMARK  status: ('A' for Active; 'I' for Inactive)
REMARK    1  A    between atoms: C_1  and  C_21
REMARK    2  A    between atoms: C_4  and  C_7
REMARK    3  A    between atoms: C_8  and  C_13
REMARK    4  A    between atoms: C_13  and  C_14
REMARK    5  A    between atoms: C_14  and  N_15
REMARK    6  A    between atoms: N_15  and  S_17
REMARK    7  A    between atoms: C_21  and  C_23
REMARK    8  A    between atoms: C_23  and  N_24
REMARK    9  A    between atoms: N_24  and  S_26
REMARK   10  A    between atoms: S_26  and  C_29
REMARK                            x       y       z     vdW  Elec       q    Type
REMARK                         _______ _______ _______ _____ _____    ______ ____
ROOT
ATOM      1  C   UNL     1      35.454 -19.425 -21.675  0.00  0.00    -0.021 C 
ATOM      2  C   UNL     1      36.583 -19.833 -20.966  0.00  0.00    -0.004 C 
ATOM      3  C   UNL     1      34.186 -19.844 -21.271  0.00  0.00    -0.004 C 
ATOM      4  C   UNL     1      35.177 -21.084 -19.450  0.00  0.00    -0.000 C 
ATOM      5  C   UNL     1      36.445 -20.664 -19.854  0.00  0.00    -0.000 C 
ATOM      6  C   UNL     1      34.048 -20.674 -20.159  0.00  0.00    -0.000 C 
ENDROOT
BRANCH   4   7
ATOM      7  C   UNL     1      35.034 -21.946 -18.297  0.00  0.00    -0.000 C 
ATOM      8  C   UNL     1      34.758 -23.607 -16.072  0.00  0.00    -0.021 C 
ATOM      9  C   UNL     1      36.077 -22.059 -17.377  0.00  0.00    -0.000 C 
ATOM     10  C   UNL     1      33.854 -22.664 -18.104  0.00  0.00    -0.000 C 
ATOM     11  C   UNL     1      35.939 -22.889 -16.265  0.00  0.00    -0.004 C 
ATOM     12  C   UNL     1      33.716 -23.494 -16.992  0.00  0.00    -0.004 C 
BRANCH   8  13
ATOM     13  C   UNL     1      34.611 -24.494 -14.883  0.00  0.00    +0.045 C 
BRANCH  13  14
ATOM     14  C   UNL     1      34.439 -23.732 -13.563  0.00  0.00    +0.096 C 
BRANCH  14  15
ATOM     15  N   UNL     1      34.471 -24.674 -12.422  0.00  0.00    -0.183 NA
ATOM     16  H   UNL     1      33.663 -24.460 -11.836  0.00  0.00    +0.148 HD
BRANCH  15  17
ATOM     17  S   UNL     1      35.837 -24.693 -11.403  0.00  0.00    +0.043 S 
ATOM     18  O   UNL     1      36.693 -25.811 -11.746  0.00  0.00    -0.157 OA
ATOM     19  O   UNL     1      35.390 -24.491 -10.039  0.00  0.00    -0.157 OA
ATOM     20  C   UNL     1      36.653 -23.201 -11.921  0.00  0.00    +0.196 C 
ENDBRANCH  15  17
ENDBRANCH  14  15
ENDBRANCH  13  14
ENDBRANCH   8  13
ENDBRANCH   4   7
BRANCH   1  21
ATOM     21  C   UNL     1      35.605 -18.520 -22.887  0.00  0.00    +0.040 C 
ATOM     22  C   UNL     1      34.551 -18.849 -23.950  0.00  0.00    +0.006 C 
BRANCH  21  23
ATOM     23  C   UNL     1      35.540 -17.028 -22.527  0.00  0.00    +0.095 C 
BRANCH  23  24
ATOM     24  N   UNL     1      34.138 -16.577 -22.468  0.00  0.00    -0.183 NA
ATOM     25  H   UNL     1      33.951 -16.070 -23.334  0.00  0.00    +0.148 HD
BRANCH  24  26
ATOM     26  S   UNL     1      33.641 -15.570 -21.181  0.00  0.00    +0.039 S 
ATOM     27  O   UNL     1      34.730 -15.415 -20.234  0.00  0.00    -0.158 OA
ATOM     28  O   UNL     1      32.332 -16.009 -20.735  0.00  0.00    -0.158 OA
BRANCH  26  29
ATOM     29  C   UNL     1      33.429 -14.029 -22.032  0.00  0.00    +0.146 C 
ATOM     30  C   UNL     1      32.278 -13.243 -21.422  0.00  0.00    +0.027 C 
ATOM     31  C   UNL     1      33.210 -14.272 -23.518  0.00  0.00    +0.027 C 
ENDBRANCH  26  29
ENDBRANCH  24  26
ENDBRANCH  23  24
ENDBRANCH  21  23
ENDBRANCH   1  21
TORSDOF 10
ENDMDL
MODEL 2
REMARK VINA RESULT:     -10.9      0.937      1.718
REMARK  Name = 9889366
REMARK  10 active torsions:
REMARK  status: ('A' for Active; 'I' for Inactive)
REMARK    1  A    between atoms: C_1  and  C_21
REMARK    2  A    between atoms: C_4  and  C_7
REMARK    3  A    between atoms: C_8  and  C_13
REMARK    4  A    between atoms: C_13  and  C_14
REMARK    5  A    between atoms: C_14  and  N_15
REMARK    6  A    between atoms: N_15  and  S_17
REMARK    7  A    between atoms: C_21  and  C_23
REMARK    8  A    between atoms: C_23  and  N_24
REMARK    9  A    between atoms: N_24  and  S_26
REMARK   10  A    between atoms: S_26  and  C_29
REMARK                            x       y       z     vdW  Elec       q    Type
REMARK                         _______ _______ _______ _____ _____    ______ ____
ROOT
ATOM      1  C   UNL     1      35.362 -19.384 -21.678  0.00  0.00    -0.021 C 
ATOM      2  C   UNL     1      34.085 -19.790 -21.291  0.00  0.00    -0.004 C 
ATOM      3  C   UNL     1      36.479 -19.822 -20.966  0.00  0.00    -0.004 C 
ATOM      4  C   UNL     1      35.041 -21.068 -19.477  0.00  0.00    -0.000 C 
ATOM      5  C   UNL     1      33.925 -20.631 -20.190  0.00  0.00    -0.000 C 
ATOM      6  C   UNL     1      36.318 -20.663 -19.865  0.00  0.00    -0.000 C 
ENDROOT
BRANCH   4   7
ATOM      7  C   UNL     1      34.874 -21.940 -18.335  0.00  0.00    -0.000 C 
ATOM      8  C   UNL     1      34.552 -23.624 -16.133  0.00  0.00    -0.021 C 
ATOM      9  C   UNL     1      33.688 -22.658 -18.172  0.00  0.00    -0.000 C 
ATOM     10  C   UNL     1      35.898 -22.065 -17.396  0.00  0.00    -0.000 C 
ATOM     11  C   UNL     1      33.528 -23.499 -17.072  0.00  0.00    -0.004 C 
ATOM     12  C   UNL     1      35.738 -22.906 -16.296  0.00  0.00    -0.004 C 
BRANCH   8  13
ATOM     13  C   UNL     1      34.380 -24.524 -14.957  0.00  0.00    +0.045 C 
BRANCH  13  14
ATOM     14  C   UNL     1      34.502 -23.806 -13.608  0.00  0.00    +0.096 C 
BRANCH  14  15
ATOM     15  N   UNL     1      34.563 -24.793 -12.508  0.00  0.00    -0.183 NA
ATOM     16  H   UNL     1      33.710 -24.681 -11.959  0.00  0.00    +0.148 HD
BRANCH  15  17
ATOM     17  S   UNL     1      35.871 -24.738 -11.417  0.00  0.00    +0.043 S 
ATOM     18  O   UNL     1      36.759 -25.859 -11.654  0.00  0.00    -0.157 OA
ATOM     19  O   UNL     1      35.347 -24.473 -10.091  0.00  0.00    -0.157 OA
ATOM     20  C   UNL     1      36.694 -23.262 -11.968  0.00  0.00    +0.196 C 
ENDBRANCH  15  17
ENDBRANCH  14  15
ENDBRANCH  13  14
ENDBRANCH   8  13
ENDBRANCH   4   7
BRANCH   1  21
ATOM     21  C   UNL     1      35.537 -18.467 -22.877  0.00  0.00    +0.040 C 
ATOM     22  C   UNL     1      34.590 -18.867 -24.014  0.00  0.00    +0.006 C 
BRANCH  21  23
ATOM     23  C   UNL     1      35.340 -16.984 -22.525  0.00  0.00    +0.095 C 
BRANCH  23  24
ATOM     24  N   UNL     1      34.075 -16.488 -23.096  0.00  0.00    -0.183 NA
ATOM     25  H   UNL     1      34.192 -16.470 -24.110  0.00  0.00    +0.148 HD
BRANCH  24  26
ATOM     26  S   UNL     1      33.501 -14.948 -22.633  0.00  0.00    +0.039 S 
ATOM     27  O   UNL     1      34.596 -14.159 -22.098  0.00  0.00    -0.158 OA
ATOM     28  O   UNL     1      32.279 -15.125 -21.870  0.00  0.00    -0.158 OA
BRANCH  26  29
ATOM     29  C   UNL     1      33.055 -14.273 -24.211  0.00  0.00    +0.146 C 
ATOM     30  C   UNL     1      33.465 -15.223 -25.326  0.00  0.00    +0.027 C 
ATOM     31  C   UNL     1      33.681 -12.898 -24.393  0.00  0.00    +0.027 C 
ENDBRANCH  26  29
ENDBRANCH  24  26
ENDBRANCH  23  24
ENDBRANCH  21  23
ENDBRANCH   1  21
TORSDOF 10
ENDMDL
MODEL 3
REMARK VINA RESULT:     -10.6      1.876      2.383
REMARK  Name = 9889366
REMARK  10 active torsions:
REMARK  status: ('A' for Active; 'I' for Inactive)
REMARK    1  A    between atoms: C_1  and  C_21
REMARK    2  A    between atoms: C_4  and  C_7
REMARK    3  A    between atoms: C_8  and  C_13
REMARK    4  A    between atoms: C_13  and  C_14
REMARK    5  A    between atoms: C_14  and  N_15
REMARK    6  A    between atoms: N_15  and  S_17
REMARK    7  A    between atoms: C_21  and  C_23
REMARK    8  A    between atoms: C_23  and  N_24
REMARK    9  A    between atoms: N_24  and  S_26
REMARK   10  A    between atoms: S_26  and  C_29
REMARK                            x       y       z     vdW  Elec       q    Type
REMARK                         _______ _______ _______ _____ _____    ______ ____
ROOT
ATOM      1  C   UNL     1      35.369 -18.680 -22.460  0.00  0.00    -0.021 C 
ATOM      2  C   UNL     1      34.191 -19.373 -22.181  0.00  0.00    -0.004 C 
ATOM      3  C   UNL     1      36.488 -18.849 -21.645  0.00  0.00    -0.004 C 
ATOM      4  C   UNL     1      35.251 -20.403 -20.269  0.00  0.00    -0.000 C 
ATOM      5  C   UNL     1      34.132 -20.234 -21.085  0.00  0.00    -0.000 C 
ATOM      6  C   UNL     1      36.429 -19.711 -20.549  0.00  0.00    -0.000 C 
ENDROOT
BRANCH   4   7
ATOM      7  C   UNL     1      35.189 -21.296 -19.133  0.00  0.00    -0.000 C 
ATOM      8  C   UNL     1      35.070 -23.020 -16.942  0.00  0.00    -0.021 C 
ATOM      9  C   UNL     1      34.027 -22.027 -18.882  0.00  0.00    -0.000 C 
ATOM     10  C   UNL     1      36.291 -21.428 -18.288  0.00  0.00    -0.000 C 
ATOM     11  C   UNL     1      33.968 -22.888 -17.787  0.00  0.00    -0.004 C 
ATOM     12  C   UNL     1      36.232 -22.289 -17.193  0.00  0.00    -0.004 C 
BRANCH   8  13
ATOM     13  C   UNL     1      35.006 -23.941 -15.772  0.00  0.00    +0.045 C 
BRANCH  13  14
ATOM     14  C   UNL     1      36.292 -23.969 -14.939  0.00  0.00    +0.096 C 
BRANCH  14  15
ATOM     15  N   UNL     1      37.158 -25.089 -15.373  0.00  0.00    -0.183 NA
ATOM     16  H   UNL     1      36.541 -25.836 -15.693  0.00  0.00    +0.148 HD
BRANCH  15  17
ATOM     17  S   UNL     1      38.240 -25.780 -14.253  0.00  0.00    +0.043 S 
ATOM     18  O   UNL     1      39.257 -24.814 -13.887  0.00  0.00    -0.157 OA
ATOM     19  O   UNL     1      38.608 -27.099 -14.731  0.00  0.00    -0.157 OA
ATOM     20  C   UNL     1      37.167 -26.002 -12.854  0.00  0.00    +0.196 C 
ENDBRANCH  15  17
ENDBRANCH  14  15
ENDBRANCH  13  14
ENDBRANCH   8  13
ENDBRANCH   4   7
BRANCH   1  21
ATOM     21  C   UNL     1      35.433 -17.741 -23.653  0.00  0.00    +0.040 C 
ATOM     22  C   UNL     1      34.398 -18.133 -24.714  0.00  0.00    +0.006 C 
BRANCH  21  23
ATOM     23  C   UNL     1      35.251 -16.266 -23.260  0.00  0.00    +0.095 C 
BRANCH  23  24
ATOM     24  N   UNL     1      33.860 -16.019 -22.839  0.00  0.00    -0.183 NA
ATOM     25  H   UNL     1      33.463 -15.351 -23.501  0.00  0.00    +0.148 HD
BRANCH  24  26
ATOM     26  S   UNL     1      33.562 -15.407 -21.272  0.00  0.00    +0.039 S 
ATOM     27  O   UNL     1      34.796 -15.403 -20.507  0.00  0.00    -0.158 OA
ATOM     28  O   UNL     1      32.371 -16.049 -20.748  0.00  0.00    -0.158 OA
BRANCH  26  29
ATOM     29  C   UNL     1      33.143 -13.726 -21.649  0.00  0.00    +0.146 C 
ATOM     30  C   UNL     1      32.174 -13.178 -20.612  0.00  0.00    +0.027 C 
ATOM     31  C   UNL     1      32.567 -13.628 -23.054  0.00  0.00    +0.027 C 
ENDBRANCH  26  29
ENDBRANCH  24  26
ENDBRANCH  23  24
ENDBRANCH  21  23
ENDBRANCH   1  21
TORSDOF 10
ENDMDL
MODEL 4
REMARK VINA RESULT:     -10.5      2.042      2.295
REMARK  Name = 9889366
REMARK  10 active torsions:
REMARK  status: ('A' for Active; 'I' for Inactive)
REMARK    1  A    between atoms: C_1  and  C_21
REMARK    2  A    between atoms: C_4  and  C_7
REMARK    3  A    between atoms: C_8  and  C_13
REMARK    4  A    between atoms: C_13  and  C_14
REMARK    5  A    between atoms: C_14  and  N_15
REMARK    6  A    between atoms: N_15  and  S_17
REMARK    7  A    between atoms: C_21  and  C_23
REMARK    8  A    between atoms: C_23  and  N_24
REMARK    9  A    between atoms: N_24  and  S_26
REMARK   10  A    between atoms: S_26  and  C_29
REMARK                            x       y       z     vdW  Elec       q    Type
REMARK                         _______ _______ _______ _____ _____    ______ ____
ROOT
ATOM      1  C   UNL     1      35.458 -19.130 -22.050  0.00  0.00    -0.021 C 
ATOM      2  C   UNL     1      36.619 -19.377 -21.317  0.00  0.00    -0.004 C 
ATOM      3  C   UNL     1      34.246 -19.692 -21.649  0.00  0.00    -0.004 C 
ATOM      4  C   UNL     1      35.356 -20.752 -19.783  0.00  0.00    -0.000 C 
ATOM      5  C   UNL     1      36.567 -20.189 -20.184  0.00  0.00    -0.000 C 
ATOM      6  C   UNL     1      34.195 -20.503 -20.516  0.00  0.00    -0.000 C 
ENDROOT
BRANCH   4   7
ATOM      7  C   UNL     1      35.303 -21.594 -18.608  0.00  0.00    -0.000 C 
ATOM      8  C   UNL     1      35.202 -23.217 -16.341  0.00  0.00    -0.021 C 
ATOM      9  C   UNL     1      36.383 -21.627 -17.725  0.00  0.00    -0.000 C 
ATOM     10  C   UNL     1      34.174 -22.373 -18.357  0.00  0.00    -0.000 C 
ATOM     11  C   UNL     1      36.332 -22.438 -16.592  0.00  0.00    -0.004 C 
ATOM     12  C   UNL     1      34.122 -23.184 -17.224  0.00  0.00    -0.004 C 
BRANCH   8  13
ATOM     13  C   UNL     1      35.148 -24.083 -15.129  0.00  0.00    +0.045 C 
BRANCH  13  14
ATOM     14  C   UNL     1      35.905 -25.407 -15.283  0.00  0.00    +0.096 C 
BRANCH  14  15
ATOM     15  N   UNL     1      37.358 -25.153 -15.406  0.00  0.00    -0.183 NA
ATOM     16  H   UNL     1      37.654 -25.540 -16.303  0.00  0.00    +0.148 HD
BRANCH  15  17
ATOM     17  S   UNL     1      38.411 -25.776 -14.221  0.00  0.00    +0.043 S 
ATOM     18  O   UNL     1      39.249 -24.716 -13.696  0.00  0.00    -0.157 OA
ATOM     19  O   UNL     1      38.996 -27.002 -14.730  0.00  0.00    -0.157 OA
ATOM     20  C   UNL     1      37.247 -26.230 -12.955  0.00  0.00    +0.196 C 
ENDBRANCH  15  17
ENDBRANCH  14  15
ENDBRANCH  13  14
ENDBRANCH   8  13
ENDBRANCH   4   7
BRANCH   1  21
ATOM     21  C   UNL     1      35.514 -18.246 -23.286  0.00  0.00    +0.040 C 
ATOM     22  C   UNL     1      34.436 -18.651 -24.297  0.00  0.00    +0.006 C 
BRANCH  21  23
ATOM     23  C   UNL     1      35.389 -16.751 -22.953  0.00  0.00    +0.095 C 
BRANCH  23  24
ATOM     24  N   UNL     1      34.131 -16.210 -23.500  0.00  0.00    -0.183 NA
ATOM     25  H   UNL     1      34.284 -16.051 -24.497  0.00  0.00    +0.148 HD
BRANCH  24  26
ATOM     26  S   UNL     1      33.497 -14.762 -22.853  0.00  0.00    +0.039 S 
ATOM     27  O   UNL     1      34.567 -13.988 -22.250  0.00  0.00    -0.158 OA
ATOM     28  O   UNL     1      32.302 -15.084 -22.096  0.00  0.00    -0.158 OA
BRANCH  26  29
ATOM     29  C   UNL     1      32.986 -13.935 -24.336  0.00  0.00    +0.146 C 
ATOM     30  C   UNL     1      33.206 -14.832 -25.544  0.00  0.00    +0.027 C 
ATOM     31  C   UNL     1      33.726 -12.613 -24.483  0.00  0.00    +0.027 C 
ENDBRANCH  26  29
ENDBRANCH  24  26
ENDBRANCH  23  24
ENDBRANCH  21  23
ENDBRANCH   1  21
TORSDOF 10
ENDMDL
MODEL 5
REMARK VINA RESULT:     -10.5      3.540     11.369
REMARK  Name = 9889366
REMARK  10 active torsions:
REMARK  status: ('A' for Active; 'I' for Inactive)
REMARK    1  A    between atoms: C_1  and  C_21
REMARK    2  A    between atoms: C_4  and  C_7
REMARK    3  A    between atoms: C_8  and  C_13
REMARK    4  A    between atoms: C_13  and  C_14
REMARK    5  A    between atoms: C_14  and  N_15
REMARK    6  A    between atoms: N_15  and  S_17
REMARK    7  A    between atoms: C_21  and  C_23
REMARK    8  A    between atoms: C_23  and  N_24
REMARK    9  A    between atoms: N_24  and  S_26
REMARK   10  A    between atoms: S_26  and  C_29
REMARK                            x       y       z     vdW  Elec       q    Type
REMARK                         _______ _______ _______ _____ _____    ______ ____
ROOT
ATOM      1  C   UNL     1      34.519 -22.011 -18.714  0.00  0.00    -0.021 C 
ATOM      2  C   UNL     1      35.753 -21.567 -19.189  0.00  0.00    -0.004 C 
ATOM      3  C   UNL     1      33.339 -21.496 -19.251  0.00  0.00    -0.004 C 
ATOM      4  C   UNL     1      34.627 -20.091 -20.735  0.00  0.00    -0.000 C 
ATOM      5  C   UNL     1      35.807 -20.607 -20.198  0.00  0.00    -0.000 C 
ATOM      6  C   UNL     1      33.392 -20.536 -20.261  0.00  0.00    -0.000 C 
ENDROOT
BRANCH   4   7
ATOM      7  C   UNL     1      34.683 -19.095 -21.782  0.00  0.00    -0.000 C 
ATOM      8  C   UNL     1      34.789 -17.173 -23.802  0.00  0.00    -0.021 C 
ATOM      9  C   UNL     1      34.718 -19.490 -23.120  0.00  0.00    -0.000 C 
ATOM     10  C   UNL     1      34.701 -17.739 -21.455  0.00  0.00    -0.000 C 
ATOM     11  C   UNL     1      34.771 -18.529 -24.129  0.00  0.00    -0.004 C 
ATOM     12  C   UNL     1      34.754 -16.778 -22.464  0.00  0.00    -0.004 C 
BRANCH   8  13
ATOM     13  C   UNL     1      34.845 -16.146 -24.881  0.00  0.00    +0.045 C 
BRANCH  13  14
ATOM     14  C   UNL     1      33.508 -15.437 -25.128  0.00  0.00    +0.096 C 
BRANCH  14  15
ATOM     15  N   UNL     1      33.343 -15.147 -26.570  0.00  0.00    -0.183 NA
ATOM     16  H   UNL     1      34.114 -15.605 -27.057  0.00  0.00    +0.148 HD
BRANCH  15  17
ATOM     17  S   UNL     1      33.318 -13.524 -27.089  0.00  0.00    +0.043 S 
ATOM     18  O   UNL     1      31.987 -13.169 -27.539  0.00  0.00    -0.157 OA
ATOM     19  O   UNL     1      34.472 -13.300 -27.938  0.00  0.00    -0.157 OA
ATOM     20  C   UNL     1      33.618 -12.683 -25.552  0.00  0.00    +0.196 C 
ENDBRANCH  15  17
ENDBRANCH  14  15
ENDBRANCH  13  14
ENDBRANCH   8  13
ENDBRANCH   4   7
BRANCH   1  21
ATOM     21  C   UNL     1      34.460 -23.057 -17.613  0.00  0.00    +0.040 C 
ATOM     22  C   UNL     1      35.516 -22.780 -16.537  0.00  0.00    +0.006 C 
BRANCH  21  23
ATOM     23  C   UNL     1      33.069 -23.165 -16.968  0.00  0.00    +0.095 C 
BRANCH  23  24
ATOM     24  N   UNL     1      33.181 -23.701 -15.599  0.00  0.00    -0.183 NA
ATOM     25  H   UNL     1      33.429 -24.687 -15.685  0.00  0.00    +0.148 HD
BRANCH  24  26
ATOM     26  S   UNL     1      31.829 -23.613 -14.559  0.00  0.00    +0.039 S 
ATOM     27  O   UNL     1      31.469 -22.224 -14.342  0.00  0.00    -0.158 OA
ATOM     28  O   UNL     1      32.059 -24.500 -13.434  0.00  0.00    -0.158 OA
BRANCH  26  29
ATOM     29  C   UNL     1      30.580 -24.352 -15.578  0.00  0.00    +0.146 C 
ATOM     30  C   UNL     1      29.564 -23.306 -16.011  0.00  0.00    +0.027 C 
ATOM     31  C   UNL     1      29.913 -25.505 -14.843  0.00  0.00    +0.027 C 
ENDBRANCH  26  29
ENDBRANCH  24  26
ENDBRANCH  23  24
ENDBRANCH  21  23
ENDBRANCH   1  21
TORSDOF 10
ENDMDL
MODEL 6
REMARK VINA RESULT:     -10.4      2.358      3.010
REMARK  Name = 9889366
REMARK  10 active torsions:
REMARK  status: ('A' for Active; 'I' for Inactive)
REMARK    1  A    between atoms: C_1  and  C_21
REMARK    2  A    between atoms: C_4  and  C_7
REMARK    3  A    between atoms: C_8  and  C_13
REMARK    4  A    between atoms: C_13  and  C_14
REMARK    5  A    between atoms: C_14  and  N_15
REMARK    6  A    between atoms: N_15  and  S_17
REMARK    7  A    between atoms: C_21  and  C_23
REMARK    8  A    between atoms: C_23  and  N_24
REMARK    9  A    between atoms: N_24  and  S_26
REMARK   10  A    between atoms: S_26  and  C_29
REMARK                            x       y       z     vdW  Elec       q    Type
REMARK                         _______ _______ _______ _____ _____    ______ ____
ROOT
ATOM      1  C   UNL     1      35.473 -19.377 -21.761  0.00  0.00    -0.021 C 
ATOM      2  C   UNL     1      34.214 -19.816 -21.352  0.00  0.00    -0.004 C 
ATOM      3  C   UNL     1      36.611 -19.765 -21.053  0.00  0.00    -0.004 C 
ATOM      4  C   UNL     1      35.230 -21.029 -19.526  0.00  0.00    -0.000 C 
ATOM      5  C   UNL     1      34.093 -20.642 -20.235  0.00  0.00    -0.000 C 
ATOM      6  C   UNL     1      36.490 -20.590 -19.936  0.00  0.00    -0.000 C 
ENDROOT
BRANCH   4   7
ATOM      7  C   UNL     1      35.104 -21.884 -18.366  0.00  0.00    -0.000 C 
ATOM      8  C   UNL     1      34.860 -23.536 -16.131  0.00  0.00    -0.021 C 
ATOM      9  C   UNL     1      33.929 -22.608 -18.158  0.00  0.00    -0.000 C 
ATOM     10  C   UNL     1      36.156 -21.987 -17.457  0.00  0.00    -0.000 C 
ATOM     11  C   UNL     1      33.808 -23.433 -17.040  0.00  0.00    -0.004 C 
ATOM     12  C   UNL     1      36.035 -22.812 -16.339  0.00  0.00    -0.004 C 
BRANCH   8  13
ATOM     13  C   UNL     1      34.730 -24.419 -14.937  0.00  0.00    +0.045 C 
BRANCH  13  14
ATOM     14  C   UNL     1      33.618 -23.991 -13.972  0.00  0.00    +0.096 C 
BRANCH  14  15
ATOM     15  N   UNL     1      32.642 -25.090 -13.799  0.00  0.00    -0.183 NA
ATOM     16  H   UNL     1      32.844 -25.785 -14.518  0.00  0.00    +0.148 HD
BRANCH  15  17
ATOM     17  S   UNL     1      30.977 -24.741 -13.895  0.00  0.00    +0.043 S 
ATOM     18  O   UNL     1      30.459 -24.434 -12.577  0.00  0.00    -0.157 OA
ATOM     19  O   UNL     1      30.347 -25.751 -14.723  0.00  0.00    -0.157 OA
ATOM     20  C   UNL     1      31.012 -23.232 -14.834  0.00  0.00    +0.196 C 
ENDBRANCH  15  17
ENDBRANCH  14  15
ENDBRANCH  13  14
ENDBRANCH   8  13
ENDBRANCH   4   7
BRANCH   1  21
ATOM     21  C   UNL     1      35.605 -18.477 -22.979  0.00  0.00    +0.040 C 
ATOM     22  C   UNL     1      34.603 -18.879 -24.067  0.00  0.00    +0.006 C 
BRANCH  21  23
ATOM     23  C   UNL     1      35.443 -16.988 -22.638  0.00  0.00    +0.095 C 
BRANCH  23  24
ATOM     24  N   UNL     1      34.050 -16.561 -22.864  0.00  0.00    -0.183 NA
ATOM     25  H   UNL     1      33.735 -17.015 -23.722  0.00  0.00    +0.148 HD
BRANCH  24  26
ATOM     26  S   UNL     1      33.705 -14.896 -23.024  0.00  0.00    +0.039 S 
ATOM     27  O   UNL     1      33.154 -14.635 -24.341  0.00  0.00    -0.158 OA
ATOM     28  O   UNL     1      34.848 -14.143 -22.540  0.00  0.00    -0.158 OA
BRANCH  26  29
ATOM     29  C   UNL     1      32.401 -14.714 -21.836  0.00  0.00    +0.146 C 
ATOM     30  C   UNL     1      32.262 -13.256 -21.424  0.00  0.00    +0.027 C 
ATOM     31  C   UNL     1      32.655 -15.610 -20.633  0.00  0.00    +0.027 C 
ENDBRANCH  26  29
ENDBRANCH  24  26
ENDBRANCH  23  24
ENDBRANCH  21  23
ENDBRANCH   1  21
TORSDOF 10
ENDMDL
MODEL 7
REMARK VINA RESULT:     -10.4      2.420      9.976
REMARK  Name = 9889366
REMARK  10 active torsions:
REMARK  status: ('A' for Active; 'I' for Inactive)
REMARK    1  A    between atoms: C_1  and  C_21
REMARK    2  A    between atoms: C_4  and  C_7
REMARK    3  A    between atoms: C_8  and  C_13
REMARK    4  A    between atoms: C_13  and  C_14
REMARK    5  A    between atoms: C_14  and  N_15
REMARK    6  A    between atoms: N_15  and  S_17
REMARK    7  A    between atoms: C_21  and  C_23
REMARK    8  A    between atoms: C_23  and  N_24
REMARK    9  A    between atoms: N_24  and  S_26
REMARK   10  A    between atoms: S_26  and  C_29
REMARK                            x       y       z     vdW  Elec       q    Type
REMARK                         _______ _______ _______ _____ _____    ______ ____
ROOT
ATOM      1  C   UNL     1      34.854 -23.733 -16.101  0.00  0.00    -0.021 C 
ATOM      2  C   UNL     1      33.716 -23.684 -16.906  0.00  0.00    -0.004 C 
ATOM      3  C   UNL     1      35.952 -22.925 -16.397  0.00  0.00    -0.004 C 
ATOM      4  C   UNL     1      34.775 -22.023 -18.304  0.00  0.00    -0.000 C 
ATOM      5  C   UNL     1      33.677 -22.830 -18.007  0.00  0.00    -0.000 C 
ATOM      6  C   UNL     1      35.913 -22.071 -17.498  0.00  0.00    -0.000 C 
ENDROOT
BRANCH   4   7
ATOM      7  C   UNL     1      34.735 -21.138 -19.447  0.00  0.00    -0.000 C 
ATOM      8  C   UNL     1      34.656 -19.428 -21.651  0.00  0.00    -0.021 C 
ATOM      9  C   UNL     1      33.507 -20.736 -19.975  0.00  0.00    -0.000 C 
ATOM     10  C   UNL     1      35.922 -20.684 -20.021  0.00  0.00    -0.000 C 
ATOM     11  C   UNL     1      33.468 -19.882 -21.077  0.00  0.00    -0.004 C 
ATOM     12  C   UNL     1      35.883 -19.830 -21.123  0.00  0.00    -0.004 C 
BRANCH   8  13
ATOM     13  C   UNL     1      34.613 -18.514 -22.828  0.00  0.00    +0.045 C 
BRANCH  13  14
ATOM     14  C   UNL     1      35.318 -17.174 -22.593  0.00  0.00    +0.096 C 
BRANCH  14  15
ATOM     15  N   UNL     1      34.358 -16.058 -22.748  0.00  0.00    -0.183 NA
ATOM     16  H   UNL     1      34.774 -15.395 -23.403  0.00  0.00    +0.148 HD
BRANCH  15  17
ATOM     17  S   UNL     1      33.890 -15.172 -21.370  0.00  0.00    +0.043 S 
ATOM     18  O   UNL     1      33.456 -13.845 -21.758  0.00  0.00    -0.157 OA
ATOM     19  O   UNL     1      34.902 -15.352 -20.347  0.00  0.00    -0.157 OA
ATOM     20  C   UNL     1      32.454 -16.090 -20.862  0.00  0.00    +0.196 C 
ENDBRANCH  15  17
ENDBRANCH  14  15
ENDBRANCH  13  14
ENDBRANCH   8  13
ENDBRANCH   4   7
BRANCH   1  21
ATOM     21  C   UNL     1      34.897 -24.664 -14.901  0.00  0.00    +0.040 C 
ATOM     22  C   UNL     1      36.343 -24.978 -14.503  0.00  0.00    +0.006 C 
BRANCH  21  23
ATOM     23  C   UNL     1      34.127 -24.111 -13.691  0.00  0.00    +0.095 C 
BRANCH  23  24
ATOM     24  N   UNL     1      32.802 -24.751 -13.594  0.00  0.00    -0.183 NA
ATOM     25  H   UNL     1      32.756 -25.454 -14.332  0.00  0.00    +0.148 HD
BRANCH  24  26
ATOM     26  S   UNL     1      31.400 -23.786 -13.735  0.00  0.00    +0.039 S 
ATOM     27  O   UNL     1      31.775 -22.430 -14.093  0.00  0.00    -0.158 OA
ATOM     28  O   UNL     1      30.553 -24.037 -12.583  0.00  0.00    -0.158 OA
BRANCH  26  29
ATOM     29  C   UNL     1      30.625 -24.533 -15.144  0.00  0.00    +0.146 C 
ATOM     30  C   UNL     1      30.111 -23.462 -16.093  0.00  0.00    +0.027 C 
ATOM     31  C   UNL     1      29.507 -25.465 -14.699  0.00  0.00    +0.027 C 
ENDBRANCH  26  29
ENDBRANCH  24  26
ENDBRANCH  23  24
ENDBRANCH  21  23
ENDBRANCH   1  21
TORSDOF 10
ENDMDL
MODEL 8
REMARK VINA RESULT:     -10.3      3.216      4.341
REMARK  Name = 9889366
REMARK  10 active torsions:
REMARK  status: ('A' for Active; 'I' for Inactive)
REMARK    1  A    between atoms: C_1  and  C_21
REMARK    2  A    between atoms: C_4  and  C_7
REMARK    3  A    between atoms: C_8  and  C_13
REMARK    4  A    between atoms: C_13  and  C_14
REMARK    5  A    between atoms: C_14  and  N_15
REMARK    6  A    between atoms: N_15  and  S_17
REMARK    7  A    between atoms: C_21  and  C_23
REMARK    8  A    between atoms: C_23  and  N_24
REMARK    9  A    between atoms: N_24  and  S_26
REMARK   10  A    between atoms: S_26  and  C_29
REMARK                            x       y       z     vdW  Elec       q    Type
REMARK                         _______ _______ _______ _____ _____    ______ ____
ROOT
ATOM      1  C   UNL     1      34.330 -16.268 -23.337  0.00  0.00    -0.021 C 
ATOM      2  C   UNL     1      34.644 -17.524 -23.855  0.00  0.00    -0.004 C 
ATOM      3  C   UNL     1      34.001 -16.132 -21.988  0.00  0.00    -0.004 C 
ATOM      4  C   UNL     1      34.299 -18.510 -21.677  0.00  0.00    -0.000 C 
ATOM      5  C   UNL     1      34.628 -18.644 -23.026  0.00  0.00    -0.000 C 
ATOM      6  C   UNL     1      33.985 -17.253 -21.158  0.00  0.00    -0.000 C 
ENDROOT
BRANCH   4   7
ATOM      7  C   UNL     1      34.281 -19.673 -20.817  0.00  0.00    -0.000 C 
ATOM      8  C   UNL     1      34.246 -21.917 -19.160  0.00  0.00    -0.021 C 
ATOM      9  C   UNL     1      33.067 -20.178 -20.352  0.00  0.00    -0.000 C 
ATOM     10  C   UNL     1      35.478 -20.289 -20.452  0.00  0.00    -0.000 C 
ATOM     11  C   UNL     1      33.050 -21.300 -19.524  0.00  0.00    -0.004 C 
ATOM     12  C   UNL     1      35.461 -21.411 -19.624  0.00  0.00    -0.004 C 
BRANCH   8  13
ATOM     13  C   UNL     1      34.228 -23.116 -18.274  0.00  0.00    +0.045 C 
BRANCH  13  14
ATOM     14  C   UNL     1      34.767 -22.851 -16.864  0.00  0.00    +0.096 C 
BRANCH  14  15
ATOM     15  N   UNL     1      34.752 -24.098 -16.068  0.00  0.00    -0.183 NA
ATOM     16  H   UNL     1      33.926 -24.061 -15.471  0.00  0.00    +0.148 HD
BRANCH  15  17
ATOM     17  S   UNL     1      36.081 -24.454 -15.063  0.00  0.00    +0.043 S 
ATOM     18  O   UNL     1      36.671 -25.719 -15.453  0.00  0.00    -0.157 OA
ATOM     19  O   UNL     1      35.690 -24.210 -13.688  0.00  0.00    -0.157 OA
ATOM     20  C   UNL     1      37.204 -23.159 -15.533  0.00  0.00    +0.196 C 
ENDBRANCH  15  17
ENDBRANCH  14  15
ENDBRANCH  13  14
ENDBRANCH   8  13
ENDBRANCH   4   7
BRANCH   1  21
ATOM     21  C   UNL     1      34.346 -15.046 -24.241  0.00  0.00    +0.040 C 
ATOM     22  C   UNL     1      33.858 -15.402 -25.650  0.00  0.00    +0.006 C 
BRANCH  21  23
ATOM     23  C   UNL     1      33.523 -13.878 -23.678  0.00  0.00    +0.095 C 
BRANCH  23  24
ATOM     24  N   UNL     1      34.305 -12.630 -23.732  0.00  0.00    -0.183 NA
ATOM     25  H   UNL     1      34.359 -12.271 -22.777  0.00  0.00    +0.148 HD
BRANCH  24  26
ATOM     26  S   UNL     1      33.759 -11.347 -24.718  0.00  0.00    +0.039 S 
ATOM     27  O   UNL     1      32.700 -10.624 -24.037  0.00  0.00    -0.158 OA
ATOM     28  O   UNL     1      33.558 -11.857 -26.062  0.00  0.00    -0.158 OA
BRANCH  26  29
ATOM     29  C   UNL     1      35.201 -10.315 -24.746  0.00  0.00    +0.146 C 
ATOM     30  C   UNL     1      34.891  -8.958 -24.133  0.00  0.00    +0.027 C 
ATOM     31  C   UNL     1      35.723 -10.177 -26.169  0.00  0.00    +0.027 C 
ENDBRANCH  26  29
ENDBRANCH  24  26
ENDBRANCH  23  24
ENDBRANCH  21  23
ENDBRANCH   1  21
TORSDOF 10
ENDMDL
MODEL 9
REMARK VINA RESULT:     -10.3      1.625     10.353
REMARK  Name = 9889366
REMARK  10 active torsions:
REMARK  status: ('A' for Active; 'I' for Inactive)
REMARK    1  A    between atoms: C_1  and  C_21
REMARK    2  A    between atoms: C_4  and  C_7
REMARK    3  A    between atoms: C_8  and  C_13
REMARK    4  A    between atoms: C_13  and  C_14
REMARK    5  A    between atoms: C_14  and  N_15
REMARK    6  A    between atoms: N_15  and  S_17
REMARK    7  A    between atoms: C_21  and  C_23
REMARK    8  A    between atoms: C_23  and  N_24
REMARK    9  A    between atoms: N_24  and  S_26
REMARK   10  A    between atoms: S_26  and  C_29
REMARK                            x       y       z     vdW  Elec       q    Type
REMARK                         _______ _______ _______ _____ _____    ______ ____
ROOT
ATOM      1  C   UNL     1      34.626 -23.546 -16.197  0.00  0.00    -0.021 C 
ATOM      2  C   UNL     1      35.763 -22.816 -16.546  0.00  0.00    -0.004 C 
ATOM      3  C   UNL     1      33.478 -23.467 -16.985  0.00  0.00    -0.004 C 
ATOM      4  C   UNL     1      34.602 -21.928 -18.469  0.00  0.00    -0.000 C 
ATOM      5  C   UNL     1      35.750 -22.008 -17.682  0.00  0.00    -0.000 C 
ATOM      6  C   UNL     1      33.466 -22.659 -18.121  0.00  0.00    -0.000 C 
ENDROOT
BRANCH   4   7
ATOM      7  C   UNL     1      34.589 -21.088 -19.647  0.00  0.00    -0.000 C 
ATOM      8  C   UNL     1      34.565 -19.470 -21.920  0.00  0.00    -0.021 C 
ATOM      9  C   UNL     1      35.789 -20.747 -20.273  0.00  0.00    -0.000 C 
ATOM     10  C   UNL     1      33.379 -20.620 -20.157  0.00  0.00    -0.000 C 
ATOM     11  C   UNL     1      35.776 -19.938 -21.409  0.00  0.00    -0.004 C 
ATOM     12  C   UNL     1      33.366 -19.811 -21.293  0.00  0.00    -0.004 C 
BRANCH   8  13
ATOM     13  C   UNL     1      34.553 -18.606 -23.135  0.00  0.00    +0.045 C 
BRANCH  13  14
ATOM     14  C   UNL     1      35.456 -17.372 -23.023  0.00  0.00    +0.096 C 
BRANCH  14  15
ATOM     15  N   UNL     1      34.642 -16.166 -22.754  0.00  0.00    -0.183 NA
ATOM     16  H   UNL     1      35.081 -15.392 -23.253  0.00  0.00    +0.148 HD
BRANCH  15  17
ATOM     17  S   UNL     1      34.421 -15.660 -21.142  0.00  0.00    +0.043 S 
ATOM     18  O   UNL     1      34.585 -14.223 -21.048  0.00  0.00    -0.157 OA
ATOM     19  O   UNL     1      35.172 -16.550 -20.278  0.00  0.00    -0.157 OA
ATOM     20  C   UNL     1      32.697 -16.029 -20.915  0.00  0.00    +0.196 C 
ENDBRANCH  15  17
ENDBRANCH  14  15
ENDBRANCH  13  14
ENDBRANCH   8  13
ENDBRANCH   4   7
BRANCH   1  21
ATOM     21  C   UNL     1      34.640 -24.427 -14.958  0.00  0.00    +0.040 C 
ATOM     22  C   UNL     1      35.701 -25.526 -15.081  0.00  0.00    +0.006 C 
BRANCH  21  23
ATOM     23  C   UNL     1      34.856 -23.629 -13.663  0.00  0.00    +0.095 C 
BRANCH  23  24
ATOM     24  N   UNL     1      35.818 -24.326 -12.789  0.00  0.00    -0.183 NA
ATOM     25  H   UNL     1      35.368 -24.437 -11.880  0.00  0.00    +0.148 HD
BRANCH  24  26
ATOM     26  S   UNL     1      37.348 -23.620 -12.508  0.00  0.00    +0.039 S 
ATOM     27  O   UNL     1      37.351 -22.963 -11.213  0.00  0.00    -0.158 OA
ATOM     28  O   UNL     1      37.746 -22.898 -13.702  0.00  0.00    -0.158 OA
BRANCH  26  29
ATOM     29  C   UNL     1      38.363 -25.069 -12.393  0.00  0.00    +0.146 C 
ATOM     30  C   UNL     1      39.276 -25.171 -13.605  0.00  0.00    +0.027 C 
ATOM     31  C   UNL     1      37.496 -26.310 -12.243  0.00  0.00    +0.027 C 
ENDBRANCH  26  29
ENDBRANCH  24  26
ENDBRANCH  23  24
ENDBRANCH  21  23
ENDBRANCH   1  21
TORSDOF 10
ENDMDL
