MODEL 1
REMARK VINA RESULT:     -11.5      0.000      0.000
REMARK  Name = 4249
REMARK  7 active torsions:
REMARK  status: ('A' for Active; 'I' for Inactive)
REMARK    1  A    between atoms: N_1  and  C_17
REMARK    2  A    between atoms: C_2  and  C_8
REMARK    3  A    between atoms: C_2  and  O_15
REMARK    4  A    between atoms: C_17  and  C_18
REMARK    5  A    between atoms: C_18  and  C_19
REMARK    6  A    between atoms: C_19  and  C_21
REMARK    7  A    between atoms: C_21  and  C_23
REMARK                            x       y       z     vdW  Elec       q    Type
REMARK                         _______ _______ _______ _____ _____    ______ ____
ROOT
ATOM      1  N   UNL     1      34.241 -16.493 -23.578  0.00  0.00    +0.387 N 
ATOM      2  C   UNL     1      35.095 -18.699 -21.781  0.00  0.00    +0.103 C 
ATOM      3  C   UNL     1      34.649 -18.906 -23.246  0.00  0.00    +0.008 C 
ATOM      4  C   UNL     1      34.502 -17.365 -21.270  0.00  0.00    +0.008 C 
ATOM      5  C   UNL     1      34.903 -17.680 -24.130  0.00  0.00    -0.075 C 
ATOM      6  C   UNL     1      34.734 -16.192 -22.230  0.00  0.00    -0.075 C 
ATOM      7  H   UNL     1      33.242 -16.694 -23.511  0.00  0.00    -0.080 HD
ENDROOT
BRANCH   2   8
ATOM      8  C   UNL     1      34.739 -19.843 -20.830  0.00  0.00    +0.002 C 
ATOM      9  C   UNL     1      35.752 -20.623 -20.272  0.00  0.00    -0.002 C 
ATOM     10  C   UNL     1      33.405 -20.103 -20.521  0.00  0.00    -0.002 C 
ATOM     11  C   UNL     1      35.427 -21.665 -19.403  0.00  0.00    -0.005 C 
ATOM     12  C   UNL     1      33.082 -21.145 -19.653  0.00  0.00    -0.005 C 
ATOM     13  C   UNL     1      34.093 -21.926 -19.094  0.00  0.00    -0.022 C 
ATOM     14  C   UNL     1      33.746 -23.042 -18.166  0.00  0.00    +0.031 C 
ENDBRANCH   2   8
BRANCH   2  15
ATOM     15  O   UNL     1      36.529 -18.621 -21.766  0.00  0.00    -0.383 OA
ATOM     16  H   UNL     1      36.840 -18.559 -20.849  0.00  0.00    +0.211 HD
ENDBRANCH   2  15
BRANCH   1  17
ATOM     17  C   UNL     1      34.427 -15.344 -24.462  0.00  0.00    -0.077 C 
BRANCH  17  18
ATOM     18  C   UNL     1      33.309 -14.323 -24.248  0.00  0.00    -0.015 C 
BRANCH  18  19
ATOM     19  C   UNL     1      33.818 -13.028 -23.608  0.00  0.00    +0.067 C 
BRANCH  19  21
ATOM     20  O   UNL     1      33.932 -11.998 -25.787  0.00  0.00    -0.291 OA
ATOM     21  C   UNL     1      33.851 -11.851 -24.570  0.00  0.00    +0.173 C 
BRANCH  21  23
ATOM     22  F   UNL     1      33.509  -6.682 -22.485  0.00  0.00    -0.204 F 
ATOM     23  C   UNL     1      33.760 -10.470 -24.012  0.00  0.00    +0.035 C 
ATOM     24  C   UNL     1      34.758  -9.570 -24.312  0.00  0.00    +0.005 C 
ATOM     25  C   UNL     1      32.682 -10.148 -23.219  0.00  0.00    +0.005 C 
ATOM     26  C   UNL     1      34.672  -8.278 -23.791  0.00  0.00    +0.030 C 
ATOM     27  C   UNL     1      32.596  -8.856 -22.698  0.00  0.00    +0.030 C 
ATOM     28  C   UNL     1      33.592  -7.921 -22.985  0.00  0.00    +0.140 C 
ENDBRANCH  21  23
ENDBRANCH  19  21
ENDBRANCH  18  19
ENDBRANCH  17  18
ENDBRANCH   1  17
TORSDOF 7
ENDMDL
MODEL 2
REMARK VINA RESULT:     -11.3      2.017      2.502
REMARK  Name = 4249
REMARK  7 active torsions:
REMARK  status: ('A' for Active; 'I' for Inactive)
REMARK    1  A    between atoms: N_1  and  C_17
REMARK    2  A    between atoms: C_2  and  C_8
REMARK    3  A    between atoms: C_2  and  O_15
REMARK    4  A    between atoms: C_17  and  C_18
REMARK    5  A    between atoms: C_18  and  C_19
REMARK    6  A    between atoms: C_19  and  C_21
REMARK    7  A    between atoms: C_21  and  C_23
REMARK                            x       y       z     vdW  Elec       q    Type
REMARK                         _______ _______ _______ _____ _____    ______ ____
ROOT
ATOM      1  N   UNL     1      34.229 -16.379 -23.516  0.00  0.00    +0.387 N 
ATOM      2  C   UNL     1      35.086 -18.652 -21.806  0.00  0.00    +0.103 C 
ATOM      3  C   UNL     1      34.554 -18.812 -23.248  0.00  0.00    +0.008 C 
ATOM      4  C   UNL     1      34.577 -17.306 -21.241  0.00  0.00    +0.008 C 
ATOM      5  C   UNL     1      34.812 -17.580 -24.123  0.00  0.00    -0.075 C 
ATOM      6  C   UNL     1      34.806 -16.124 -22.192  0.00  0.00    -0.075 C 
ATOM      7  H   UNL     1      33.228 -16.540 -23.398  0.00  0.00    -0.080 HD
ENDROOT
BRANCH   2   8
ATOM      8  C   UNL     1      34.734 -19.799 -20.857  0.00  0.00    +0.002 C 
ATOM      9  C   UNL     1      35.750 -20.569 -20.292  0.00  0.00    -0.002 C 
ATOM     10  C   UNL     1      33.401 -20.071 -20.558  0.00  0.00    -0.002 C 
ATOM     11  C   UNL     1      35.429 -21.614 -19.425  0.00  0.00    -0.005 C 
ATOM     12  C   UNL     1      33.081 -21.116 -19.692  0.00  0.00    -0.005 C 
ATOM     13  C   UNL     1      34.095 -21.888 -19.126  0.00  0.00    -0.022 C 
ATOM     14  C   UNL     1      33.753 -23.006 -18.200  0.00  0.00    +0.031 C 
ENDBRANCH   2   8
BRANCH   2  15
ATOM     15  O   UNL     1      36.520 -18.633 -21.867  0.00  0.00    -0.383 OA
ATOM     16  H   UNL     1      36.829 -19.347 -22.445  0.00  0.00    +0.211 HD
ENDBRANCH   2  15
BRANCH   1  17
ATOM     17  C   UNL     1      34.416 -15.221 -24.389  0.00  0.00    -0.077 C 
BRANCH  17  18
ATOM     18  C   UNL     1      34.164 -13.926 -23.614  0.00  0.00    -0.015 C 
BRANCH  18  19
ATOM     19  C   UNL     1      32.673 -13.598 -23.501  0.00  0.00    +0.067 C 
BRANCH  19  21
ATOM     20  O   UNL     1      31.923 -14.577 -21.426  0.00  0.00    -0.291 OA
ATOM     21  C   UNL     1      32.171 -13.557 -22.065  0.00  0.00    +0.173 C 
BRANCH  21  23
ATOM     22  F   UNL     1      31.515  -8.588 -19.604  0.00  0.00    -0.204 F 
ATOM     23  C   UNL     1      31.994 -12.230 -21.408  0.00  0.00    +0.035 C 
ATOM     24  C   UNL     1      31.826 -12.186 -20.042  0.00  0.00    +0.005 C 
ATOM     25  C   UNL     1      32.008 -11.098 -22.192  0.00  0.00    +0.005 C 
ATOM     26  C   UNL     1      31.662 -10.944 -19.428  0.00  0.00    +0.030 C 
ATOM     27  C   UNL     1      31.844  -9.856 -21.577  0.00  0.00    +0.030 C 
ATOM     28  C   UNL     1      31.672  -9.780 -20.194  0.00  0.00    +0.140 C 
ENDBRANCH  21  23
ENDBRANCH  19  21
ENDBRANCH  18  19
ENDBRANCH  17  18
ENDBRANCH   1  17
TORSDOF 7
ENDMDL
MODEL 3
REMARK VINA RESULT:     -11.3      3.506     10.108
REMARK  Name = 4249
REMARK  7 active torsions:
REMARK  status: ('A' for Active; 'I' for Inactive)
REMARK    1  A    between atoms: N_1  and  C_17
REMARK    2  A    between atoms: C_2  and  C_8
REMARK    3  A    between atoms: C_2  and  O_15
REMARK    4  A    between atoms: C_17  and  C_18
REMARK    5  A    between atoms: C_18  and  C_19
REMARK    6  A    between atoms: C_19  and  C_21
REMARK    7  A    between atoms: C_21  and  C_23
REMARK                            x       y       z     vdW  Elec       q    Type
REMARK                         _______ _______ _______ _____ _____    ______ ____
ROOT
ATOM      1  N   UNL     1      34.285 -15.841 -24.765  0.00  0.00    +0.387 N 
ATOM      2  C   UNL     1      33.319 -13.124 -24.052  0.00  0.00    +0.103 C 
ATOM      3  C   UNL     1      33.342 -13.679 -25.494  0.00  0.00    +0.008 C 
ATOM      4  C   UNL     1      34.345 -13.912 -23.205  0.00  0.00    +0.008 C 
ATOM      5  C   UNL     1      33.223 -15.206 -25.552  0.00  0.00    -0.075 C 
ATOM      6  C   UNL     1      34.215 -15.434 -23.358  0.00  0.00    -0.075 C 
ATOM      7  H   UNL     1      35.182 -15.531 -25.139  0.00  0.00    -0.080 HD
ENDROOT
BRANCH   2   8
ATOM      8  C   UNL     1      33.570 -11.620 -23.934  0.00  0.00    +0.002 C 
ATOM      9  C   UNL     1      34.619 -11.033 -24.641  0.00  0.00    -0.002 C 
ATOM     10  C   UNL     1      32.750 -10.839 -23.122  0.00  0.00    -0.002 C 
ATOM     11  C   UNL     1      34.847  -9.661 -24.534  0.00  0.00    -0.005 C 
ATOM     12  C   UNL     1      32.978  -9.468 -23.016  0.00  0.00    -0.005 C 
ATOM     13  C   UNL     1      34.027  -8.879 -23.722  0.00  0.00    -0.022 C 
ATOM     14  C   UNL     1      34.272  -7.411 -23.608  0.00  0.00    +0.031 C 
ENDBRANCH   2   8
BRANCH   2  15
ATOM     15  O   UNL     1      32.001 -13.334 -23.522  0.00  0.00    -0.383 OA
ATOM     16  H   UNL     1      31.782 -14.278 -23.564  0.00  0.00    +0.211 HD
ENDBRANCH   2  15
BRANCH   1  17
ATOM     17  C   UNL     1      34.209 -17.297 -24.882  0.00  0.00    -0.077 C 
BRANCH  17  18
ATOM     18  C   UNL     1      35.254 -17.957 -23.980  0.00  0.00    -0.015 C 
BRANCH  18  19
ATOM     19  C   UNL     1      34.648 -19.042 -23.086  0.00  0.00    +0.067 C 
BRANCH  19  21
ATOM     20  O   UNL     1      35.579 -17.898 -21.176  0.00  0.00    -0.291 OA
ATOM     21  C   UNL     1      35.041 -18.909 -21.623  0.00  0.00    +0.173 C 
BRANCH  21  23
ATOM     22  F   UNL     1      33.921 -23.144 -18.161  0.00  0.00    -0.204 F 
ATOM     23  C   UNL     1      34.742 -20.039 -20.697  0.00  0.00    +0.035 C 
ATOM     24  C   UNL     1      33.428 -20.303 -20.380  0.00  0.00    +0.005 C 
ATOM     25  C   UNL     1      35.790 -20.778 -20.196  0.00  0.00    +0.005 C 
ATOM     26  C   UNL     1      33.149 -21.362 -19.515  0.00  0.00    +0.030 C 
ATOM     27  C   UNL     1      35.511 -21.837 -19.331  0.00  0.00    +0.030 C 
ATOM     28  C   UNL     1      34.189 -22.129 -18.991  0.00  0.00    +0.140 C 
ENDBRANCH  21  23
ENDBRANCH  19  21
ENDBRANCH  18  19
ENDBRANCH  17  18
ENDBRANCH   1  17
TORSDOF 7
ENDMDL
MODEL 4
REMARK VINA RESULT:     -11.1      3.045      5.300
REMARK  Name = 4249
REMARK  7 active torsions:
REMARK  status: ('A' for Active; 'I' for Inactive)
REMARK    1  A    between atoms: N_1  and  C_17
REMARK    2  A    between atoms: C_2  and  C_8
REMARK    3  A    between atoms: C_2  and  O_15
REMARK    4  A    between atoms: C_17  and  C_18
REMARK    5  A    between atoms: C_18  and  C_19
REMARK    6  A    between atoms: C_19  and  C_21
REMARK    7  A    between atoms: C_21  and  C_23
REMARK                            x       y       z     vdW  Elec       q    Type
REMARK                         _______ _______ _______ _____ _____    ______ ____
ROOT
ATOM      1  N   UNL     1      35.198 -20.153 -20.195  0.00  0.00    +0.387 N 
ATOM      2  C   UNL     1      34.020 -22.396 -18.645  0.00  0.00    +0.103 C 
ATOM      3  C   UNL     1      33.190 -21.252 -19.270  0.00  0.00    +0.008 C 
ATOM      4  C   UNL     1      35.474 -21.904 -18.460  0.00  0.00    +0.008 C 
ATOM      5  C   UNL     1      33.850 -20.639 -20.510  0.00  0.00    -0.075 C 
ATOM      6  C   UNL     1      36.054 -21.242 -19.717  0.00  0.00    -0.075 C 
ATOM      7  H   UNL     1      35.117 -19.463 -19.447  0.00  0.00    -0.080 HD
ENDROOT
BRANCH   2   8
ATOM      8  C   UNL     1      33.470 -22.949 -17.329  0.00  0.00    +0.002 C 
ATOM      9  C   UNL     1      32.092 -23.008 -17.122  0.00  0.00    -0.002 C 
ATOM     10  C   UNL     1      34.346 -23.393 -16.340  0.00  0.00    -0.002 C 
ATOM     11  C   UNL     1      31.591 -23.514 -15.922  0.00  0.00    -0.005 C 
ATOM     12  C   UNL     1      33.844 -23.897 -15.141  0.00  0.00    -0.005 C 
ATOM     13  C   UNL     1      32.466 -23.958 -14.933  0.00  0.00    -0.022 C 
ATOM     14  C   UNL     1      31.929 -24.497 -13.649  0.00  0.00    +0.031 C 
ENDBRANCH   2   8
BRANCH   2  15
ATOM     15  O   UNL     1      34.002 -23.501 -19.561  0.00  0.00    -0.383 OA
ATOM     16  H   UNL     1      33.623 -24.279 -19.123  0.00  0.00    +0.211 HD
ENDBRANCH   2  15
BRANCH   1  17
ATOM     17  C   UNL     1      35.795 -19.505 -21.363  0.00  0.00    -0.077 C 
BRANCH  17  18
ATOM     18  C   UNL     1      34.732 -18.724 -22.137  0.00  0.00    -0.015 C 
BRANCH  18  19
ATOM     19  C   UNL     1      35.177 -17.293 -22.453  0.00  0.00    +0.067 C 
BRANCH  19  21
ATOM     20  O   UNL     1      35.182 -16.434 -20.198  0.00  0.00    -0.291 OA
ATOM     21  C   UNL     1      34.819 -16.294 -21.364  0.00  0.00    +0.173 C 
BRANCH  21  23
ATOM     22  F   UNL     1      31.806 -11.802 -22.748  0.00  0.00    -0.204 F 
ATOM     23  C   UNL     1      34.015 -15.094 -21.733  0.00  0.00    +0.035 C 
ATOM     24  C   UNL     1      34.246 -14.492 -22.950  0.00  0.00    +0.005 C 
ATOM     25  C   UNL     1      33.070 -14.632 -20.844  0.00  0.00    +0.005 C 
ATOM     26  C   UNL     1      33.493 -13.370 -23.296  0.00  0.00    +0.030 C 
ATOM     27  C   UNL     1      32.316 -13.509 -21.190  0.00  0.00    +0.030 C 
ATOM     28  C   UNL     1      32.529 -12.879 -22.417  0.00  0.00    +0.140 C 
ENDBRANCH  21  23
ENDBRANCH  19  21
ENDBRANCH  18  19
ENDBRANCH  17  18
ENDBRANCH   1  17
TORSDOF 7
ENDMDL
MODEL 5
REMARK VINA RESULT:     -11.0      1.134      1.807
REMARK  Name = 4249
REMARK  7 active torsions:
REMARK  status: ('A' for Active; 'I' for Inactive)
REMARK    1  A    between atoms: N_1  and  C_17
REMARK    2  A    between atoms: C_2  and  C_8
REMARK    3  A    between atoms: C_2  and  O_15
REMARK    4  A    between atoms: C_17  and  C_18
REMARK    5  A    between atoms: C_18  and  C_19
REMARK    6  A    between atoms: C_19  and  C_21
REMARK    7  A    between atoms: C_21  and  C_23
REMARK                            x       y       z     vdW  Elec       q    Type
REMARK                         _______ _______ _______ _____ _____    ______ ____
ROOT
ATOM      1  N   UNL     1      33.440 -15.438 -24.344  0.00  0.00    +0.387 N 
ATOM      2  C   UNL     1      34.949 -17.394 -22.695  0.00  0.00    +0.103 C 
ATOM      3  C   UNL     1      34.407 -17.698 -24.110  0.00  0.00    +0.008 C 
ATOM      4  C   UNL     1      34.133 -16.225 -22.096  0.00  0.00    +0.008 C 
ATOM      5  C   UNL     1      34.287 -16.447 -24.989  0.00  0.00    -0.075 C 
ATOM      6  C   UNL     1      33.995 -15.031 -23.049  0.00  0.00    -0.075 C 
ATOM      7  H   UNL     1      32.524 -15.856 -24.178  0.00  0.00    -0.080 HD
ENDROOT
BRANCH   2   8
ATOM      8  C   UNL     1      34.960 -18.586 -21.738  0.00  0.00    +0.002 C 
ATOM      9  C   UNL     1      33.762 -19.213 -21.395  0.00  0.00    -0.002 C 
ATOM     10  C   UNL     1      36.165 -19.045 -21.211  0.00  0.00    -0.002 C 
ATOM     11  C   UNL     1      33.773 -20.302 -20.522  0.00  0.00    -0.005 C 
ATOM     12  C   UNL     1      36.175 -20.133 -20.338  0.00  0.00    -0.005 C 
ATOM     13  C   UNL     1      34.978 -20.761 -19.994  0.00  0.00    -0.022 C 
ATOM     14  C   UNL     1      34.988 -21.925 -19.060  0.00  0.00    +0.031 C 
ENDBRANCH   2   8
BRANCH   2  15
ATOM     15  O   UNL     1      36.323 -16.998 -22.828  0.00  0.00    -0.383 OA
ATOM     16  H   UNL     1      36.371 -16.143 -23.283  0.00  0.00    +0.211 HD
ENDBRANCH   2  15
BRANCH   1  17
ATOM     17  C   UNL     1      33.272 -14.277 -25.218  0.00  0.00    -0.077 C 
BRANCH  17  18
ATOM     18  C   UNL     1      33.846 -13.025 -24.553  0.00  0.00    -0.015 C 
BRANCH  18  19
ATOM     19  C   UNL     1      33.660 -11.772 -25.414  0.00  0.00    +0.067 C 
BRANCH  19  21
ATOM     20  O   UNL     1      35.707 -10.497 -25.503  0.00  0.00    -0.291 OA
ATOM     21  C   UNL     1      34.584 -10.628 -25.024  0.00  0.00    +0.173 C 
BRANCH  21  23
ATOM     22  F   UNL     1      32.751  -6.855 -21.338  0.00  0.00    -0.204 F 
ATOM     23  C   UNL     1      34.095  -9.621 -24.038  0.00  0.00    +0.035 C 
ATOM     24  C   UNL     1      34.784  -8.436 -23.907  0.00  0.00    +0.005 C 
ATOM     25  C   UNL     1      32.971  -9.912 -23.298  0.00  0.00    +0.005 C 
ATOM     26  C   UNL     1      34.325  -7.493 -22.986  0.00  0.00    +0.030 C 
ATOM     27  C   UNL     1      32.512  -8.970 -22.376  0.00  0.00    +0.030 C 
ATOM     28  C   UNL     1      33.190  -7.760 -22.222  0.00  0.00    +0.140 C 
ENDBRANCH  21  23
ENDBRANCH  19  21
ENDBRANCH  18  19
ENDBRANCH  17  18
ENDBRANCH   1  17
TORSDOF 7
ENDMDL
MODEL 6
REMARK VINA RESULT:     -10.9      3.142      5.412
REMARK  Name = 4249
REMARK  7 active torsions:
REMARK  status: ('A' for Active; 'I' for Inactive)
REMARK    1  A    between atoms: N_1  and  C_17
REMARK    2  A    between atoms: C_2  and  C_8
REMARK    3  A    between atoms: C_2  and  O_15
REMARK    4  A    between atoms: C_17  and  C_18
REMARK    5  A    between atoms: C_18  and  C_19
REMARK    6  A    between atoms: C_19  and  C_21
REMARK    7  A    between atoms: C_21  and  C_23
REMARK                            x       y       z     vdW  Elec       q    Type
REMARK                         _______ _______ _______ _____ _____    ______ ____
ROOT
ATOM      1  N   UNL     1      35.343 -20.039 -20.238  0.00  0.00    +0.387 N 
ATOM      2  C   UNL     1      34.108 -22.286 -18.738  0.00  0.00    +0.103 C 
ATOM      3  C   UNL     1      33.300 -21.153 -19.410  0.00  0.00    +0.008 C 
ATOM      4  C   UNL     1      35.546 -21.780 -18.482  0.00  0.00    +0.008 C 
ATOM      5  C   UNL     1      34.017 -20.539 -20.618  0.00  0.00    -0.075 C 
ATOM      6  C   UNL     1      36.184 -21.118 -19.711  0.00  0.00    -0.075 C 
ATOM      7  H   UNL     1      35.217 -19.347 -19.498  0.00  0.00    -0.080 HD
ENDROOT
BRANCH   2   8
ATOM      8  C   UNL     1      33.497 -22.838 -17.450  0.00  0.00    +0.002 C 
ATOM      9  C   UNL     1      32.114 -22.812 -17.269  0.00  0.00    -0.002 C 
ATOM     10  C   UNL     1      34.321 -23.367 -16.459  0.00  0.00    -0.002 C 
ATOM     11  C   UNL     1      31.557 -23.316 -16.094  0.00  0.00    -0.005 C 
ATOM     12  C   UNL     1      33.764 -23.871 -15.284  0.00  0.00    -0.005 C 
ATOM     13  C   UNL     1      32.381 -23.846 -15.102  0.00  0.00    -0.022 C 
ATOM     14  C   UNL     1      31.784 -24.385 -13.845  0.00  0.00    +0.031 C 
ENDBRANCH   2   8
BRANCH   2  15
ATOM     15  O   UNL     1      34.147 -23.396 -19.649  0.00  0.00    -0.383 OA
ATOM     16  H   UNL     1      33.287 -23.844 -19.650  0.00  0.00    +0.211 HD
ENDBRANCH   2  15
BRANCH   1  17
ATOM     17  C   UNL     1      35.992 -19.391 -21.377  0.00  0.00    -0.077 C 
BRANCH  17  18
ATOM     18  C   UNL     1      34.953 -19.006 -22.431  0.00  0.00    -0.015 C 
BRANCH  18  19
ATOM     19  C   UNL     1      35.571 -18.237 -23.603  0.00  0.00    +0.067 C 
BRANCH  19  21
ATOM     20  O   UNL     1      33.961 -18.240 -25.400  0.00  0.00    -0.291 OA
ATOM     21  C   UNL     1      34.538 -17.604 -24.522  0.00  0.00    +0.173 C 
BRANCH  21  23
ATOM     22  F   UNL     1      33.282 -12.209 -23.813  0.00  0.00    -0.204 F 
ATOM     23  C   UNL     1      34.201 -16.163 -24.332  0.00  0.00    +0.035 C 
ATOM     24  C   UNL     1      34.624 -15.532 -23.184  0.00  0.00    +0.005 C 
ATOM     25  C   UNL     1      33.482 -15.518 -25.313  0.00  0.00    +0.005 C 
ATOM     26  C   UNL     1      34.310 -14.183 -23.007  0.00  0.00    +0.030 C 
ATOM     27  C   UNL     1      33.168 -14.169 -25.137  0.00  0.00    +0.030 C 
ATOM     28  C   UNL     1      33.583 -13.503 -23.983  0.00  0.00    +0.140 C 
ENDBRANCH  21  23
ENDBRANCH  19  21
ENDBRANCH  18  19
ENDBRANCH  17  18
ENDBRANCH   1  17
TORSDOF 7
ENDMDL
MODEL 7
REMARK VINA RESULT:     -10.9      3.404      5.790
REMARK  Name = 4249
REMARK  7 active torsions:
REMARK  status: ('A' for Active; 'I' for Inactive)
REMARK    1  A    between atoms: N_1  and  C_17
REMARK    2  A    between atoms: C_2  and  C_8
REMARK    3  A    between atoms: C_2  and  O_15
REMARK    4  A    between atoms: C_17  and  C_18
REMARK    5  A    between atoms: C_18  and  C_19
REMARK    6  A    between atoms: C_19  and  C_21
REMARK    7  A    between atoms: C_21  and  C_23
REMARK                            x       y       z     vdW  Elec       q    Type
REMARK                         _______ _______ _______ _____ _____    ______ ____
ROOT
ATOM      1  N   UNL     1      35.305 -20.282 -19.999  0.00  0.00    +0.387 N 
ATOM      2  C   UNL     1      34.003 -22.497 -18.507  0.00  0.00    +0.103 C 
ATOM      3  C   UNL     1      33.229 -21.339 -19.177  0.00  0.00    +0.008 C 
ATOM      4  C   UNL     1      35.455 -22.033 -18.247  0.00  0.00    +0.008 C 
ATOM      5  C   UNL     1      33.966 -20.743 -20.382  0.00  0.00    -0.075 C 
ATOM      6  C   UNL     1      36.113 -21.387 -19.474  0.00  0.00    -0.075 C 
ATOM      7  H   UNL     1      35.198 -19.588 -19.257  0.00  0.00    -0.080 HD
ENDROOT
BRANCH   2   8
ATOM      8  C   UNL     1      33.375 -23.034 -17.221  0.00  0.00    +0.002 C 
ATOM      9  C   UNL     1      31.988 -23.029 -17.070  0.00  0.00    -0.002 C 
ATOM     10  C   UNL     1      34.187 -23.529 -16.202  0.00  0.00    -0.002 C 
ATOM     11  C   UNL     1      31.415 -23.521 -15.897  0.00  0.00    -0.005 C 
ATOM     12  C   UNL     1      33.613 -24.020 -15.030  0.00  0.00    -0.005 C 
ATOM     13  C   UNL     1      32.227 -24.016 -14.878  0.00  0.00    -0.022 C 
ATOM     14  C   UNL     1      31.613 -24.541 -13.623  0.00  0.00    +0.031 C 
ENDBRANCH   2   8
BRANCH   2  15
ATOM     15  O   UNL     1      34.012 -23.605 -19.420  0.00  0.00    -0.383 OA
ATOM     16  H   UNL     1      34.691 -23.461 -20.097  0.00  0.00    +0.211 HD
ENDBRANCH   2  15
BRANCH   1  17
ATOM     17  C   UNL     1      35.974 -19.650 -21.135  0.00  0.00    -0.077 C 
BRANCH  17  18
ATOM     18  C   UNL     1      34.949 -19.242 -22.194  0.00  0.00    -0.015 C 
BRANCH  18  19
ATOM     19  C   UNL     1      35.457 -18.107 -23.088  0.00  0.00    +0.067 C 
BRANCH  19  21
ATOM     20  O   UNL     1      35.021 -16.308 -21.541  0.00  0.00    -0.291 OA
ATOM     21  C   UNL     1      34.928 -16.739 -22.687  0.00  0.00    +0.173 C 
BRANCH  21  23
ATOM     22  F   UNL     1      32.551 -13.543 -26.601  0.00  0.00    -0.204 F 
ATOM     23  C   UNL     1      34.292 -15.885 -23.732  0.00  0.00    +0.035 C 
ATOM     24  C   UNL     1      33.920 -14.601 -23.401  0.00  0.00    +0.005 C 
ATOM     25  C   UNL     1      34.102 -16.412 -24.990  0.00  0.00    +0.005 C 
ATOM     26  C   UNL     1      33.327 -13.803 -24.379  0.00  0.00    +0.030 C 
ATOM     27  C   UNL     1      33.508 -15.614 -25.969  0.00  0.00    +0.030 C 
ATOM     28  C   UNL     1      33.121 -14.309 -25.662  0.00  0.00    +0.140 C 
ENDBRANCH  21  23
ENDBRANCH  19  21
ENDBRANCH  18  19
ENDBRANCH  17  18
ENDBRANCH   1  17
TORSDOF 7
ENDMDL
MODEL 8
REMARK VINA RESULT:     -10.6      4.991     11.210
REMARK  Name = 4249
REMARK  7 active torsions:
REMARK  status: ('A' for Active; 'I' for Inactive)
REMARK    1  A    between atoms: N_1  and  C_17
REMARK    2  A    between atoms: C_2  and  C_8
REMARK    3  A    between atoms: C_2  and  O_15
REMARK    4  A    between atoms: C_17  and  C_18
REMARK    5  A    between atoms: C_18  and  C_19
REMARK    6  A    between atoms: C_19  and  C_21
REMARK    7  A    between atoms: C_21  and  C_23
REMARK                            x       y       z     vdW  Elec       q    Type
REMARK                         _______ _______ _______ _____ _____    ______ ____
ROOT
ATOM      1  N   UNL     1      35.436 -20.502 -19.662  0.00  0.00    +0.387 N 
ATOM      2  C   UNL     1      35.006 -18.584 -21.889  0.00  0.00    +0.103 C 
ATOM      3  C   UNL     1      36.348 -18.746 -21.140  0.00  0.00    +0.008 C 
ATOM      4  C   UNL     1      33.868 -19.099 -20.978  0.00  0.00    +0.008 C 
ATOM      5  C   UNL     1      36.544 -20.150 -20.557  0.00  0.00    -0.075 C 
ATOM      6  C   UNL     1      34.154 -20.481 -20.374  0.00  0.00    -0.075 C 
ATOM      7  H   UNL     1      35.397 -19.801 -18.920  0.00  0.00    -0.080 HD
ENDROOT
BRANCH   2   8
ATOM      8  C   UNL     1      34.704 -17.165 -22.372  0.00  0.00    +0.002 C 
ATOM      9  C   UNL     1      34.536 -16.915 -23.734  0.00  0.00    -0.002 C 
ATOM     10  C   UNL     1      34.595 -16.124 -21.452  0.00  0.00    -0.002 C 
ATOM     11  C   UNL     1      34.260 -15.621 -24.174  0.00  0.00    -0.005 C 
ATOM     12  C   UNL     1      34.319 -14.830 -21.893  0.00  0.00    -0.005 C 
ATOM     13  C   UNL     1      34.151 -14.579 -23.254  0.00  0.00    -0.022 C 
ATOM     14  C   UNL     1      33.856 -13.195 -23.726  0.00  0.00    +0.031 C 
ENDBRANCH   2   8
BRANCH   2  15
ATOM     15  O   UNL     1      35.067 -19.387 -23.078  0.00  0.00    -0.383 OA
ATOM     16  H   UNL     1      35.060 -20.326 -22.835  0.00  0.00    +0.211 HD
ENDBRANCH   2  15
BRANCH   1  17
ATOM     17  C   UNL     1      35.664 -21.812 -19.054  0.00  0.00    -0.077 C 
BRANCH  17  18
ATOM     18  C   UNL     1      34.395 -22.662 -19.134  0.00  0.00    -0.015 C 
BRANCH  18  19
ATOM     19  C   UNL     1      33.937 -23.154 -17.758  0.00  0.00    +0.067 C 
BRANCH  19  21
ATOM     20  O   UNL     1      31.821 -22.071 -18.172  0.00  0.00    -0.291 OA
ATOM     21  C   UNL     1      32.513 -22.747 -17.414  0.00  0.00    +0.173 C 
BRANCH  21  23
ATOM     22  F   UNL     1      30.342 -24.461 -12.564  0.00  0.00    -0.204 F 
ATOM     23  C   UNL     1      31.933 -23.203 -16.118  0.00  0.00    +0.035 C 
ATOM     24  C   UNL     1      30.563 -23.239 -15.983  0.00  0.00    +0.005 C 
ATOM     25  C   UNL     1      32.789 -23.575 -15.106  0.00  0.00    +0.005 C 
ATOM     26  C   UNL     1      30.021 -23.667 -14.771  0.00  0.00    +0.030 C 
ATOM     27  C   UNL     1      32.247 -24.003 -13.893  0.00  0.00    +0.030 C 
ATOM     28  C   UNL     1      30.862 -24.050 -13.727  0.00  0.00    +0.140 C 
ENDBRANCH  21  23
ENDBRANCH  19  21
ENDBRANCH  18  19
ENDBRANCH  17  18
ENDBRANCH   1  17
TORSDOF 7
ENDMDL
MODEL 9
REMARK VINA RESULT:     -10.6      7.582     13.203
REMARK  Name = 4249
REMARK  7 active torsions:
REMARK  status: ('A' for Active; 'I' for Inactive)
REMARK    1  A    between atoms: N_1  and  C_17
REMARK    2  A    between atoms: C_2  and  C_8
REMARK    3  A    between atoms: C_2  and  O_15
REMARK    4  A    between atoms: C_17  and  C_18
REMARK    5  A    between atoms: C_18  and  C_19
REMARK    6  A    between atoms: C_19  and  C_21
REMARK    7  A    between atoms: C_21  and  C_23
REMARK                            x       y       z     vdW  Elec       q    Type
REMARK                         _______ _______ _______ _____ _____    ______ ____
ROOT
ATOM      1  N   UNL     1      33.029 -23.307 -15.459  0.00  0.00    +0.387 N 
ATOM      2  C   UNL     1      33.754 -22.640 -18.262  0.00  0.00    +0.103 C 
ATOM      3  C   UNL     1      34.774 -22.715 -17.103  0.00  0.00    +0.008 C 
ATOM      4  C   UNL     1      32.348 -22.397 -17.664  0.00  0.00    +0.008 C 
ATOM      5  C   UNL     1      34.347 -23.676 -15.988  0.00  0.00    -0.075 C 
ATOM      6  C   UNL     1      32.008 -23.349 -16.510  0.00  0.00    -0.075 C 
ATOM      7  H   UNL     1      33.087 -22.349 -15.112  0.00  0.00    -0.080 HD
ENDROOT
BRANCH   2   8
ATOM      8  C   UNL     1      34.068 -21.595 -19.333  0.00  0.00    +0.002 C 
ATOM      9  C   UNL     1      35.391 -21.362 -19.709  0.00  0.00    -0.002 C 
ATOM     10  C   UNL     1      33.034 -20.879 -19.933  0.00  0.00    -0.002 C 
ATOM     11  C   UNL     1      35.678 -20.409 -20.687  0.00  0.00    -0.005 C 
ATOM     12  C   UNL     1      33.322 -19.927 -20.910  0.00  0.00    -0.005 C 
ATOM     13  C   UNL     1      34.643 -19.693 -21.288  0.00  0.00    -0.022 C 
ATOM     14  C   UNL     1      34.951 -18.674 -22.333  0.00  0.00    +0.031 C 
ENDBRANCH   2   8
BRANCH   2  15
ATOM     15  O   UNL     1      33.771 -23.904 -18.943  0.00  0.00    -0.383 OA
ATOM     16  H   UNL     1      34.471 -23.900 -19.614  0.00  0.00    +0.211 HD
ENDBRANCH   2  15
BRANCH   1  17
ATOM     17  C   UNL     1      32.660 -24.184 -14.348  0.00  0.00    -0.077 C 
BRANCH  17  18
ATOM     18  C   UNL     1      33.900 -24.881 -13.787  0.00  0.00    -0.015 C 
BRANCH  18  19
ATOM     19  C   UNL     1      34.563 -24.074 -12.667  0.00  0.00    +0.067 C 
BRANCH  19  21
ATOM     20  O   UNL     1      35.914 -25.146 -10.979  0.00  0.00    -0.291 OA
ATOM     21  C   UNL     1      35.832 -24.717 -12.128  0.00  0.00    +0.173 C 
BRANCH  21  23
ATOM     22  F   UNL     1      40.234 -25.207 -15.527  0.00  0.00    -0.204 F 
ATOM     23  C   UNL     1      37.007 -24.849 -13.036  0.00  0.00    +0.035 C 
ATOM     24  C   UNL     1      37.148 -23.948 -14.068  0.00  0.00    +0.005 C 
ATOM     25  C   UNL     1      37.908 -25.865 -12.808  0.00  0.00    +0.005 C 
ATOM     26  C   UNL     1      38.249 -24.071 -14.917  0.00  0.00    +0.030 C 
ATOM     27  C   UNL     1      39.009 -25.987 -13.657  0.00  0.00    +0.030 C 
ATOM     28  C   UNL     1      39.178 -25.089 -14.712  0.00  0.00    +0.140 C 
ENDBRANCH  21  23
ENDBRANCH  19  21
ENDBRANCH  18  19
ENDBRANCH  17  18
ENDBRANCH   1  17
TORSDOF 7
ENDMDL
