MODEL 1
REMARK VINA RESULT:      -6.8      0.000      0.000
REMARK  Name = 4059
REMARK  6 active torsions:
REMARK  status: ('A' for Active; 'I' for Inactive)
REMARK    1  A    between atoms: O_1  and  C_2
REMARK    2  A    between atoms: O_1  and  C_9
REMARK    3  A    between atoms: C_9  and  C_10
REMARK    4  A    between atoms: C_10  and  O_11
REMARK    5  A    between atoms: C_10  and  C_13
REMARK    6  A    between atoms: C_13  and  O_14
REMARK                            x       y       z     vdW  Elec       q    Type
REMARK                         _______ _______ _______ _____ _____    ______ ____
ROOT
ATOM      1  O   UNL     1      36.212 -22.449 -17.946  0.00  0.00    -0.473 OA
ENDROOT
BRANCH   1   2
ATOM      2  C   UNL     1      35.468 -21.736 -18.848  0.00  0.00    +0.135 C 
ATOM      3  C   UNL     1      34.088 -21.897 -18.909  0.00  0.00    +0.012 C 
ATOM      4  C   UNL     1      36.115 -20.849 -19.703  0.00  0.00    +0.037 C 
ATOM      5  C   UNL     1      33.346 -21.163 -19.834  0.00  0.00    -0.001 C 
ATOM      6  C   UNL     1      33.383 -22.846 -17.997  0.00  0.00    +0.034 C 
ATOM      7  C   UNL     1      35.373 -20.115 -20.628  0.00  0.00    +0.003 C 
ATOM      8  C   UNL     1      33.988 -20.271 -20.694  0.00  0.00    -0.000 C 
ENDBRANCH   1   2
BRANCH   1   9
ATOM      9  C   UNL     1      37.068 -21.701 -17.089  0.00  0.00    +0.237 C 
BRANCH   9  10
ATOM     10  C   UNL     1      37.304 -22.470 -15.794  0.00  0.00    +0.183 C 
BRANCH  10  11
ATOM     11  O   UNL     1      38.457 -23.298 -15.956  0.00  0.00    -0.378 OA
ATOM     12  H   UNL     1      38.242 -24.041 -16.543  0.00  0.00    +0.211 HD
ENDBRANCH  10  11
BRANCH  10  13
ATOM     13  C   UNL     1      36.122 -23.370 -15.457  0.00  0.00    +0.170 C 
BRANCH  13  14
ATOM     14  O   UNL     1      36.462 -24.715 -15.775  0.00  0.00    -0.379 OA
ATOM     15  H   UNL     1      37.425 -24.795 -15.857  0.00  0.00    +0.211 HD
ENDBRANCH  13  14
ENDBRANCH  10  13
ENDBRANCH   9  10
ENDBRANCH   1   9
TORSDOF 6
ENDMDL
MODEL 2
REMARK VINA RESULT:      -6.8      3.958      6.300
REMARK  Name = 4059
REMARK  6 active torsions:
REMARK  status: ('A' for Active; 'I' for Inactive)
REMARK    1  A    between atoms: O_1  and  C_2
REMARK    2  A    between atoms: O_1  and  C_9
REMARK    3  A    between atoms: C_9  and  C_10
REMARK    4  A    between atoms: C_10  and  O_11
REMARK    5  A    between atoms: C_10  and  C_13
REMARK    6  A    between atoms: C_13  and  O_14
REMARK                            x       y       z     vdW  Elec       q    Type
REMARK                         _______ _______ _______ _____ _____    ______ ____
ROOT
ATOM      1  O   UNL     1      35.129 -18.889 -21.706  0.00  0.00    -0.473 OA
ENDROOT
BRANCH   1   2
ATOM      2  C   UNL     1      35.172 -19.900 -20.783  0.00  0.00    +0.135 C 
ATOM      3  C   UNL     1      33.997 -20.481 -20.317  0.00  0.00    +0.012 C 
ATOM      4  C   UNL     1      36.409 -20.335 -20.318  0.00  0.00    +0.037 C 
ATOM      5  C   UNL     1      34.060 -21.510 -19.377  0.00  0.00    -0.001 C 
ATOM      6  C   UNL     1      32.664 -20.023 -20.809  0.00  0.00    +0.034 C 
ATOM      7  C   UNL     1      36.471 -21.364 -19.378  0.00  0.00    +0.003 C 
ATOM      8  C   UNL     1      35.297 -21.951 -18.907  0.00  0.00    -0.000 C 
ENDBRANCH   1   2
BRANCH   1   9
ATOM      9  C   UNL     1      35.307 -17.565 -21.215  0.00  0.00    +0.237 C 
BRANCH   9  10
ATOM     10  C   UNL     1      34.744 -16.562 -22.216  0.00  0.00    +0.183 C 
BRANCH  10  11
ATOM     11  O   UNL     1      35.697 -16.378 -23.265  0.00  0.00    -0.378 OA
ATOM     12  H   UNL     1      36.577 -16.642 -22.953  0.00  0.00    +0.211 HD
ENDBRANCH  10  11
BRANCH  10  13
ATOM     13  C   UNL     1      34.494 -15.207 -21.565  0.00  0.00    +0.170 C 
BRANCH  13  14
ATOM     14  O   UNL     1      34.889 -15.271 -20.199  0.00  0.00    -0.379 OA
ATOM     15  H   UNL     1      34.163 -14.955 -19.638  0.00  0.00    +0.211 HD
ENDBRANCH  13  14
ENDBRANCH  10  13
ENDBRANCH   9  10
ENDBRANCH   1   9
TORSDOF 6
ENDMDL
MODEL 3
REMARK VINA RESULT:      -6.6      4.527      6.878
REMARK  Name = 4059
REMARK  6 active torsions:
REMARK  status: ('A' for Active; 'I' for Inactive)
REMARK    1  A    between atoms: O_1  and  C_2
REMARK    2  A    between atoms: O_1  and  C_9
REMARK    3  A    between atoms: C_9  and  C_10
REMARK    4  A    between atoms: C_10  and  O_11
REMARK    5  A    between atoms: C_10  and  C_13
REMARK    6  A    between atoms: C_13  and  O_14
REMARK                            x       y       z     vdW  Elec       q    Type
REMARK                         _______ _______ _______ _____ _____    ______ ____
ROOT
ATOM      1  O   UNL     1      34.505 -17.871 -21.670  0.00  0.00    -0.473 OA
ENDROOT
BRANCH   1   2
ATOM      2  C   UNL     1      34.990 -18.982 -21.035  0.00  0.00    +0.135 C 
ATOM      3  C   UNL     1      34.121 -19.952 -20.545  0.00  0.00    +0.012 C 
ATOM      4  C   UNL     1      36.367 -19.126 -20.887  0.00  0.00    +0.037 C 
ATOM      5  C   UNL     1      34.634 -21.078 -19.901  0.00  0.00    -0.001 C 
ATOM      6  C   UNL     1      32.644 -19.808 -20.698  0.00  0.00    +0.034 C 
ATOM      7  C   UNL     1      36.878 -20.252 -20.243  0.00  0.00    +0.003 C 
ATOM      8  C   UNL     1      36.013 -21.229 -19.749  0.00  0.00    -0.000 C 
ENDBRANCH   1   2
BRANCH   1   9
ATOM      9  C   UNL     1      34.801 -16.612 -21.074  0.00  0.00    +0.237 C 
BRANCH   9  10
ATOM     10  C   UNL     1      34.267 -15.485 -21.952  0.00  0.00    +0.183 C 
BRANCH  10  11
ATOM     11  O   UNL     1      32.860 -15.361 -21.734  0.00  0.00    -0.378 OA
ATOM     12  H   UNL     1      32.644 -14.436 -21.535  0.00  0.00    +0.211 HD
ENDBRANCH  10  11
BRANCH  10  13
ATOM     13  C   UNL     1      34.490 -15.778 -23.431  0.00  0.00    +0.170 C 
BRANCH  13  14
ATOM     14  O   UNL     1      35.797 -16.314 -23.603  0.00  0.00    -0.379 OA
ATOM     15  H   UNL     1      36.456 -15.626 -23.419  0.00  0.00    +0.211 HD
ENDBRANCH  13  14
ENDBRANCH  10  13
ENDBRANCH   9  10
ENDBRANCH   1   9
TORSDOF 6
ENDMDL
MODEL 4
REMARK VINA RESULT:      -6.5      4.602      7.074
REMARK  Name = 4059
REMARK  6 active torsions:
REMARK  status: ('A' for Active; 'I' for Inactive)
REMARK    1  A    between atoms: O_1  and  C_2
REMARK    2  A    between atoms: O_1  and  C_9
REMARK    3  A    between atoms: C_9  and  C_10
REMARK    4  A    between atoms: C_10  and  O_11
REMARK    5  A    between atoms: C_10  and  C_13
REMARK    6  A    between atoms: C_13  and  O_14
REMARK                            x       y       z     vdW  Elec       q    Type
REMARK                         _______ _______ _______ _____ _____    ______ ____
ROOT
ATOM      1  O   UNL     1      34.256 -17.964 -21.828  0.00  0.00    -0.473 OA
ENDROOT
BRANCH   1   2
ATOM      2  C   UNL     1      34.323 -19.121 -21.099  0.00  0.00    +0.135 C 
ATOM      3  C   UNL     1      35.554 -19.682 -20.775  0.00  0.00    +0.012 C 
ATOM      4  C   UNL     1      33.139 -19.728 -20.689  0.00  0.00    +0.037 C 
ATOM      5  C   UNL     1      35.602 -20.861 -20.031  0.00  0.00    -0.001 C 
ATOM      6  C   UNL     1      36.830 -19.040 -21.210  0.00  0.00    +0.034 C 
ATOM      7  C   UNL     1      33.189 -20.907 -19.945  0.00  0.00    +0.003 C 
ATOM      8  C   UNL     1      34.420 -21.474 -19.616  0.00  0.00    -0.000 C 
ENDBRANCH   1   2
BRANCH   1   9
ATOM      9  C   UNL     1      33.846 -16.792 -21.132  0.00  0.00    +0.237 C 
BRANCH   9  10
ATOM     10  C   UNL     1      34.594 -15.579 -21.673  0.00  0.00    +0.183 C 
BRANCH  10  11
ATOM     11  O   UNL     1      33.940 -14.394 -21.216  0.00  0.00    -0.378 OA
ATOM     12  H   UNL     1      32.981 -14.544 -21.190  0.00  0.00    +0.211 HD
ENDBRANCH  10  11
BRANCH  10  13
ATOM     13  C   UNL     1      34.594 -15.559 -23.197  0.00  0.00    +0.170 C 
BRANCH  13  14
ATOM     14  O   UNL     1      35.776 -16.198 -23.667  0.00  0.00    -0.379 OA
ATOM     15  H   UNL     1      36.461 -15.531 -23.830  0.00  0.00    +0.211 HD
ENDBRANCH  13  14
ENDBRANCH  10  13
ENDBRANCH   9  10
ENDBRANCH   1   9
TORSDOF 6
ENDMDL
MODEL 5
REMARK VINA RESULT:      -6.4      6.600      8.915
REMARK  Name = 4059
REMARK  6 active torsions:
REMARK  status: ('A' for Active; 'I' for Inactive)
REMARK    1  A    between atoms: O_1  and  C_2
REMARK    2  A    between atoms: O_1  and  C_9
REMARK    3  A    between atoms: C_9  and  C_10
REMARK    4  A    between atoms: C_10  and  O_11
REMARK    5  A    between atoms: C_10  and  C_13
REMARK    6  A    between atoms: C_13  and  O_14
REMARK                            x       y       z     vdW  Elec       q    Type
REMARK                         _______ _______ _______ _____ _____    ______ ____
ROOT
ATOM      1  O   UNL     1      34.998 -15.364 -22.886  0.00  0.00    -0.473 OA
ENDROOT
BRANCH   1   2
ATOM      2  C   UNL     1      34.963 -16.721 -22.706  0.00  0.00    +0.135 C 
ATOM      3  C   UNL     1      34.825 -17.575 -23.796  0.00  0.00    +0.012 C 
ATOM      4  C   UNL     1      35.066 -17.233 -21.416  0.00  0.00    +0.037 C 
ATOM      5  C   UNL     1      34.791 -18.954 -23.594  0.00  0.00    -0.001 C 
ATOM      6  C   UNL     1      34.713 -17.037 -25.184  0.00  0.00    +0.034 C 
ATOM      7  C   UNL     1      35.033 -18.612 -21.215  0.00  0.00    +0.003 C 
ATOM      8  C   UNL     1      34.895 -19.474 -22.304  0.00  0.00    -0.000 C 
ENDBRANCH   1   2
BRANCH   1   9
ATOM      9  C   UNL     1      34.540 -14.562 -21.802  0.00  0.00    +0.237 C 
BRANCH   9  10
ATOM     10  C   UNL     1      33.188 -13.949 -22.148  0.00  0.00    +0.183 C 
BRANCH  10  11
ATOM     11  O   UNL     1      32.163 -14.897 -21.846  0.00  0.00    -0.378 OA
ATOM     12  H   UNL     1      32.563 -15.766 -21.683  0.00  0.00    +0.211 HD
ENDBRANCH  10  11
BRANCH  10  13
ATOM     13  C   UNL     1      33.093 -13.610 -23.631  0.00  0.00    +0.170 C 
BRANCH  13  14
ATOM     14  O   UNL     1      34.168 -12.744 -23.977  0.00  0.00    -0.379 OA
ATOM     15  H   UNL     1      34.467 -12.944 -24.878  0.00  0.00    +0.211 HD
ENDBRANCH  13  14
ENDBRANCH  10  13
ENDBRANCH   9  10
ENDBRANCH   1   9
TORSDOF 6
ENDMDL
MODEL 6
REMARK VINA RESULT:      -6.3      7.179      9.952
REMARK  Name = 4059
REMARK  6 active torsions:
REMARK  status: ('A' for Active; 'I' for Inactive)
REMARK    1  A    between atoms: O_1  and  C_2
REMARK    2  A    between atoms: O_1  and  C_9
REMARK    3  A    between atoms: C_9  and  C_10
REMARK    4  A    between atoms: C_10  and  O_11
REMARK    5  A    between atoms: C_10  and  C_13
REMARK    6  A    between atoms: C_13  and  O_14
REMARK                            x       y       z     vdW  Elec       q    Type
REMARK                         _______ _______ _______ _____ _____    ______ ____
ROOT
ATOM      1  O   UNL     1      34.567 -15.922 -24.527  0.00  0.00    -0.473 OA
ENDROOT
BRANCH   1   2
ATOM      2  C   UNL     1      34.685 -16.746 -23.440  0.00  0.00    +0.135 C 
ATOM      3  C   UNL     1      34.636 -18.128 -23.592  0.00  0.00    +0.012 C 
ATOM      4  C   UNL     1      34.854 -16.179 -22.180  0.00  0.00    +0.037 C 
ATOM      5  C   UNL     1      34.759 -18.952 -22.473  0.00  0.00    -0.001 C 
ATOM      6  C   UNL     1      34.456 -18.748 -24.938  0.00  0.00    +0.034 C 
ATOM      7  C   UNL     1      34.976 -17.003 -21.062  0.00  0.00    +0.003 C 
ATOM      8  C   UNL     1      34.929 -18.390 -21.207  0.00  0.00    -0.000 C 
ENDBRANCH   1   2
BRANCH   1   9
ATOM      9  C   UNL     1      33.594 -14.886 -24.443  0.00  0.00    +0.237 C 
BRANCH   9  10
ATOM     10  C   UNL     1      32.914 -14.703 -25.795  0.00  0.00    +0.183 C 
BRANCH  10  11
ATOM     11  O   UNL     1      33.333 -15.756 -26.665  0.00  0.00    -0.378 OA
ATOM     12  H   UNL     1      32.567 -16.093 -27.157  0.00  0.00    +0.211 HD
ENDBRANCH  10  11
BRANCH  10  13
ATOM     13  C   UNL     1      33.303 -13.378 -26.439  0.00  0.00    +0.170 C 
BRANCH  13  14
ATOM     14  O   UNL     1      33.810 -13.631 -27.744  0.00  0.00    -0.379 OA
ATOM     15  H   UNL     1      34.740 -13.901 -27.683  0.00  0.00    +0.211 HD
ENDBRANCH  13  14
ENDBRANCH  10  13
ENDBRANCH   9  10
ENDBRANCH   1   9
TORSDOF 6
ENDMDL
MODEL 7
REMARK VINA RESULT:      -6.3      2.419      3.605
REMARK  Name = 4059
REMARK  6 active torsions:
REMARK  status: ('A' for Active; 'I' for Inactive)
REMARK    1  A    between atoms: O_1  and  C_2
REMARK    2  A    between atoms: O_1  and  C_9
REMARK    3  A    between atoms: C_9  and  C_10
REMARK    4  A    between atoms: C_10  and  O_11
REMARK    5  A    between atoms: C_10  and  C_13
REMARK    6  A    between atoms: C_13  and  O_14
REMARK                            x       y       z     vdW  Elec       q    Type
REMARK                         _______ _______ _______ _____ _____    ______ ____
ROOT
ATOM      1  O   UNL     1      33.087 -22.241 -18.952  0.00  0.00    -0.473 OA
ENDROOT
BRANCH   1   2
ATOM      2  C   UNL     1      34.142 -21.531 -19.460  0.00  0.00    +0.135 C 
ATOM      3  C   UNL     1      33.923 -20.421 -20.269  0.00  0.00    +0.012 C 
ATOM      4  C   UNL     1      35.438 -21.939 -19.154  0.00  0.00    +0.037 C 
ATOM      5  C   UNL     1      35.011 -19.710 -20.776  0.00  0.00    -0.001 C 
ATOM      6  C   UNL     1      32.539 -19.974 -20.603  0.00  0.00    +0.034 C 
ATOM      7  C   UNL     1      36.524 -21.228 -19.662  0.00  0.00    +0.003 C 
ATOM      8  C   UNL     1      36.312 -20.113 -20.474  0.00  0.00    -0.000 C 
ENDBRANCH   1   2
BRANCH   1   9
ATOM      9  C   UNL     1      33.403 -23.332 -18.094  0.00  0.00    +0.237 C 
BRANCH   9  10
ATOM     10  C   UNL     1      33.022 -22.990 -16.658  0.00  0.00    +0.183 C 
BRANCH  10  11
ATOM     11  O   UNL     1      33.835 -23.760 -15.772  0.00  0.00    -0.378 OA
ATOM     12  H   UNL     1      33.934 -23.287 -14.930  0.00  0.00    +0.211 HD
ENDBRANCH  10  11
BRANCH  10  13
ATOM     13  C   UNL     1      31.564 -23.329 -16.373  0.00  0.00    +0.170 C 
BRANCH  13  14
ATOM     14  O   UNL     1      30.731 -22.446 -17.117  0.00  0.00    -0.379 OA
ATOM     15  H   UNL     1      29.893 -22.890 -17.324  0.00  0.00    +0.211 HD
ENDBRANCH  13  14
ENDBRANCH  10  13
ENDBRANCH   9  10
ENDBRANCH   1   9
TORSDOF 6
ENDMDL
MODEL 8
REMARK VINA RESULT:      -6.3      6.891      9.247
REMARK  Name = 4059
REMARK  6 active torsions:
REMARK  status: ('A' for Active; 'I' for Inactive)
REMARK    1  A    between atoms: O_1  and  C_2
REMARK    2  A    between atoms: O_1  and  C_9
REMARK    3  A    between atoms: C_9  and  C_10
REMARK    4  A    between atoms: C_10  and  O_11
REMARK    5  A    between atoms: C_10  and  C_13
REMARK    6  A    between atoms: C_13  and  O_14
REMARK                            x       y       z     vdW  Elec       q    Type
REMARK                         _______ _______ _______ _____ _____    ______ ____
ROOT
ATOM      1  O   UNL     1      34.864 -15.258 -23.427  0.00  0.00    -0.473 OA
ENDROOT
BRANCH   1   2
ATOM      2  C   UNL     1      34.902 -16.561 -23.008  0.00  0.00    +0.135 C 
ATOM      3  C   UNL     1      34.813 -16.872 -21.655  0.00  0.00    +0.012 C 
ATOM      4  C   UNL     1      35.031 -17.571 -23.958  0.00  0.00    +0.037 C 
ATOM      5  C   UNL     1      34.853 -18.205 -21.247  0.00  0.00    -0.001 C 
ATOM      6  C   UNL     1      34.675 -15.797 -20.627  0.00  0.00    +0.034 C 
ATOM      7  C   UNL     1      35.070 -18.903 -23.549  0.00  0.00    +0.003 C 
ATOM      8  C   UNL     1      34.981 -19.221 -22.194  0.00  0.00    -0.000 C 
ENDBRANCH   1   2
BRANCH   1   9
ATOM      9  C   UNL     1      33.823 -14.906 -24.331  0.00  0.00    +0.237 C 
BRANCH   9  10
ATOM     10  C   UNL     1      33.190 -13.587 -23.903  0.00  0.00    +0.183 C 
BRANCH  10  11
ATOM     11  O   UNL     1      34.226 -12.622 -23.712  0.00  0.00    -0.378 OA
ATOM     12  H   UNL     1      34.988 -12.851 -24.268  0.00  0.00    +0.211 HD
ENDBRANCH  10  11
BRANCH  10  13
ATOM     13  C   UNL     1      32.434 -13.732 -22.588  0.00  0.00    +0.170 C 
BRANCH  13  14
ATOM     14  O   UNL     1      31.615 -12.584 -22.397  0.00  0.00    -0.379 OA
ATOM     15  H   UNL     1      32.023 -12.002 -21.735  0.00  0.00    +0.211 HD
ENDBRANCH  13  14
ENDBRANCH  10  13
ENDBRANCH   9  10
ENDBRANCH   1   9
TORSDOF 6
ENDMDL
MODEL 9
REMARK VINA RESULT:      -6.2      1.589      2.668
REMARK  Name = 4059
REMARK  6 active torsions:
REMARK  status: ('A' for Active; 'I' for Inactive)
REMARK    1  A    between atoms: O_1  and  C_2
REMARK    2  A    between atoms: O_1  and  C_9
REMARK    3  A    between atoms: C_9  and  C_10
REMARK    4  A    between atoms: C_10  and  O_11
REMARK    5  A    between atoms: C_10  and  C_13
REMARK    6  A    between atoms: C_13  and  O_14
REMARK                            x       y       z     vdW  Elec       q    Type
REMARK                         _______ _______ _______ _____ _____    ______ ____
ROOT
ATOM      1  O   UNL     1      34.663 -22.853 -18.616  0.00  0.00    -0.473 OA
ENDROOT
BRANCH   1   2
ATOM      2  C   UNL     1      34.419 -21.740 -19.375  0.00  0.00    +0.135 C 
ATOM      3  C   UNL     1      35.471 -21.018 -19.928  0.00  0.00    +0.012 C 
ATOM      4  C   UNL     1      33.102 -21.344 -19.586  0.00  0.00    +0.037 C 
ATOM      5  C   UNL     1      35.204 -19.887 -20.700  0.00  0.00    -0.001 C 
ATOM      6  C   UNL     1      36.888 -21.434 -19.710  0.00  0.00    +0.034 C 
ATOM      7  C   UNL     1      32.835 -20.213 -20.357  0.00  0.00    +0.003 C 
ATOM      8  C   UNL     1      33.885 -19.484 -20.915  0.00  0.00    -0.000 C 
ENDBRANCH   1   2
BRANCH   1   9
ATOM      9  C   UNL     1      33.833 -23.044 -17.475  0.00  0.00    +0.237 C 
BRANCH   9  10
ATOM     10  C   UNL     1      34.659 -22.894 -16.203  0.00  0.00    +0.183 C 
BRANCH  10  11
ATOM     11  O   UNL     1      36.020 -23.210 -16.500  0.00  0.00    -0.378 OA
ATOM     12  H   UNL     1      36.559 -23.106 -15.698  0.00  0.00    +0.211 HD
ENDBRANCH  10  11
BRANCH  10  13
ATOM     13  C   UNL     1      34.182 -23.846 -15.113  0.00  0.00    +0.170 C 
BRANCH  13  14
ATOM     14  O   UNL     1      33.333 -23.135 -14.218  0.00  0.00    -0.379 OA
ATOM     15  H   UNL     1      33.809 -22.963 -13.390  0.00  0.00    +0.211 HD
ENDBRANCH  13  14
ENDBRANCH  10  13
ENDBRANCH   9  10
ENDBRANCH   1   9
TORSDOF 6
ENDMDL
