MODEL 1
REMARK VINA RESULT:      -8.4      0.000      0.000
REMARK  Name = 5311412
REMARK  3 active torsions:
REMARK  status: ('A' for Active; 'I' for Inactive)
REMARK    1  A    between atoms: C_4  and  C_26
REMARK    2  A    between atoms: C_10  and  O_23
REMARK    3  A    between atoms: C_26  and  C_27
REMARK                            x       y       z     vdW  Elec       q    Type
REMARK                         _______ _______ _______ _____ _____    ______ ____
ROOT
ATOM      1  O   UNL     1      35.176  -9.877 -26.242  0.00  0.00    -0.287 OA
ATOM      2  C   UNL     1      34.425 -17.087 -22.344  0.00  0.00    +0.008 C 
ATOM      3  C   UNL     1      34.380 -16.808 -23.862  0.00  0.00    +0.001 C 
ATOM      4  C   UNL     1      35.249 -18.430 -22.330  0.00  0.00    +0.052 C 
ATOM      5  C   UNL     1      33.563 -15.563 -24.242  0.00  0.00    +0.003 C 
ATOM      6  C   UNL     1      34.195 -14.306 -23.545  0.00  0.00    +0.034 C 
ATOM      7  C   UNL     1      34.627 -19.215 -23.542  0.00  0.00    +0.007 C 
ATOM      8  C   UNL     1      33.986 -18.151 -24.471  0.00  0.00    +0.000 C 
ATOM      9  C   UNL     1      35.080 -15.862 -21.669  0.00  0.00    +0.030 C 
ATOM     10  C   UNL     1      34.386 -14.524 -22.011  0.00  0.00    +0.111 C 
ATOM     11  C   UNL     1      33.479 -12.963 -23.970  0.00  0.00    +0.036 C 
ATOM     12  C   UNL     1      33.528 -15.388 -25.771  0.00  0.00    +0.004 C 
ATOM     13  C   UNL     1      33.008 -17.330 -21.740  0.00  0.00    +0.000 C 
ATOM     14  C   UNL     1      36.774 -18.246 -22.436  0.00  0.00    +0.007 C 
ATOM     15  C   UNL     1      32.833 -14.098 -26.192  0.00  0.00    +0.022 C 
ATOM     16  C   UNL     1      33.465 -12.918 -25.502  0.00  0.00    -0.038 C 
ATOM     17  C   UNL     1      35.575 -20.134 -24.307  0.00  0.00    +0.000 C 
ATOM     18  C   UNL     1      32.020 -12.843 -23.472  0.00  0.00    +0.009 C 
ATOM     19  C   UNL     1      34.224 -11.769 -23.391  0.00  0.00    -0.020 C 
ATOM     20  C   UNL     1      34.012 -11.928 -26.224  0.00  0.00    +0.034 C 
ATOM     21  C   UNL     1      34.773 -10.781 -24.105  0.00  0.00    +0.038 C 
ATOM     22  C   UNL     1      34.691 -10.787 -25.576  0.00  0.00    +0.195 C 
ENDROOT
BRANCH  10  23
ATOM     23  O   UNL     1      33.151 -14.432 -21.315  0.00  0.00    -0.384 OA
ATOM     24  H   UNL     1      33.310 -14.518 -20.362  0.00  0.00    +0.210 HD
ENDBRANCH  10  23
BRANCH   4  26
ATOM     25  O   UNL     1      35.904 -19.230 -20.178  0.00  0.00    -0.296 OA
ATOM     26  C   UNL     1      35.040 -19.205 -21.053  0.00  0.00    +0.150 C 
BRANCH  26  27
ATOM     27  C   UNL     1      33.716 -19.937 -20.924  0.00  0.00    +0.064 C 
ATOM     28  C   UNL     1      33.714 -20.946 -19.790  0.00  0.00    +0.008 C 
ENDBRANCH  26  27
ENDBRANCH   4  26
TORSDOF 3
ENDMDL
MODEL 2
REMARK VINA RESULT:      -8.4      3.170      8.948
REMARK  Name = 5311412
REMARK  3 active torsions:
REMARK  status: ('A' for Active; 'I' for Inactive)
REMARK    1  A    between atoms: C_4  and  C_26
REMARK    2  A    between atoms: C_10  and  O_23
REMARK    3  A    between atoms: C_26  and  C_27
REMARK                            x       y       z     vdW  Elec       q    Type
REMARK                         _______ _______ _______ _____ _____    ______ ____
ROOT
ATOM      1  O   UNL     1      35.056 -16.414 -20.466  0.00  0.00    -0.287 OA
ATOM      2  C   UNL     1      33.066  -9.076 -23.618  0.00  0.00    +0.008 C 
ATOM      3  C   UNL     1      32.662  -9.675 -22.254  0.00  0.00    +0.001 C 
ATOM      4  C   UNL     1      33.334  -7.581 -23.199  0.00  0.00    +0.052 C 
ATOM      5  C   UNL     1      32.255 -11.156 -22.320  0.00  0.00    +0.003 C 
ATOM      6  C   UNL     1      33.464 -11.993 -22.869  0.00  0.00    +0.034 C 
ATOM      7  C   UNL     1      32.140  -7.292 -22.217  0.00  0.00    +0.007 C 
ATOM      8  C   UNL     1      31.660  -8.669 -21.692  0.00  0.00    +0.000 C 
ATOM      9  C   UNL     1      34.278  -9.881 -24.135  0.00  0.00    +0.030 C 
ATOM     10  C   UNL     1      34.023 -11.404 -24.202  0.00  0.00    +0.111 C 
ATOM     11  C   UNL     1      33.167 -13.545 -22.868  0.00  0.00    +0.036 C 
ATOM     12  C   UNL     1      31.819 -11.658 -20.931  0.00  0.00    +0.004 C 
ATOM     13  C   UNL     1      31.908  -9.133 -24.661  0.00  0.00    +0.000 C 
ATOM     14  C   UNL     1      34.718  -7.330 -22.574  0.00  0.00    +0.007 C 
ATOM     15  C   UNL     1      31.524 -13.153 -20.921  0.00  0.00    +0.022 C 
ATOM     16  C   UNL     1      32.705 -13.921 -21.456  0.00  0.00    -0.038 C 
ATOM     17  C   UNL     1      32.429  -6.322 -21.074  0.00  0.00    +0.000 C 
ATOM     18  C   UNL     1      32.067 -13.976 -23.864  0.00  0.00    +0.009 C 
ATOM     19  C   UNL     1      34.419 -14.316 -23.260  0.00  0.00    -0.020 C 
ATOM     20  C   UNL     1      33.316 -14.839 -20.690  0.00  0.00    +0.034 C 
ATOM     21  C   UNL     1      35.033 -15.230 -22.502  0.00  0.00    +0.038 C 
ATOM     22  C   UNL     1      34.511 -15.565 -21.164  0.00  0.00    +0.195 C 
ENDROOT
BRANCH  10  23
ATOM     23  O   UNL     1      33.171 -11.701 -25.299  0.00  0.00    -0.384 OA
ATOM     24  H   UNL     1      32.421 -11.087 -25.300  0.00  0.00    +0.210 HD
ENDBRANCH  10  23
BRANCH   4  26
ATOM     25  O   UNL     1      32.229  -6.044 -24.655  0.00  0.00    -0.296 OA
ATOM     26  C   UNL     1      33.267  -6.645 -24.381  0.00  0.00    +0.150 C 
BRANCH  26  27
ATOM     27  C   UNL     1      34.542  -6.498 -25.191  0.00  0.00    +0.064 C 
ATOM     28  C   UNL     1      34.405  -5.493 -26.320  0.00  0.00    +0.008 C 
ENDBRANCH  26  27
ENDBRANCH   4  26
TORSDOF 3
ENDMDL
MODEL 3
REMARK VINA RESULT:      -7.2     10.991     13.397
REMARK  Name = 5311412
REMARK  3 active torsions:
REMARK  status: ('A' for Active; 'I' for Inactive)
REMARK    1  A    between atoms: C_4  and  C_26
REMARK    2  A    between atoms: C_10  and  O_23
REMARK    3  A    between atoms: C_26  and  C_27
REMARK                            x       y       z     vdW  Elec       q    Type
REMARK                         _______ _______ _______ _____ _____    ______ ____
ROOT
ATOM      1  O   UNL     1      40.224 -26.496 -14.625  0.00  0.00    -0.287 OA
ATOM      2  C   UNL     1      32.502 -23.662 -14.346  0.00  0.00    +0.008 C 
ATOM      3  C   UNL     1      33.536 -23.519 -15.484  0.00  0.00    +0.001 C 
ATOM      4  C   UNL     1      31.196 -23.924 -15.186  0.00  0.00    +0.052 C 
ATOM      5  C   UNL     1      34.954 -23.178 -14.998  0.00  0.00    +0.003 C 
ATOM      6  C   UNL     1      35.453 -24.318 -14.041  0.00  0.00    +0.034 C 
ATOM      7  C   UNL     1      31.348 -22.898 -16.367  0.00  0.00    +0.007 C 
ATOM      8  C   UNL     1      32.861 -22.578 -16.478  0.00  0.00    +0.000 C 
ATOM      9  C   UNL     1      32.981 -24.808 -13.429  0.00  0.00    +0.030 C 
ATOM     10  C   UNL     1      34.424 -24.619 -12.907  0.00  0.00    +0.111 C 
ATOM     11  C   UNL     1      36.949 -24.100 -13.579  0.00  0.00    +0.036 C 
ATOM     12  C   UNL     1      35.906 -23.003 -16.195  0.00  0.00    +0.004 C 
ATOM     13  C   UNL     1      32.344 -22.352 -13.516  0.00  0.00    +0.000 C 
ATOM     14  C   UNL     1      31.018 -25.379 -15.655  0.00  0.00    +0.007 C 
ATOM     15  C   UNL     1      37.351 -22.785 -15.760  0.00  0.00    +0.022 C 
ATOM     16  C   UNL     1      37.792 -23.897 -14.843  0.00  0.00    -0.038 C 
ATOM     17  C   UNL     1      30.762 -23.325 -17.710  0.00  0.00    +0.000 C 
ATOM     18  C   UNL     1      37.151 -22.871 -12.664  0.00  0.00    +0.009 C 
ATOM     19  C   UNL     1      37.430 -25.305 -12.785  0.00  0.00    -0.020 C 
ATOM     20  C   UNL     1      38.838 -24.669 -15.174  0.00  0.00    +0.034 C 
ATOM     21  C   UNL     1      38.470 -26.078 -13.109  0.00  0.00    +0.038 C 
ATOM     22  C   UNL     1      39.257 -25.803 -14.325  0.00  0.00    +0.195 C 
ENDROOT
BRANCH  10  23
ATOM     23  O   UNL     1      34.444 -23.612 -11.905  0.00  0.00    -0.384 OA
ATOM     24  H   UNL     1      33.543 -23.286 -11.758  0.00  0.00    +0.210 HD
ENDBRANCH  10  23
BRANCH   4  26
ATOM     25  O   UNL     1      29.613 -24.318 -13.441  0.00  0.00    -0.296 OA
ATOM     26  C   UNL     1      29.947 -23.617 -14.395  0.00  0.00    +0.150 C 
BRANCH  26  27
ATOM     27  C   UNL     1      29.149 -22.408 -14.848  0.00  0.00    +0.064 C 
ATOM     28  C   UNL     1      27.894 -22.789 -15.613  0.00  0.00    +0.008 C 
ENDBRANCH  26  27
ENDBRANCH   4  26
TORSDOF 3
ENDMDL
MODEL 4
REMARK VINA RESULT:      -5.5     10.343     12.395
REMARK  Name = 5311412
REMARK  3 active torsions:
REMARK  status: ('A' for Active; 'I' for Inactive)
REMARK    1  A    between atoms: C_4  and  C_26
REMARK    2  A    between atoms: C_10  and  O_23
REMARK    3  A    between atoms: C_26  and  C_27
REMARK                            x       y       z     vdW  Elec       q    Type
REMARK                         _______ _______ _______ _____ _____    ______ ____
ROOT
ATOM      1  O   UNL     1      27.589 -21.545 -14.936  0.00  0.00    -0.287 OA
ATOM      2  C   UNL     1      35.404 -24.120 -14.781  0.00  0.00    +0.008 C 
ATOM      3  C   UNL     1      34.735 -23.145 -15.774  0.00  0.00    +0.001 C 
ATOM      4  C   UNL     1      36.799 -23.413 -14.593  0.00  0.00    +0.052 C 
ATOM      5  C   UNL     1      33.337 -23.590 -16.237  0.00  0.00    +0.003 C 
ATOM      6  C   UNL     1      32.401 -23.711 -14.983  0.00  0.00    +0.034 C 
ATOM      7  C   UNL     1      37.152 -22.975 -16.061  0.00  0.00    +0.007 C 
ATOM      8  C   UNL     1      35.809 -22.902 -16.832  0.00  0.00    +0.000 C 
ATOM      9  C   UNL     1      34.495 -24.207 -13.536  0.00  0.00    +0.030 C 
ATOM     10  C   UNL     1      33.035 -24.596 -13.864  0.00  0.00    +0.111 C 
ATOM     11  C   UNL     1      30.911 -24.060 -15.381  0.00  0.00    +0.036 C 
ATOM     12  C   UNL     1      32.766 -22.591 -17.260  0.00  0.00    +0.004 C 
ATOM     13  C   UNL     1      35.609 -25.542 -15.388  0.00  0.00    +0.000 C 
ATOM     14  C   UNL     1      36.795 -22.246 -13.589  0.00  0.00    +0.007 C 
ATOM     15  C   UNL     1      31.332 -22.923 -17.656  0.00  0.00    +0.022 C 
ATOM     16  C   UNL     1      30.466 -23.033 -16.428  0.00  0.00    -0.038 C 
ATOM     17  C   UNL     1      37.955 -21.686 -16.205  0.00  0.00    +0.000 C 
ATOM     18  C   UNL     1      30.736 -25.471 -15.987  0.00  0.00    +0.009 C 
ATOM     19  C   UNL     1      30.018 -24.013 -14.150  0.00  0.00    -0.020 C 
ATOM     20  C   UNL     1      29.402 -22.228 -16.278  0.00  0.00    +0.034 C 
ATOM     21  C   UNL     1      28.959 -23.213 -13.994  0.00  0.00    +0.038 C 
ATOM     22  C   UNL     1      28.569 -22.272 -15.059  0.00  0.00    +0.195 C 
ENDROOT
BRANCH  10  23
ATOM     23  O   UNL     1      32.968 -25.976 -14.192  0.00  0.00    -0.384 OA
ATOM     24  H   UNL     1      33.569 -26.162 -14.930  0.00  0.00    +0.210 HD
ENDBRANCH  10  23
BRANCH   4  26
ATOM     25  O   UNL     1      38.669 -24.879 -14.833  0.00  0.00    -0.296 OA
ATOM     26  C   UNL     1      37.848 -24.367 -14.074  0.00  0.00    +0.150 C 
BRANCH  26  27
ATOM     27  C   UNL     1      37.820 -24.644 -12.582  0.00  0.00    +0.064 C 
ATOM     28  C   UNL     1      37.485 -26.089 -12.262  0.00  0.00    +0.008 C 
ENDBRANCH  26  27
ENDBRANCH   4  26
TORSDOF 3
ENDMDL
