MODEL 1
REMARK VINA RESULT:      -5.5      0.000      0.000
REMARK  Name = 13017
REMARK  1 active torsions:
REMARK  status: ('A' for Active; 'I' for Inactive)
REMARK    1  A    between atoms: C_1  and  N_8
REMARK                            x       y       z     vdW  Elec       q    Type
REMARK                         _______ _______ _______ _____ _____    ______ ____
ROOT
ATOM      1  C   UNL     1      34.866 -18.887 -21.602  0.00  0.00    +0.072 C 
ATOM      2  C   UNL     1      33.497 -19.038 -20.932  0.00  0.00    +0.020 C 
ATOM      3  C   UNL     1      35.973 -19.522 -20.754  0.00  0.00    +0.020 C 
ATOM      4  C   UNL     1      33.189 -20.485 -20.548  0.00  0.00    +0.002 C 
ATOM      5  C   UNL     1      35.661 -20.968 -20.372  0.00  0.00    +0.002 C 
ATOM      6  C   UNL     1      34.299 -21.091 -19.696  0.00  0.00    +0.000 C 
ENDROOT
BRANCH   1   8
ATOM      7  O   UNL     1      34.843 -17.445 -24.158  0.00  0.00    -0.265 OA
ATOM      8  N   UNL     1      34.853 -19.441 -22.938  0.00  0.00    -0.299 N 
ATOM      9  C   UNL     1      34.843 -18.667 -24.077  0.00  0.00    +0.299 C 
ATOM     10  H   UNL     1      34.853 -20.420 -23.038  0.00  0.00    +0.150 HD
ENDBRANCH   1   8
TORSDOF 1
ENDMDL
MODEL 2
REMARK VINA RESULT:      -5.5      1.554      2.374
REMARK  Name = 13017
REMARK  1 active torsions:
REMARK  status: ('A' for Active; 'I' for Inactive)
REMARK    1  A    between atoms: C_1  and  N_8
REMARK                            x       y       z     vdW  Elec       q    Type
REMARK                         _______ _______ _______ _____ _____    ______ ____
ROOT
ATOM      1  C   UNL     1      35.074 -19.410 -21.434  0.00  0.00    +0.072 C 
ATOM      2  C   UNL     1      35.880 -20.575 -20.850  0.00  0.00    +0.020 C 
ATOM      3  C   UNL     1      33.583 -19.755 -21.524  0.00  0.00    +0.020 C 
ATOM      4  C   UNL     1      35.309 -21.074 -19.523  0.00  0.00    +0.002 C 
ATOM      5  C   UNL     1      33.017 -20.255 -20.195  0.00  0.00    +0.002 C 
ATOM      6  C   UNL     1      33.828 -21.422 -19.641  0.00  0.00    +0.000 C 
ENDROOT
BRANCH   1   8
ATOM      7  O   UNL     1      34.834 -16.631 -22.343  0.00  0.00    -0.265 OA
ATOM      8  N   UNL     1      35.282 -18.201 -20.669  0.00  0.00    -0.299 N 
ATOM      9  C   UNL     1      35.141 -16.938 -21.198  0.00  0.00    +0.299 C 
ATOM     10  H   UNL     1      35.535 -18.285 -19.721  0.00  0.00    +0.150 HD
ENDBRANCH   1   8
TORSDOF 1
ENDMDL
MODEL 3
REMARK VINA RESULT:      -5.3      2.998      4.214
REMARK  Name = 13017
REMARK  1 active torsions:
REMARK  status: ('A' for Active; 'I' for Inactive)
REMARK    1  A    between atoms: C_1  and  N_8
REMARK                            x       y       z     vdW  Elec       q    Type
REMARK                         _______ _______ _______ _____ _____    ______ ____
ROOT
ATOM      1  C   UNL     1      35.221 -16.652 -22.875  0.00  0.00    +0.072 C 
ATOM      2  C   UNL     1      35.705 -18.042 -22.449  0.00  0.00    +0.020 C 
ATOM      3  C   UNL     1      35.059 -16.562 -24.396  0.00  0.00    +0.020 C 
ATOM      4  C   UNL     1      34.835 -19.164 -23.016  0.00  0.00    +0.002 C 
ATOM      5  C   UNL     1      34.190 -17.686 -24.960  0.00  0.00    +0.002 C 
ATOM      6  C   UNL     1      34.698 -19.059 -24.532  0.00  0.00    +0.000 C 
ENDROOT
BRANCH   1   8
ATOM      7  O   UNL     1      34.896 -15.439 -20.224  0.00  0.00    -0.265 OA
ATOM      8  N   UNL     1      33.991 -16.302 -22.200  0.00  0.00    -0.299 N 
ATOM      9  C   UNL     1      33.952 -15.732 -20.947  0.00  0.00    +0.299 C 
ATOM     10  H   UNL     1      33.139 -16.478 -22.660  0.00  0.00    +0.150 HD
ENDBRANCH   1   8
TORSDOF 1
ENDMDL
MODEL 4
REMARK VINA RESULT:      -5.3      3.673      4.911
REMARK  Name = 13017
REMARK  1 active torsions:
REMARK  status: ('A' for Active; 'I' for Inactive)
REMARK    1  A    between atoms: C_1  and  N_8
REMARK                            x       y       z     vdW  Elec       q    Type
REMARK                         _______ _______ _______ _____ _____    ______ ____
ROOT
ATOM      1  C   UNL     1      34.853 -15.975 -21.715  0.00  0.00    +0.072 C 
ATOM      2  C   UNL     1      34.508 -15.113 -22.933  0.00  0.00    +0.020 C 
ATOM      3  C   UNL     1      34.370 -15.320 -20.416  0.00  0.00    +0.020 C 
ATOM      4  C   UNL     1      33.028 -14.731 -22.980  0.00  0.00    +0.002 C 
ATOM      5  C   UNL     1      32.891 -14.940 -20.467  0.00  0.00    +0.002 C 
ATOM      6  C   UNL     1      32.575 -14.072 -21.681  0.00  0.00    +0.000 C 
ENDROOT
BRANCH   1   8
ATOM      7  O   UNL     1      35.919 -18.479 -20.619  0.00  0.00    -0.265 OA
ATOM      8  N   UNL     1      34.315 -17.310 -21.855  0.00  0.00    -0.299 N 
ATOM      9  C   UNL     1      34.900 -18.424 -21.295  0.00  0.00    +0.299 C 
ATOM     10  H   UNL     1      33.488 -17.428 -22.375  0.00  0.00    +0.150 HD
ENDBRANCH   1   8
TORSDOF 1
ENDMDL
MODEL 5
REMARK VINA RESULT:      -5.3      8.030      9.092
REMARK  Name = 13017
REMARK  1 active torsions:
REMARK  status: ('A' for Active; 'I' for Inactive)
REMARK    1  A    between atoms: C_1  and  N_8
REMARK                            x       y       z     vdW  Elec       q    Type
REMARK                         _______ _______ _______ _____ _____    ______ ____
ROOT
ATOM      1  C   UNL     1      30.041 -23.834 -16.179  0.00  0.00    +0.072 C 
ATOM      2  C   UNL     1      31.402 -23.137 -16.083  0.00  0.00    +0.020 C 
ATOM      3  C   UNL     1      29.971 -25.048 -15.247  0.00  0.00    +0.020 C 
ATOM      4  C   UNL     1      31.786 -22.797 -14.644  0.00  0.00    +0.002 C 
ATOM      5  C   UNL     1      30.356 -24.704 -13.808  0.00  0.00    +0.002 C 
ATOM      6  C   UNL     1      31.720 -24.023 -13.738  0.00  0.00    +0.000 C 
ENDROOT
BRANCH   1   8
ATOM      7  O   UNL     1      27.569 -23.434 -17.708  0.00  0.00    -0.265 OA
ATOM      8  N   UNL     1      28.964 -22.908 -15.907  0.00  0.00    -0.299 N 
ATOM      9  C   UNL     1      27.840 -22.802 -16.696  0.00  0.00    +0.299 C 
ATOM     10  H   UNL     1      29.037 -22.325 -15.117  0.00  0.00    +0.150 HD
ENDBRANCH   1   8
TORSDOF 1
ENDMDL
MODEL 6
REMARK VINA RESULT:      -5.3      2.584      4.021
REMARK  Name = 13017
REMARK  1 active torsions:
REMARK  status: ('A' for Active; 'I' for Inactive)
REMARK    1  A    between atoms: C_1  and  N_8
REMARK                            x       y       z     vdW  Elec       q    Type
REMARK                         _______ _______ _______ _____ _____    ______ ____
ROOT
ATOM      1  C   UNL     1      34.991 -18.485 -21.349  0.00  0.00    +0.072 C 
ATOM      2  C   UNL     1      34.778 -16.991 -21.614  0.00  0.00    +0.020 C 
ATOM      3  C   UNL     1      34.427 -19.338 -22.490  0.00  0.00    +0.020 C 
ATOM      4  C   UNL     1      35.298 -16.560 -22.985  0.00  0.00    +0.002 C 
ATOM      5  C   UNL     1      34.949 -18.903 -23.859  0.00  0.00    +0.002 C 
ATOM      6  C   UNL     1      34.714 -17.416 -24.105  0.00  0.00    +0.000 C 
ENDROOT
BRANCH   1   8
ATOM      7  O   UNL     1      36.152 -20.535 -19.600  0.00  0.00    -0.265 OA
ATOM      8  N   UNL     1      36.390 -18.777 -21.124  0.00  0.00    -0.299 N 
ATOM      9  C   UNL     1      36.828 -19.769 -20.276  0.00  0.00    +0.299 C 
ATOM     10  H   UNL     1      37.062 -18.241 -21.603  0.00  0.00    +0.150 HD
ENDBRANCH   1   8
TORSDOF 1
ENDMDL
MODEL 7
REMARK VINA RESULT:      -5.3      9.593     10.596
REMARK  Name = 13017
REMARK  1 active torsions:
REMARK  status: ('A' for Active; 'I' for Inactive)
REMARK    1  A    between atoms: C_1  and  N_8
REMARK                            x       y       z     vdW  Elec       q    Type
REMARK                         _______ _______ _______ _____ _____    ______ ____
ROOT
ATOM      1  C   UNL     1      38.052 -26.323 -14.355  0.00  0.00    +0.072 C 
ATOM      2  C   UNL     1      37.860 -25.873 -12.903  0.00  0.00    +0.020 C 
ATOM      3  C   UNL     1      36.713 -26.398 -15.096  0.00  0.00    +0.020 C 
ATOM      4  C   UNL     1      37.053 -24.579 -12.794  0.00  0.00    +0.002 C 
ATOM      5  C   UNL     1      35.910 -25.102 -14.984  0.00  0.00    +0.002 C 
ATOM      6  C   UNL     1      35.721 -24.681 -13.530  0.00  0.00    +0.000 C 
ENDROOT
BRANCH   1   8
ATOM      7  O   UNL     1      40.983 -26.468 -14.377  0.00  0.00    -0.265 OA
ATOM      8  N   UNL     1      38.982 -25.459 -15.047  0.00  0.00    -0.299 N 
ATOM      9  C   UNL     1      40.349 -25.618 -14.989  0.00  0.00    +0.299 C 
ATOM     10  H   UNL     1      38.620 -24.721 -15.588  0.00  0.00    +0.150 HD
ENDBRANCH   1   8
TORSDOF 1
ENDMDL
MODEL 8
REMARK VINA RESULT:      -5.2      3.063      4.352
REMARK  Name = 13017
REMARK  1 active torsions:
REMARK  status: ('A' for Active; 'I' for Inactive)
REMARK    1  A    between atoms: C_1  and  N_8
REMARK                            x       y       z     vdW  Elec       q    Type
REMARK                         _______ _______ _______ _____ _____    ______ ____
ROOT
ATOM      1  C   UNL     1      34.949 -16.182 -23.700  0.00  0.00    +0.072 C 
ATOM      2  C   UNL     1      35.493 -17.160 -22.654  0.00  0.00    +0.020 C 
ATOM      3  C   UNL     1      34.918 -16.819 -25.094  0.00  0.00    +0.020 C 
ATOM      4  C   UNL     1      34.763 -18.503 -22.672  0.00  0.00    +0.002 C 
ATOM      5  C   UNL     1      34.188 -18.161 -25.108  0.00  0.00    +0.002 C 
ATOM      6  C   UNL     1      34.756 -19.121 -24.067  0.00  0.00    +0.000 C 
ENDROOT
BRANCH   1   8
ATOM      7  O   UNL     1      33.999 -13.406 -23.645  0.00  0.00    -0.265 OA
ATOM      8  N   UNL     1      33.640 -15.695 -23.323  0.00  0.00    -0.299 N 
ATOM      9  C   UNL     1      33.298 -14.361 -23.333  0.00  0.00    +0.299 C 
ATOM     10  H   UNL     1      32.960 -16.350 -23.046  0.00  0.00    +0.150 HD
ENDBRANCH   1   8
TORSDOF 1
ENDMDL
MODEL 9
REMARK VINA RESULT:      -5.2      3.707      4.650
REMARK  Name = 13017
REMARK  1 active torsions:
REMARK  status: ('A' for Active; 'I' for Inactive)
REMARK    1  A    between atoms: C_1  and  N_8
REMARK                            x       y       z     vdW  Elec       q    Type
REMARK                         _______ _______ _______ _____ _____    ______ ____
ROOT
ATOM      1  C   UNL     1      34.571 -15.150 -23.321  0.00  0.00    +0.072 C 
ATOM      2  C   UNL     1      34.121 -13.856 -22.634  0.00  0.00    +0.020 C 
ATOM      3  C   UNL     1      34.896 -16.241 -22.294  0.00  0.00    +0.020 C 
ATOM      4  C   UNL     1      32.984 -14.087 -21.640  0.00  0.00    +0.002 C 
ATOM      5  C   UNL     1      33.756 -16.467 -21.301  0.00  0.00    +0.002 C 
ATOM      6  C   UNL     1      33.335 -15.168 -20.622  0.00  0.00    +0.000 C 
ENDROOT
BRANCH   1   8
ATOM      7  O   UNL     1      34.991 -16.704 -25.774  0.00  0.00    -0.265 OA
ATOM      8  N   UNL     1      33.578 -15.607 -24.268  0.00  0.00    -0.299 N 
ATOM      9  C   UNL     1      33.886 -16.336 -25.394  0.00  0.00    +0.299 C 
ATOM     10  H   UNL     1      32.634 -15.387 -24.096  0.00  0.00    +0.150 HD
ENDBRANCH   1   8
TORSDOF 1
ENDMDL
