MODEL 1
REMARK VINA RESULT:      -8.1      0.000      0.000
REMARK  Name = 107807
REMARK  10 active torsions:
REMARK  status: ('A' for Active; 'I' for Inactive)
REMARK    1  A    between atoms: CA_6  and  C_13
REMARK    2  A    between atoms: C_11  and  CA_16
REMARK    3  A    between atoms: C_13  and  O_14
REMARK    4  A    between atoms: CA_16  and  N_18
REMARK    5  A    between atoms: N_18  and  C_21
REMARK    6  A    between atoms: C_21  and  C_23
REMARK    7  A    between atoms: C_21  and  C_27
REMARK    8  A    between atoms: C_23  and  O_24
REMARK    9  A    between atoms: O_24  and  C_25
REMARK   10  A    between atoms: C_27  and  C_28
REMARK                            x       y       z     vdW  Elec       q    Type
REMARK                         _______ _______ _______ _____ _____    ______ ____
ROOT
ATOM      1  O   ALA A   1      33.651 -23.616 -17.449  0.00  0.00    -0.277 OA
ATOM      2  N   ALA A   1      32.434 -23.414 -15.491  0.00  0.00    -0.275 N 
ATOM      3  C   ALA A   1      30.397 -22.310 -15.110  0.00  0.00    +0.020 C 
ATOM      4  C   ALA A   1      31.156 -23.138 -16.153  0.00  0.00    +0.076 C 
ATOM      5  C   ALA A   1      30.834 -22.946 -13.787  0.00  0.00    +0.033 C 
ATOM      6  CA  ALA A   1      32.300 -23.317 -14.033  0.00  0.00    +0.174 C 
ATOM      7  C   ALA A   1      28.888 -22.242 -15.323  0.00  0.00    +0.002 C 
ATOM      8  C   ALA A   1      30.456 -24.443 -16.549  0.00  0.00    +0.020 C 
ATOM      9  C   ALA A   1      28.257 -23.578 -15.698  0.00  0.00    +0.000 C 
ATOM     10  C   ALA A   1      28.983 -24.226 -16.872  0.00  0.00    +0.002 C 
ATOM     11  C   ALA A   1      33.610 -23.539 -16.218  0.00  0.00    +0.206 C 
ENDROOT
BRANCH   6  13
ATOM     12  OXT ALA A   1      31.933 -25.670 -13.625  0.00  0.00    -0.248 OA
ATOM     13  C   ALA A   1      32.586 -24.656 -13.426  0.00  0.00    +0.332 C 
BRANCH  13  14
ATOM     14  O   ALA A   1      33.673 -24.592 -12.619  0.00  0.00    -0.479 OA
ATOM     15  H   ALA A   1      34.164 -25.367 -12.432  0.00  0.00    +0.295 HD
ENDBRANCH  13  14
ENDBRANCH   6  13
BRANCH  11  16
ATOM     16  CA  ALA A   1      34.887 -23.595 -15.420  0.00  0.00    +0.018 C 
ATOM     17  CB  ALA A   1      35.961 -22.771 -16.100  0.00  0.00    -0.014 C 
BRANCH  16  18
ATOM     18  N   ALA A   1      35.274 -24.993 -15.341  0.00  0.00    +0.399 N 
ATOM     19  H1  ALA A   1      35.236 -25.402 -16.275  0.00  0.00    -0.083 HD
ATOM     20  H2  ALA A   1      34.629 -25.473 -14.713  0.00  0.00    -0.083 HD
BRANCH  18  21
ATOM     21  C   UNK A   0      36.626 -25.136 -14.815  0.00  0.00    +0.041 C 
BRANCH  21  23
ATOM     22  O   UNK A   0      36.638 -27.224 -16.077  0.00  0.00    -0.252 OA
ATOM     23  C   UNK A   0      37.178 -26.475 -15.274  0.00  0.00    +0.297 C 
BRANCH  23  24
ATOM     24  O   UNK A   0      38.376 -26.703 -14.657  0.00  0.00    -0.450 OA
BRANCH  24  25
ATOM     25  C   UNK A   0      39.469 -25.901 -15.114  0.00  0.00    +0.208 C 
ATOM     26  C   UNK A   0      40.474 -25.751 -13.992  0.00  0.00    +0.051 C 
ENDBRANCH  24  25
ENDBRANCH  23  24
ENDBRANCH  21  23
BRANCH  21  27
ATOM     27  C   UNK A   0      36.652 -24.993 -13.285  0.00  0.00    -0.010 C 
BRANCH  27  28
ATOM     28  C   UNK A   0      37.508 -23.829 -12.770  0.00  0.00    -0.002 C 
ATOM     29  C   UNK A   0      36.846 -23.140 -11.586  0.00  0.00    -0.000 C 
ENDBRANCH  27  28
ENDBRANCH  21  27
ENDBRANCH  18  21
ENDBRANCH  16  18
ENDBRANCH  11  16
TORSDOF 10
ENDMDL
MODEL 2
REMARK VINA RESULT:      -7.8     13.207     15.183
REMARK  Name = 107807
REMARK  10 active torsions:
REMARK  status: ('A' for Active; 'I' for Inactive)
REMARK    1  A    between atoms: CA_6  and  C_13
REMARK    2  A    between atoms: C_11  and  CA_16
REMARK    3  A    between atoms: C_13  and  O_14
REMARK    4  A    between atoms: CA_16  and  N_18
REMARK    5  A    between atoms: N_18  and  C_21
REMARK    6  A    between atoms: C_21  and  C_23
REMARK    7  A    between atoms: C_21  and  C_27
REMARK    8  A    between atoms: C_23  and  O_24
REMARK    9  A    between atoms: O_24  and  C_25
REMARK   10  A    between atoms: C_27  and  C_28
REMARK                            x       y       z     vdW  Elec       q    Type
REMARK                         _______ _______ _______ _____ _____    ______ ____
ROOT
ATOM      1  O   ALA A   1      32.099 -12.200 -21.454  0.00  0.00    -0.277 OA
ATOM      2  N   ALA A   1      32.520 -10.480 -22.944  0.00  0.00    -0.275 N 
ATOM      3  C   ALA A   1      31.339  -8.479 -23.282  0.00  0.00    +0.020 C 
ATOM      4  C   ALA A   1      31.779  -9.464 -22.193  0.00  0.00    +0.076 C 
ATOM      5  C   ALA A   1      32.532  -8.481 -24.243  0.00  0.00    +0.033 C 
ATOM      6  CA  ALA A   1      33.015  -9.936 -24.213  0.00  0.00    +0.174 C 
ATOM      7  C   ALA A   1      30.929  -7.102 -22.771  0.00  0.00    +0.002 C 
ATOM      8  C   ALA A   1      32.659  -8.843 -21.102  0.00  0.00    +0.020 C 
ATOM      9  C   ALA A   1      31.859  -6.539 -21.700  0.00  0.00    +0.000 C 
ATOM     10  C   ALA A   1      32.076  -7.540 -20.571  0.00  0.00    +0.002 C 
ATOM     11  C   ALA A   1      32.533 -11.808 -22.540  0.00  0.00    +0.206 C 
ENDROOT
BRANCH   6  13
ATOM     12  OXT ALA A   1      35.227  -9.146 -23.650  0.00  0.00    -0.248 OA
ATOM     13  C   ALA A   1      34.512  -9.965 -24.207  0.00  0.00    +0.332 C 
BRANCH  13  14
ATOM     14  O   ALA A   1      34.972 -11.029 -24.910  0.00  0.00    -0.479 OA
ATOM     15  H   ALA A   1      34.961 -11.014 -25.846  0.00  0.00    +0.295 HD
ENDBRANCH  13  14
ENDBRANCH   6  13
BRANCH  11  16
ATOM     16  CA  ALA A   1      33.136 -12.795 -23.507  0.00  0.00    +0.018 C 
ATOM     17  CB  ALA A   1      32.086 -13.795 -23.948  0.00  0.00    -0.014 C 
BRANCH  16  18
ATOM     18  N   ALA A   1      34.226 -13.456 -22.810  0.00  0.00    +0.399 N 
ATOM     19  H1  ALA A   1      34.244 -13.138 -21.841  0.00  0.00    -0.083 HD
ATOM     20  H2  ALA A   1      35.100 -13.223 -23.281  0.00  0.00    -0.083 HD
BRANCH  18  21
ATOM     21  C   UNK A   0      34.061 -14.905 -22.832  0.00  0.00    +0.041 C 
BRANCH  21  23
ATOM     22  O   UNK A   0      34.813 -14.792 -20.513  0.00  0.00    -0.252 OA
ATOM     23  C   UNK A   0      34.327 -15.436 -21.433  0.00  0.00    +0.297 C 
BRANCH  23  24
ATOM     24  O   UNK A   0      33.928 -16.741 -21.363  0.00  0.00    -0.450 OA
BRANCH  24  25
ATOM     25  C   UNK A   0      34.958 -17.687 -21.057  0.00  0.00    +0.208 C 
ATOM     26  C   UNK A   0      34.437 -19.084 -21.315  0.00  0.00    +0.051 C 
ENDBRANCH  24  25
ENDBRANCH  23  24
ENDBRANCH  21  23
BRANCH  21  27
ATOM     27  C   UNK A   0      34.972 -15.559 -23.882  0.00  0.00    -0.010 C 
BRANCH  27  28
ATOM     28  C   UNK A   0      34.234 -16.417 -24.917  0.00  0.00    -0.002 C 
ATOM     29  C   UNK A   0      34.650 -17.878 -24.820  0.00  0.00    -0.000 C 
ENDBRANCH  27  28
ENDBRANCH  21  27
ENDBRANCH  18  21
ENDBRANCH  16  18
ENDBRANCH  11  16
TORSDOF 10
ENDMDL
MODEL 3
REMARK VINA RESULT:      -7.7     10.317     13.301
REMARK  Name = 107807
REMARK  10 active torsions:
REMARK  status: ('A' for Active; 'I' for Inactive)
REMARK    1  A    between atoms: CA_6  and  C_13
REMARK    2  A    between atoms: C_11  and  CA_16
REMARK    3  A    between atoms: C_13  and  O_14
REMARK    4  A    between atoms: CA_16  and  N_18
REMARK    5  A    between atoms: N_18  and  C_21
REMARK    6  A    between atoms: C_21  and  C_23
REMARK    7  A    between atoms: C_21  and  C_27
REMARK    8  A    between atoms: C_23  and  O_24
REMARK    9  A    between atoms: O_24  and  C_25
REMARK   10  A    between atoms: C_27  and  C_28
REMARK                            x       y       z     vdW  Elec       q    Type
REMARK                         _______ _______ _______ _____ _____    ______ ____
ROOT
ATOM      1  O   ALA A   1      32.583 -16.037 -21.000  0.00  0.00    -0.277 OA
ATOM      2  N   ALA A   1      34.321 -17.118 -22.080  0.00  0.00    -0.275 N 
ATOM      3  C   ALA A   1      36.059 -18.414 -21.178  0.00  0.00    +0.020 C 
ATOM      4  C   ALA A   1      34.574 -18.080 -21.004  0.00  0.00    +0.076 C 
ATOM      5  C   ALA A   1      36.234 -18.399 -22.700  0.00  0.00    +0.033 C 
ATOM      6  CA  ALA A   1      35.306 -17.268 -23.157  0.00  0.00    +0.174 C 
ATOM      7  C   ALA A   1      36.510 -19.700 -20.493  0.00  0.00    +0.002 C 
ATOM      8  C   ALA A   1      33.639 -19.289 -21.124  0.00  0.00    +0.020 C 
ATOM      9  C   ALA A   1      35.541 -20.865 -20.669  0.00  0.00    +0.000 C 
ATOM     10  C   ALA A   1      34.120 -20.467 -20.286  0.00  0.00    +0.002 C 
ATOM     11  C   ALA A   1      33.386 -16.103 -21.934  0.00  0.00    +0.206 C 
ENDROOT
BRANCH   6  13
ATOM     12  OXT ALA A   1      33.889 -18.665 -24.527  0.00  0.00    -0.248 OA
ATOM     13  C   ALA A   1      34.599 -17.677 -24.412  0.00  0.00    +0.332 C 
BRANCH  13  14
ATOM     14  O   ALA A   1      34.857 -16.800 -25.413  0.00  0.00    -0.479 OA
ATOM     15  H   ALA A   1      35.167 -17.111 -26.241  0.00  0.00    +0.295 HD
ENDBRANCH  13  14
ENDBRANCH   6  13
BRANCH  11  16
ATOM     16  CA  ALA A   1      33.374 -15.046 -23.009  0.00  0.00    +0.018 C 
ATOM     17  CB  ALA A   1      34.661 -14.248 -22.966  0.00  0.00    -0.014 C 
BRANCH  16  18
ATOM     18  N   ALA A   1      32.224 -14.196 -22.751  0.00  0.00    +0.399 N 
ATOM     19  H1  ALA A   1      31.661 -14.613 -22.010  0.00  0.00    -0.083 HD
ATOM     20  H2  ALA A   1      31.682 -14.114 -23.611  0.00  0.00    -0.083 HD
BRANCH  18  21
ATOM     21  C   UNK A   0      32.640 -12.861 -22.338  0.00  0.00    +0.041 C 
BRANCH  21  23
ATOM     22  O   UNK A   0      32.293 -13.117 -19.936  0.00  0.00    -0.252 OA
ATOM     23  C   UNK A   0      32.009 -12.561 -20.989  0.00  0.00    +0.297 C 
BRANCH  23  24
ATOM     24  O   UNK A   0      31.085 -11.565 -21.135  0.00  0.00    -0.450 OA
BRANCH  24  25
ATOM     25  C   UNK A   0      30.872 -10.745 -19.981  0.00  0.00    +0.208 C 
ATOM     26  C   UNK A   0      31.923  -9.656 -19.950  0.00  0.00    +0.051 C 
ENDBRANCH  24  25
ENDBRANCH  23  24
ENDBRANCH  21  23
BRANCH  21  27
ATOM     27  C   UNK A   0      32.277 -11.806 -23.394  0.00  0.00    -0.010 C 
BRANCH  27  28
ATOM     28  C   UNK A   0      33.417 -10.844 -23.750  0.00  0.00    -0.002 C 
ATOM     29  C   UNK A   0      34.114 -11.267 -25.034  0.00  0.00    -0.000 C 
ENDBRANCH  27  28
ENDBRANCH  21  27
ENDBRANCH  18  21
ENDBRANCH  16  18
ENDBRANCH  11  16
TORSDOF 10
ENDMDL
MODEL 4
REMARK VINA RESULT:      -7.7     11.170     13.774
REMARK  Name = 107807
REMARK  10 active torsions:
REMARK  status: ('A' for Active; 'I' for Inactive)
REMARK    1  A    between atoms: CA_6  and  C_13
REMARK    2  A    between atoms: C_11  and  CA_16
REMARK    3  A    between atoms: C_13  and  O_14
REMARK    4  A    between atoms: CA_16  and  N_18
REMARK    5  A    between atoms: N_18  and  C_21
REMARK    6  A    between atoms: C_21  and  C_23
REMARK    7  A    between atoms: C_21  and  C_27
REMARK    8  A    between atoms: C_23  and  O_24
REMARK    9  A    between atoms: O_24  and  C_25
REMARK   10  A    between atoms: C_27  and  C_28
REMARK                            x       y       z     vdW  Elec       q    Type
REMARK                         _______ _______ _______ _____ _____    ______ ____
ROOT
ATOM      1  O   ALA A   1      35.223 -16.280 -24.832  0.00  0.00    -0.277 OA
ATOM      2  N   ALA A   1      34.313 -16.811 -22.772  0.00  0.00    -0.275 N 
ATOM      3  C   ALA A   1      34.119 -18.903 -21.724  0.00  0.00    +0.020 C 
ATOM      4  C   ALA A   1      35.043 -18.073 -22.622  0.00  0.00    +0.076 C 
ATOM      5  C   ALA A   1      33.535 -17.853 -20.774  0.00  0.00    +0.033 C 
ATOM      6  CA  ALA A   1      33.373 -16.615 -21.662  0.00  0.00    +0.174 C 
ATOM      7  C   ALA A   1      34.791 -20.087 -21.036  0.00  0.00    +0.002 C 
ATOM      8  C   ALA A   1      36.437 -17.828 -22.033  0.00  0.00    +0.020 C 
ATOM      9  C   ALA A   1      36.167 -19.767 -20.461  0.00  0.00    +0.000 C 
ATOM     10  C   ALA A   1      37.065 -19.110 -21.502  0.00  0.00    +0.002 C 
ATOM     11  C   ALA A   1      34.405 -16.060 -23.935  0.00  0.00    +0.206 C 
ENDROOT
BRANCH   6  13
ATOM     12  OXT ALA A   1      34.913 -14.965 -20.799  0.00  0.00    -0.248 OA
ATOM     13  C   ALA A   1      33.772 -15.393 -20.894  0.00  0.00    +0.332 C 
BRANCH  13  14
ATOM     14  O   ALA A   1      32.690 -14.820 -20.312  0.00  0.00    -0.479 OA
ATOM     15  H   ALA A   1      32.009 -15.357 -19.958  0.00  0.00    +0.295 HD
ENDBRANCH  13  14
ENDBRANCH   6  13
BRANCH  11  16
ATOM     16  CA  ALA A   1      33.442 -14.907 -24.065  0.00  0.00    +0.018 C 
ATOM     17  CB  ALA A   1      32.924 -14.821 -25.486  0.00  0.00    -0.014 C 
BRANCH  16  18
ATOM     18  N   ALA A   1      34.173 -13.705 -23.702  0.00  0.00    +0.399 N 
ATOM     19  H1  ALA A   1      34.942 -13.571 -24.359  0.00  0.00    -0.083 HD
ATOM     20  H2  ALA A   1      34.528 -13.815 -22.752  0.00  0.00    -0.083 HD
BRANCH  18  21
ATOM     21  C   UNK A   0      33.307 -12.532 -23.739  0.00  0.00    +0.041 C 
BRANCH  21  23
ATOM     22  O   UNK A   0      34.230 -11.521 -25.759  0.00  0.00    -0.252 OA
ATOM     23  C   UNK A   0      33.996 -11.455 -24.559  0.00  0.00    +0.297 C 
BRANCH  23  24
ATOM     24  O   UNK A   0      34.303 -10.398 -23.748  0.00  0.00    -0.450 OA
BRANCH  24  25
ATOM     25  C   UNK A   0      34.975  -9.307 -24.384  0.00  0.00    +0.208 C 
ATOM     26  C   UNK A   0      34.698  -8.037 -23.608  0.00  0.00    +0.051 C 
ENDBRANCH  24  25
ENDBRANCH  23  24
ENDBRANCH  21  23
BRANCH  21  27
ATOM     27  C   UNK A   0      32.956 -12.047 -22.324  0.00  0.00    -0.010 C 
BRANCH  27  28
ATOM     28  C   UNK A   0      31.456 -11.848 -22.073  0.00  0.00    -0.002 C 
ATOM     29  C   UNK A   0      31.199 -11.297 -20.679  0.00  0.00    -0.000 C 
ENDBRANCH  27  28
ENDBRANCH  21  27
ENDBRANCH  18  21
ENDBRANCH  16  18
ENDBRANCH  11  16
TORSDOF 10
ENDMDL
MODEL 5
REMARK VINA RESULT:      -7.3     10.033     13.024
REMARK  Name = 107807
REMARK  10 active torsions:
REMARK  status: ('A' for Active; 'I' for Inactive)
REMARK    1  A    between atoms: CA_6  and  C_13
REMARK    2  A    between atoms: C_11  and  CA_16
REMARK    3  A    between atoms: C_13  and  O_14
REMARK    4  A    between atoms: CA_16  and  N_18
REMARK    5  A    between atoms: N_18  and  C_21
REMARK    6  A    between atoms: C_21  and  C_23
REMARK    7  A    between atoms: C_21  and  C_27
REMARK    8  A    between atoms: C_23  and  O_24
REMARK    9  A    between atoms: O_24  and  C_25
REMARK   10  A    between atoms: C_27  and  C_28
REMARK                            x       y       z     vdW  Elec       q    Type
REMARK                         _______ _______ _______ _____ _____    ______ ____
ROOT
ATOM      1  O   ALA A   1      32.828 -16.269 -20.636  0.00  0.00    -0.277 OA
ATOM      2  N   ALA A   1      34.490 -17.573 -21.582  0.00  0.00    -0.275 N 
ATOM      3  C   ALA A   1      35.790 -19.268 -20.606  0.00  0.00    +0.020 C 
ATOM      4  C   ALA A   1      34.383 -18.660 -20.605  0.00  0.00    +0.076 C 
ATOM      5  C   ALA A   1      36.210 -19.148 -22.074  0.00  0.00    +0.033 C 
ATOM      6  CA  ALA A   1      35.593 -17.817 -22.518  0.00  0.00    +0.174 C 
ATOM      7  C   ALA A   1      35.879 -20.676 -20.026  0.00  0.00    +0.002 C 
ATOM      8  C   ALA A   1      33.274 -19.642 -21.003  0.00  0.00    +0.020 C 
ATOM      9  C   ALA A   1      34.754 -21.601 -20.478  0.00  0.00    +0.000 C 
ATOM     10  C   ALA A   1      33.388 -20.964 -20.255  0.00  0.00    +0.002 C 
ATOM     11  C   ALA A   1      33.747 -16.408 -21.447  0.00  0.00    +0.206 C 
ENDROOT
BRANCH   6  13
ATOM     12  OXT ALA A   1      34.348 -18.891 -24.287  0.00  0.00    -0.248 OA
ATOM     13  C   ALA A   1      35.038 -17.960 -23.901  0.00  0.00    +0.332 C 
BRANCH  13  14
ATOM     14  O   ALA A   1      35.408 -16.910 -24.675  0.00  0.00    -0.479 OA
ATOM     15  H   ALA A   1      35.167 -16.039 -24.430  0.00  0.00    +0.295 HD
ENDBRANCH  13  14
ENDBRANCH   6  13
BRANCH  11  16
ATOM     16  CA  ALA A   1      34.104 -15.276 -22.377  0.00  0.00    +0.018 C 
ATOM     17  CB  ALA A   1      34.896 -14.223 -21.629  0.00  0.00    -0.014 C 
BRANCH  16  18
ATOM     18  N   ALA A   1      32.854 -14.732 -22.878  0.00  0.00    +0.399 N 
ATOM     19  H1  ALA A   1      32.305 -14.381 -22.093  0.00  0.00    -0.083 HD
ATOM     20  H2  ALA A   1      32.351 -15.473 -23.366  0.00  0.00    -0.083 HD
BRANCH  18  21
ATOM     21  C   UNK A   0      33.095 -13.641 -23.815  0.00  0.00    +0.041 C 
BRANCH  21  23
ATOM     22  O   UNK A   0      33.045 -11.225 -23.474  0.00  0.00    -0.252 OA
ATOM     23  C   UNK A   0      32.658 -12.342 -23.158  0.00  0.00    +0.297 C 
BRANCH  23  24
ATOM     24  O   UNK A   0      31.758 -12.619 -22.167  0.00  0.00    -0.450 OA
BRANCH  24  25
ATOM     25  C   UNK A   0      31.224 -11.481 -21.483  0.00  0.00    +0.208 C 
ATOM     26  C   UNK A   0      31.597 -11.567 -20.018  0.00  0.00    +0.051 C 
ENDBRANCH  24  25
ENDBRANCH  23  24
ENDBRANCH  21  23
BRANCH  21  27
ATOM     27  C   UNK A   0      32.380 -13.881 -25.153  0.00  0.00    -0.010 C 
BRANCH  27  28
ATOM     28  C   UNK A   0      33.282 -14.424 -26.268  0.00  0.00    -0.002 C 
ATOM     29  C   UNK A   0      33.511 -13.380 -27.350  0.00  0.00    -0.000 C 
ENDBRANCH  27  28
ENDBRANCH  21  27
ENDBRANCH  18  21
ENDBRANCH  16  18
ENDBRANCH  11  16
TORSDOF 10
ENDMDL
MODEL 6
REMARK VINA RESULT:      -7.2      1.973      6.984
REMARK  Name = 107807
REMARK  10 active torsions:
REMARK  status: ('A' for Active; 'I' for Inactive)
REMARK    1  A    between atoms: CA_6  and  C_13
REMARK    2  A    between atoms: C_11  and  CA_16
REMARK    3  A    between atoms: C_13  and  O_14
REMARK    4  A    between atoms: CA_16  and  N_18
REMARK    5  A    between atoms: N_18  and  C_21
REMARK    6  A    between atoms: C_21  and  C_23
REMARK    7  A    between atoms: C_21  and  C_27
REMARK    8  A    between atoms: C_23  and  O_24
REMARK    9  A    between atoms: O_24  and  C_25
REMARK   10  A    between atoms: C_27  and  C_28
REMARK                            x       y       z     vdW  Elec       q    Type
REMARK                         _______ _______ _______ _____ _____    ______ ____
ROOT
ATOM      1  O   ALA A   1      35.039 -23.775 -16.054  0.00  0.00    -0.277 OA
ATOM      2  N   ALA A   1      36.052 -24.630 -14.157  0.00  0.00    -0.275 N 
ATOM      3  C   ALA A   1      37.739 -26.253 -13.971  0.00  0.00    +0.020 C 
ATOM      4  C   ALA A   1      37.265 -25.084 -14.842  0.00  0.00    +0.076 C 
ATOM      5  C   ALA A   1      37.387 -25.786 -12.556  0.00  0.00    +0.033 C 
ATOM      6  CA  ALA A   1      36.070 -25.026 -12.744  0.00  0.00    +0.174 C 
ATOM      7  C   ALA A   1      39.198 -26.650 -14.173  0.00  0.00    +0.002 C 
ATOM      8  C   ALA A   1      38.279 -23.942 -14.967  0.00  0.00    +0.020 C 
ATOM      9  C   ALA A   1      40.152 -25.464 -14.271  0.00  0.00    +0.000 C 
ATOM     10  C   ALA A   1      39.674 -24.451 -15.306  0.00  0.00    +0.002 C 
ATOM     11  C   ALA A   1      34.987 -24.087 -14.862  0.00  0.00    +0.206 C 
ENDROOT
BRANCH   6  13
ATOM     12  OXT ALA A   1      36.755 -22.801 -12.100  0.00  0.00    -0.248 OA
ATOM     13  C   ALA A   1      36.076 -23.795 -11.892  0.00  0.00    +0.332 C 
BRANCH  13  14
ATOM     14  O   ALA A   1      35.222 -23.933 -10.848  0.00  0.00    -0.479 OA
ATOM     15  H   ALA A   1      35.553 -24.120  -9.992  0.00  0.00    +0.295 HD
ENDBRANCH  13  14
ENDBRANCH   6  13
BRANCH  11  16
ATOM     16  CA  ALA A   1      33.714 -23.868 -14.085  0.00  0.00    +0.018 C 
ATOM     17  CB  ALA A   1      32.926 -25.160 -14.004  0.00  0.00    -0.014 C 
BRANCH  16  18
ATOM     18  N   ALA A   1      32.962 -22.843 -14.789  0.00  0.00    +0.399 N 
ATOM     19  H1  ALA A   1      33.545 -22.452 -15.529  0.00  0.00    -0.083 HD
ATOM     20  H2  ALA A   1      32.698 -22.118 -14.120  0.00  0.00    -0.083 HD
BRANCH  18  21
ATOM     21  C   UNK A   0      31.748 -23.393 -15.379  0.00  0.00    +0.041 C 
BRANCH  21  23
ATOM     22  O   UNK A   0      30.614 -22.224 -17.196  0.00  0.00    -0.252 OA
ATOM     23  C   UNK A   0      31.597 -22.823 -16.779  0.00  0.00    +0.297 C 
BRANCH  23  24
ATOM     24  O   UNK A   0      32.735 -23.073 -17.493  0.00  0.00    -0.450 OA
BRANCH  24  25
ATOM     25  C   UNK A   0      33.015 -22.152 -18.551  0.00  0.00    +0.208 C 
ATOM     26  C   UNK A   0      34.358 -22.494 -19.160  0.00  0.00    +0.051 C 
ENDBRANCH  24  25
ENDBRANCH  23  24
ENDBRANCH  21  23
BRANCH  21  27
ATOM     27  C   UNK A   0      30.518 -23.110 -14.503  0.00  0.00    -0.010 C 
BRANCH  27  28
ATOM     28  C   UNK A   0      29.266 -23.907 -14.889  0.00  0.00    -0.002 C 
ATOM     29  C   UNK A   0      29.541 -25.403 -14.879  0.00  0.00    -0.000 C 
ENDBRANCH  27  28
ENDBRANCH  21  27
ENDBRANCH  18  21
ENDBRANCH  16  18
ENDBRANCH  11  16
TORSDOF 10
ENDMDL
MODEL 7
REMARK VINA RESULT:      -7.1     14.177     16.074
REMARK  Name = 107807
REMARK  10 active torsions:
REMARK  status: ('A' for Active; 'I' for Inactive)
REMARK    1  A    between atoms: CA_6  and  C_13
REMARK    2  A    between atoms: C_11  and  CA_16
REMARK    3  A    between atoms: C_13  and  O_14
REMARK    4  A    between atoms: CA_16  and  N_18
REMARK    5  A    between atoms: N_18  and  C_21
REMARK    6  A    between atoms: C_21  and  C_23
REMARK    7  A    between atoms: C_21  and  C_27
REMARK    8  A    between atoms: C_23  and  O_24
REMARK    9  A    between atoms: O_24  and  C_25
REMARK   10  A    between atoms: C_27  and  C_28
REMARK                            x       y       z     vdW  Elec       q    Type
REMARK                         _______ _______ _______ _____ _____    ______ ____
ROOT
ATOM      1  O   ALA A   1      31.878 -11.269 -21.799  0.00  0.00    -0.277 OA
ATOM      2  N   ALA A   1      32.604  -9.463 -23.050  0.00  0.00    -0.275 N 
ATOM      3  C   ALA A   1      31.532  -7.418 -23.475  0.00  0.00    +0.020 C 
ATOM      4  C   ALA A   1      31.735  -8.483 -22.393  0.00  0.00    +0.076 C 
ATOM      5  C   ALA A   1      32.893  -7.382 -24.177  0.00  0.00    +0.033 C 
ATOM      6  CA  ALA A   1      33.347  -8.846 -24.154  0.00  0.00    +0.174 C 
ATOM      7  C   ALA A   1      31.039  -6.069 -22.961  0.00  0.00    +0.002 C 
ATOM      8  C   ALA A   1      32.385  -7.957 -21.107  0.00  0.00    +0.020 C 
ATOM      9  C   ALA A   1      31.741  -5.600 -21.690  0.00  0.00    +0.000 C 
ATOM     10  C   ALA A   1      31.719  -6.680 -20.613  0.00  0.00    +0.002 C 
ATOM     11  C   ALA A   1      32.524 -10.815 -22.746  0.00  0.00    +0.206 C 
ENDROOT
BRANCH   6  13
ATOM     12  OXT ALA A   1      35.570  -9.787 -24.237  0.00  0.00    -0.248 OA
ATOM     13  C   ALA A   1      34.813  -8.909 -23.852  0.00  0.00    +0.332 C 
BRANCH  13  14
ATOM     14  O   ALA A   1      35.189  -7.856 -23.086  0.00  0.00    -0.479 OA
ATOM     15  H   ALA A   1      35.504  -7.998 -22.216  0.00  0.00    +0.295 HD
ENDBRANCH  13  14
ENDBRANCH   6  13
BRANCH  11  16
ATOM     16  CA  ALA A   1      33.299 -11.748 -23.641  0.00  0.00    +0.018 C 
ATOM     17  CB  ALA A   1      32.955 -11.481 -25.092  0.00  0.00    -0.014 C 
BRANCH  16  18
ATOM     18  N   ALA A   1      32.932 -13.101 -23.258  0.00  0.00    +0.399 N 
ATOM     19  H1  ALA A   1      32.209 -13.441 -23.891  0.00  0.00    -0.083 HD
ATOM     20  H2  ALA A   1      32.589 -13.084 -22.297  0.00  0.00    -0.083 HD
BRANCH  18  21
ATOM     21  C   UNK A   0      34.081 -13.996 -23.323  0.00  0.00    +0.041 C 
BRANCH  21  23
ATOM     22  O   UNK A   0      33.378 -14.859 -25.495  0.00  0.00    -0.252 OA
ATOM     23  C   UNK A   0      33.794 -15.066 -24.363  0.00  0.00    +0.297 C 
BRANCH  23  24
ATOM     24  O   UNK A   0      34.084 -16.294 -23.837  0.00  0.00    -0.450 OA
BRANCH  24  25
ATOM     25  C   UNK A   0      34.709 -17.218 -24.734  0.00  0.00    +0.208 C 
ATOM     26  C   UNK A   0      35.138 -18.445 -23.959  0.00  0.00    +0.051 C 
ENDBRANCH  24  25
ENDBRANCH  23  24
ENDBRANCH  21  23
BRANCH  21  27
ATOM     27  C   UNK A   0      34.405 -14.598 -21.948  0.00  0.00    -0.010 C 
BRANCH  27  28
ATOM     28  C   UNK A   0      33.302 -14.415 -20.898  0.00  0.00    -0.002 C 
ATOM     29  C   UNK A   0      32.490 -15.690 -20.725  0.00  0.00    -0.000 C 
ENDBRANCH  27  28
ENDBRANCH  21  27
ENDBRANCH  18  21
ENDBRANCH  16  18
ENDBRANCH  11  16
TORSDOF 10
ENDMDL
MODEL 8
REMARK VINA RESULT:      -6.6     10.527     13.272
REMARK  Name = 107807
REMARK  10 active torsions:
REMARK  status: ('A' for Active; 'I' for Inactive)
REMARK    1  A    between atoms: CA_6  and  C_13
REMARK    2  A    between atoms: C_11  and  CA_16
REMARK    3  A    between atoms: C_13  and  O_14
REMARK    4  A    between atoms: CA_16  and  N_18
REMARK    5  A    between atoms: N_18  and  C_21
REMARK    6  A    between atoms: C_21  and  C_23
REMARK    7  A    between atoms: C_21  and  C_27
REMARK    8  A    between atoms: C_23  and  O_24
REMARK    9  A    between atoms: O_24  and  C_25
REMARK   10  A    between atoms: C_27  and  C_28
REMARK                            x       y       z     vdW  Elec       q    Type
REMARK                         _______ _______ _______ _____ _____    ______ ____
ROOT
ATOM      1  O   ALA A   1      35.476 -16.570 -24.460  0.00  0.00    -0.277 OA
ATOM      2  N   ALA A   1      34.360 -17.086 -22.499  0.00  0.00    -0.275 N 
ATOM      3  C   ALA A   1      33.923 -19.186 -21.543  0.00  0.00    +0.020 C 
ATOM      4  C   ALA A   1      34.978 -18.405 -22.334  0.00  0.00    +0.076 C 
ATOM      5  C   ALA A   1      33.343 -18.120 -20.608  0.00  0.00    +0.033 C 
ATOM      6  CA  ALA A   1      33.349 -16.849 -21.464  0.00  0.00    +0.174 C 
ATOM      7  C   ALA A   1      34.445 -20.437 -20.844  0.00  0.00    +0.002 C 
ATOM      8  C   ALA A   1      36.334 -18.286 -21.627  0.00  0.00    +0.020 C 
ATOM      9  C   ALA A   1      35.788 -20.241 -20.149  0.00  0.00    +0.000 C 
ATOM     10  C   ALA A   1      36.817 -19.627 -21.091  0.00  0.00    +0.002 C 
ATOM     11  C   ALA A   1      34.605 -16.312 -23.625  0.00  0.00    +0.206 C 
ENDROOT
BRANCH   6  13
ATOM     12  OXT ALA A   1      34.928 -15.322 -20.459  0.00  0.00    -0.248 OA
ATOM     13  C   ALA A   1      33.773 -15.684 -20.625  0.00  0.00    +0.332 C 
BRANCH  13  14
ATOM     14  O   ALA A   1      32.695 -15.079 -20.066  0.00  0.00    -0.479 OA
ATOM     15  H   ALA A   1      32.692 -14.152 -19.938  0.00  0.00    +0.295 HD
ENDBRANCH  13  14
ENDBRANCH   6  13
BRANCH  11  16
ATOM     16  CA  ALA A   1      33.745 -15.085 -23.792  0.00  0.00    +0.018 C 
ATOM     17  CB  ALA A   1      33.366 -14.913 -25.249  0.00  0.00    -0.014 C 
BRANCH  16  18
ATOM     18  N   ALA A   1      34.527 -13.956 -23.319  0.00  0.00    +0.399 N 
ATOM     19  H1  ALA A   1      35.397 -13.907 -23.849  0.00  0.00    -0.083 HD
ATOM     20  H2  ALA A   1      34.718 -14.087 -22.326  0.00  0.00    -0.083 HD
BRANCH  18  21
ATOM     21  C   UNK A   0      33.797 -12.704 -23.489  0.00  0.00    +0.041 C 
BRANCH  21  23
ATOM     22  O   UNK A   0      31.889 -13.826 -22.460  0.00  0.00    -0.252 OA
ATOM     23  C   UNK A   0      32.505 -12.795 -22.694  0.00  0.00    +0.297 C 
BRANCH  23  24
ATOM     24  O   UNK A   0      32.146 -11.545 -22.273  0.00  0.00    -0.450 OA
BRANCH  24  25
ATOM     25  C   UNK A   0      31.023 -11.489 -21.388  0.00  0.00    +0.208 C 
ATOM     26  C   UNK A   0      31.521 -11.359 -19.965  0.00  0.00    +0.051 C 
ENDBRANCH  24  25
ENDBRANCH  23  24
ENDBRANCH  21  23
BRANCH  21  27
ATOM     27  C   UNK A   0      33.543 -12.397 -24.972  0.00  0.00    -0.010 C 
BRANCH  27  28
ATOM     28  C   UNK A   0      34.352 -11.216 -25.524  0.00  0.00    -0.002 C 
ATOM     29  C   UNK A   0      34.628 -10.183 -24.441  0.00  0.00    -0.000 C 
ENDBRANCH  27  28
ENDBRANCH  21  27
ENDBRANCH  18  21
ENDBRANCH  16  18
ENDBRANCH  11  16
TORSDOF 10
ENDMDL
MODEL 9
REMARK VINA RESULT:      -6.6     13.921     15.897
REMARK  Name = 107807
REMARK  10 active torsions:
REMARK  status: ('A' for Active; 'I' for Inactive)
REMARK    1  A    between atoms: CA_6  and  C_13
REMARK    2  A    between atoms: C_11  and  CA_16
REMARK    3  A    between atoms: C_13  and  O_14
REMARK    4  A    between atoms: CA_16  and  N_18
REMARK    5  A    between atoms: N_18  and  C_21
REMARK    6  A    between atoms: C_21  and  C_23
REMARK    7  A    between atoms: C_21  and  C_27
REMARK    8  A    between atoms: C_23  and  O_24
REMARK    9  A    between atoms: O_24  and  C_25
REMARK   10  A    between atoms: C_27  and  C_28
REMARK                            x       y       z     vdW  Elec       q    Type
REMARK                         _______ _______ _______ _____ _____    ______ ____
ROOT
ATOM      1  O   ALA A   1      32.060 -11.601 -21.407  0.00  0.00    -0.277 OA
ATOM      2  N   ALA A   1      32.551  -9.880 -22.875  0.00  0.00    -0.275 N 
ATOM      3  C   ALA A   1      31.360  -7.903 -23.304  0.00  0.00    +0.020 C 
ATOM      4  C   ALA A   1      31.741  -8.875 -22.182  0.00  0.00    +0.076 C 
ATOM      5  C   ALA A   1      32.615  -7.888 -24.181  0.00  0.00    +0.033 C 
ATOM      6  CA  ALA A   1      33.122  -9.332 -24.110  0.00  0.00    +0.174 C 
ATOM      7  C   ALA A   1      30.891  -6.531 -22.830  0.00  0.00    +0.002 C 
ATOM      8  C   ALA A   1      32.533  -8.233 -21.037  0.00  0.00    +0.020 C 
ATOM      9  C   ALA A   1      31.734  -5.947 -21.702  0.00  0.00    +0.000 C 
ATOM     10  C   ALA A   1      31.891  -6.939 -20.555  0.00  0.00    +0.002 C 
ATOM     11  C   ALA A   1      32.561 -11.206 -22.463  0.00  0.00    +0.206 C 
ENDROOT
BRANCH   6  13
ATOM     12  OXT ALA A   1      35.268  -8.571 -23.305  0.00  0.00    -0.248 OA
ATOM     13  C   ALA A   1      34.615  -9.334 -24.001  0.00  0.00    +0.332 C 
BRANCH  13  14
ATOM     14  O   ALA A   1      35.150 -10.301 -24.786  0.00  0.00    -0.479 OA
ATOM     15  H   ALA A   1      35.229 -10.166 -25.709  0.00  0.00    +0.295 HD
ENDBRANCH  13  14
ENDBRANCH   6  13
BRANCH  11  16
ATOM     16  CA  ALA A   1      33.246 -12.186 -23.381  0.00  0.00    +0.018 C 
ATOM     17  CB  ALA A   1      32.666 -12.082 -24.777  0.00  0.00    -0.014 C 
BRANCH  16  18
ATOM     18  N   ALA A   1      33.027 -13.510 -22.823  0.00  0.00    +0.399 N 
ATOM     19  H1  ALA A   1      32.559 -14.091 -23.518  0.00  0.00    -0.083 HD
ATOM     20  H2  ALA A   1      32.452 -13.417 -21.985  0.00  0.00    -0.083 HD
BRANCH  18  21
ATOM     21  C   UNK A   0      34.289 -14.137 -22.450  0.00  0.00    +0.041 C 
BRANCH  21  23
ATOM     22  O   UNK A   0      35.574 -15.958 -23.445  0.00  0.00    -0.252 OA
ATOM     23  C   UNK A   0      34.547 -15.294 -23.401  0.00  0.00    +0.297 C 
BRANCH  23  24
ATOM     24  O   UNK A   0      33.447 -15.482 -24.190  0.00  0.00    -0.450 OA
BRANCH  24  25
ATOM     25  C   UNK A   0      33.710 -15.950 -25.516  0.00  0.00    +0.208 C 
ATOM     26  C   UNK A   0      32.971 -15.076 -26.505  0.00  0.00    +0.051 C 
ENDBRANCH  24  25
ENDBRANCH  23  24
ENDBRANCH  21  23
BRANCH  21  27
ATOM     27  C   UNK A   0      34.282 -14.587 -20.981  0.00  0.00    -0.010 C 
BRANCH  27  28
ATOM     28  C   UNK A   0      32.883 -14.756 -20.375  0.00  0.00    -0.002 C 
ATOM     29  C   UNK A   0      32.315 -16.135 -20.676  0.00  0.00    -0.000 C 
ENDBRANCH  27  28
ENDBRANCH  21  27
ENDBRANCH  18  21
ENDBRANCH  16  18
ENDBRANCH  11  16
TORSDOF 10
ENDMDL
