MODEL 1
REMARK VINA RESULT:      -9.5      0.000      0.000
REMARK  Name = 446309
REMARK  3 active torsions:
REMARK  status: ('A' for Active; 'I' for Inactive)
REMARK    1  A    between atoms: S_1  and  C_5
REMARK    2  A    between atoms: S_1  and  C_12
REMARK    3  A    between atoms: C_12  and  C_16
REMARK                            x       y       z     vdW  Elec       q    Type
REMARK                         _______ _______ _______ _____ _____    ______ ____
ROOT
ATOM      1  S   UNL     1      36.169 -18.440 -21.622  0.00  0.00    -0.013 S 
ENDROOT
BRANCH   1   5
ATOM      2 CL   UNL     1      37.161 -21.942 -17.843  0.00  0.00    -0.051 Cl
ATOM      3  N   UNL     1      34.321 -20.164 -20.761  0.00  0.00    -0.324 NA
ATOM      4  N   UNL     1      36.491 -20.285 -19.719  0.00  0.00    -0.327 NA
ATOM      5  C   UNL     1      35.597 -19.777 -20.586  0.00  0.00    +0.170 C 
ATOM      6  C   UNL     1      33.922 -21.175 -19.961  0.00  0.00    +0.175 C 
ATOM      7  C   UNL     1      34.738 -21.783 -19.030  0.00  0.00    +0.147 C 
ATOM      8  C   UNL     1      36.026 -21.292 -18.952  0.00  0.00    +0.187 C 
ATOM      9  N   UNL     1      32.592 -21.650 -20.073  0.00  0.00    -0.335 N 
ATOM     10  H   UNL     1      31.977 -21.243 -20.726  0.00  0.00    +0.144 HD
ATOM     11  H   UNL     1      32.283 -22.387 -19.498  0.00  0.00    +0.144 HD
ENDBRANCH   1   5
BRANCH   1  12
ATOM     12  C   UNL     1      34.687 -17.358 -21.636  0.00  0.00    +0.099 C 
ATOM     13  C   UNL     1      34.879 -16.261 -20.575  0.00  0.00    +0.019 C 
BRANCH  12  16
ATOM     14  O   UNL     1      33.587 -15.440 -26.686  0.00  0.00    -0.453 OA
ATOM     15  N   UNL     1      34.705 -17.671 -24.033  0.00  0.00    -0.270 NA
ATOM     16  C   UNL     1      34.391 -16.842 -23.007  0.00  0.00    +0.047 C 
ATOM     17  C   UNL     1      33.573 -15.154 -24.445  0.00  0.00    +0.019 C 
ATOM     18  C   UNL     1      33.826 -15.578 -23.134  0.00  0.00    +0.071 C 
ATOM     19  C   UNL     1      33.899 -16.010 -25.490  0.00  0.00    +0.144 C 
ATOM     20  C   UNL     1      34.461 -17.261 -25.301  0.00  0.00    +0.188 C 
ATOM     21  C   UNL     1      33.029 -13.993 -25.054  0.00  0.00    +0.039 C 
ATOM     22  C   UNL     1      33.060 -14.217 -26.413  0.00  0.00    +0.179 C 
ENDBRANCH  12  16
ENDBRANCH   1  12
TORSDOF 3
ENDMDL
MODEL 2
REMARK VINA RESULT:      -9.3      3.798      7.440
REMARK  Name = 446309
REMARK  3 active torsions:
REMARK  status: ('A' for Active; 'I' for Inactive)
REMARK    1  A    between atoms: S_1  and  C_5
REMARK    2  A    between atoms: S_1  and  C_12
REMARK    3  A    between atoms: C_12  and  C_16
REMARK                            x       y       z     vdW  Elec       q    Type
REMARK                         _______ _______ _______ _____ _____    ______ ____
ROOT
ATOM      1  S   UNL     1      35.578 -17.263 -22.046  0.00  0.00    -0.013 S 
ENDROOT
BRANCH   1   5
ATOM      2 CL   UNL     1      32.361 -13.396 -20.555  0.00  0.00    -0.051 Cl
ATOM      3  N   UNL     1      34.246 -15.764 -23.808  0.00  0.00    -0.324 NA
ATOM      4  N   UNL     1      33.905 -15.263 -21.476  0.00  0.00    -0.327 NA
ATOM      5  C   UNL     1      34.452 -15.952 -22.492  0.00  0.00    +0.170 C 
ATOM      6  C   UNL     1      33.391 -14.764 -24.110  0.00  0.00    +0.175 C 
ATOM      7  C   UNL     1      32.763 -13.982 -23.163  0.00  0.00    +0.147 C 
ATOM      8  C   UNL     1      33.060 -14.279 -21.848  0.00  0.00    +0.187 C 
ATOM      9  N   UNL     1      33.113 -14.492 -25.471  0.00  0.00    -0.335 N 
ATOM     10  H   UNL     1      33.540 -15.028 -26.178  0.00  0.00    +0.144 HD
ATOM     11  H   UNL     1      32.491 -13.767 -25.711  0.00  0.00    +0.144 HD
ENDBRANCH   1   5
BRANCH   1  12
ATOM     12  C   UNL     1      34.501 -18.733 -22.270  0.00  0.00    +0.099 C 
ATOM     13  C   UNL     1      34.710 -19.272 -23.695  0.00  0.00    +0.019 C 
BRANCH  12  16
ATOM     14  O   UNL     1      35.264 -22.469 -18.289  0.00  0.00    -0.453 OA
ATOM     15  N   UNL     1      36.004 -20.000 -20.862  0.00  0.00    -0.270 NA
ATOM     16  C   UNL     1      34.713 -19.744 -21.192  0.00  0.00    +0.047 C 
ATOM     17  C   UNL     1      33.866 -21.281 -19.608  0.00  0.00    +0.019 C 
ATOM     18  C   UNL     1      33.599 -20.342 -20.612  0.00  0.00    +0.071 C 
ATOM     19  C   UNL     1      35.192 -21.536 -19.277  0.00  0.00    +0.144 C 
ATOM     20  C   UNL     1      36.263 -20.909 -19.891  0.00  0.00    +0.188 C 
ATOM     21  C   UNL     1      33.092 -22.117 -18.761  0.00  0.00    +0.039 C 
ATOM     22  C   UNL     1      33.987 -22.816 -17.982  0.00  0.00    +0.179 C 
ENDBRANCH  12  16
ENDBRANCH   1  12
TORSDOF 3
ENDMDL
MODEL 3
REMARK VINA RESULT:      -9.2      4.073      7.562
REMARK  Name = 446309
REMARK  3 active torsions:
REMARK  status: ('A' for Active; 'I' for Inactive)
REMARK    1  A    between atoms: S_1  and  C_5
REMARK    2  A    between atoms: S_1  and  C_12
REMARK    3  A    between atoms: C_12  and  C_16
REMARK                            x       y       z     vdW  Elec       q    Type
REMARK                         _______ _______ _______ _____ _____    ______ ____
ROOT
ATOM      1  S   UNL     1      35.242 -16.967 -21.805  0.00  0.00    -0.013 S 
ENDROOT
BRANCH   1   5
ATOM      2 CL   UNL     1      33.396 -15.001 -26.306  0.00  0.00    -0.051 Cl
ATOM      3  N   UNL     1      33.494 -14.950 -21.864  0.00  0.00    -0.324 NA
ATOM      4  N   UNL     1      34.198 -15.841 -23.989  0.00  0.00    -0.327 NA
ATOM      5  C   UNL     1      34.196 -15.790 -22.645  0.00  0.00    +0.170 C 
ATOM      6  C   UNL     1      32.713 -14.075 -22.532  0.00  0.00    +0.175 C 
ATOM      7  C   UNL     1      32.624 -14.022 -23.907  0.00  0.00    +0.147 C 
ATOM      8  C   UNL     1      33.397 -14.938 -24.592  0.00  0.00    +0.187 C 
ATOM      9  N   UNL     1      31.936 -13.151 -21.791  0.00  0.00    -0.335 N 
ATOM     10  H   UNL     1      31.971 -13.154 -20.807  0.00  0.00    +0.144 HD
ATOM     11  H   UNL     1      31.361 -12.504 -22.261  0.00  0.00    +0.144 HD
ENDBRANCH   1   5
BRANCH   1  12
ATOM     12  C   UNL     1      34.415 -18.544 -22.255  0.00  0.00    +0.099 C 
ATOM     13  C   UNL     1      34.866 -18.939 -23.671  0.00  0.00    +0.019 C 
BRANCH  12  16
ATOM     14  O   UNL     1      35.209 -22.441 -18.438  0.00  0.00    -0.453 OA
ATOM     15  N   UNL     1      35.930 -19.887 -20.933  0.00  0.00    -0.270 NA
ATOM     16  C   UNL     1      34.636 -19.599 -21.221  0.00  0.00    +0.047 C 
ATOM     17  C   UNL     1      33.801 -21.182 -19.677  0.00  0.00    +0.019 C 
ATOM     18  C   UNL     1      33.526 -20.201 -20.638  0.00  0.00    +0.071 C 
ATOM     19  C   UNL     1      35.129 -21.470 -19.388  0.00  0.00    +0.144 C 
ATOM     20  C   UNL     1      36.196 -20.837 -20.004  0.00  0.00    +0.188 C 
ATOM     21  C   UNL     1      33.033 -22.037 -18.844  0.00  0.00    +0.039 C 
ATOM     22  C   UNL     1      33.934 -22.779 -18.113  0.00  0.00    +0.179 C 
ENDBRANCH  12  16
ENDBRANCH   1  12
TORSDOF 3
ENDMDL
MODEL 4
REMARK VINA RESULT:      -9.1      4.785      7.118
REMARK  Name = 446309
REMARK  3 active torsions:
REMARK  status: ('A' for Active; 'I' for Inactive)
REMARK    1  A    between atoms: S_1  and  C_5
REMARK    2  A    between atoms: S_1  and  C_12
REMARK    3  A    between atoms: C_12  and  C_16
REMARK                            x       y       z     vdW  Elec       q    Type
REMARK                         _______ _______ _______ _____ _____    ______ ____
ROOT
ATOM      1  S   UNL     1      36.353 -22.393 -15.852  0.00  0.00    -0.013 S 
ENDROOT
BRANCH   1   5
ATOM      2 CL   UNL     1      40.620 -25.045 -14.341  0.00  0.00    -0.051 Cl
ATOM      3  N   UNL     1      36.294 -25.016 -15.356  0.00  0.00    -0.324 NA
ATOM      4  N   UNL     1      38.414 -23.903 -15.079  0.00  0.00    -0.327 NA
ATOM      5  C   UNL     1      37.103 -23.941 -15.376  0.00  0.00    +0.170 C 
ATOM      6  C   UNL     1      36.894 -26.168 -14.990  0.00  0.00    +0.175 C 
ATOM      7  C   UNL     1      38.230 -26.265 -14.660  0.00  0.00    +0.147 C 
ATOM      8  C   UNL     1      38.949 -25.089 -14.723  0.00  0.00    +0.187 C 
ATOM      9  N   UNL     1      36.120 -27.353 -14.938  0.00  0.00    -0.335 N 
ATOM     10  H   UNL     1      35.163 -27.327 -15.167  0.00  0.00    +0.144 HD
ATOM     11  H   UNL     1      36.540 -28.204 -14.675  0.00  0.00    +0.144 HD
ENDBRANCH   1   5
BRANCH   1  12
ATOM     12  C   UNL     1      35.178 -22.962 -17.143  0.00  0.00    +0.099 C 
ATOM     13  C   UNL     1      33.799 -23.153 -16.492  0.00  0.00    +0.019 C 
BRANCH  12  16
ATOM     14  O   UNL     1      35.160 -19.617 -21.525  0.00  0.00    -0.453 OA
ATOM     15  N   UNL     1      36.398 -21.676 -18.788  0.00  0.00    -0.270 NA
ATOM     16  C   UNL     1      35.179 -22.056 -18.331  0.00  0.00    +0.047 C 
ATOM     17  C   UNL     1      34.027 -20.820 -19.984  0.00  0.00    +0.019 C 
ATOM     18  C   UNL     1      33.958 -21.670 -18.874  0.00  0.00    +0.071 C 
ATOM     19  C   UNL     1      35.281 -20.437 -20.446  0.00  0.00    +0.144 C 
ATOM     20  C   UNL     1      36.465 -20.854 -19.862  0.00  0.00    +0.188 C 
ATOM     21  C   UNL     1      33.092 -20.187 -20.844  0.00  0.00    +0.039 C 
ATOM     22  C   UNL     1      33.830 -19.470 -21.759  0.00  0.00    +0.179 C 
ENDBRANCH  12  16
ENDBRANCH   1  12
TORSDOF 3
ENDMDL
MODEL 5
REMARK VINA RESULT:      -8.9      5.977      9.930
REMARK  Name = 446309
REMARK  3 active torsions:
REMARK  status: ('A' for Active; 'I' for Inactive)
REMARK    1  A    between atoms: S_1  and  C_5
REMARK    2  A    between atoms: S_1  and  C_12
REMARK    3  A    between atoms: C_12  and  C_16
REMARK                            x       y       z     vdW  Elec       q    Type
REMARK                         _______ _______ _______ _____ _____    ______ ____
ROOT
ATOM      1  S   UNL     1      33.226 -23.718 -17.486  0.00  0.00    -0.013 S 
ENDROOT
BRANCH   1   5
ATOM      2 CL   UNL     1      37.129 -21.260 -19.986  0.00  0.00    -0.051 Cl
ATOM      3  N   UNL     1      32.787 -21.665 -19.135  0.00  0.00    -0.324 NA
ATOM      4  N   UNL     1      35.078 -22.351 -18.837  0.00  0.00    -0.327 NA
ATOM      5  C   UNL     1      33.755 -22.437 -18.610  0.00  0.00    +0.170 C 
ATOM      6  C   UNL     1      33.222 -20.709 -19.982  0.00  0.00    +0.175 C 
ATOM      7  C   UNL     1      34.550 -20.514 -20.300  0.00  0.00    +0.147 C 
ATOM      8  C   UNL     1      35.443 -21.373 -19.692  0.00  0.00    +0.187 C 
ATOM      9  N   UNL     1      32.273 -19.848 -20.585  0.00  0.00    -0.335 N 
ATOM     10  H   UNL     1      31.315 -19.953 -20.383  0.00  0.00    +0.144 HD
ATOM     11  H   UNL     1      32.571 -19.144 -21.204  0.00  0.00    +0.144 HD
ENDBRANCH   1   5
BRANCH   1  12
ATOM     12  C   UNL     1      33.790 -23.023 -15.883  0.00  0.00    +0.099 C 
ATOM     13  C   UNL     1      32.756 -23.392 -14.806  0.00  0.00    +0.019 C 
BRANCH  12  16
ATOM     14  O   UNL     1      38.946 -24.570 -14.693  0.00  0.00    -0.453 OA
ATOM     15  N   UNL     1      36.131 -22.466 -15.652  0.00  0.00    -0.270 NA
ATOM     16  C   UNL     1      35.189 -23.437 -15.561  0.00  0.00    +0.047 C 
ATOM     17  C   UNL     1      36.756 -25.083 -14.911  0.00  0.00    +0.019 C 
ATOM     18  C   UNL     1      35.425 -24.759 -15.199  0.00  0.00    +0.071 C 
ATOM     19  C   UNL     1      37.715 -24.081 -15.006  0.00  0.00    +0.144 C 
ATOM     20  C   UNL     1      37.420 -22.779 -15.373  0.00  0.00    +0.188 C 
ATOM     21  C   UNL     1      37.459 -26.250 -14.513  0.00  0.00    +0.039 C 
ATOM     22  C   UNL     1      38.782 -25.885 -14.395  0.00  0.00    +0.179 C 
ENDBRANCH  12  16
ENDBRANCH   1  12
TORSDOF 3
ENDMDL
MODEL 6
REMARK VINA RESULT:      -8.8      3.686      4.644
REMARK  Name = 446309
REMARK  3 active torsions:
REMARK  status: ('A' for Active; 'I' for Inactive)
REMARK    1  A    between atoms: S_1  and  C_5
REMARK    2  A    between atoms: S_1  and  C_12
REMARK    3  A    between atoms: C_12  and  C_16
REMARK                            x       y       z     vdW  Elec       q    Type
REMARK                         _______ _______ _______ _____ _____    ______ ____
ROOT
ATOM      1  S   UNL     1      34.707 -15.314 -21.009  0.00  0.00    -0.013 S 
ENDROOT
BRANCH   1   5
ATOM      2 CL   UNL     1      34.364 -18.881 -24.841  0.00  0.00    -0.051 Cl
ATOM      3  N   UNL     1      35.435 -17.858 -20.652  0.00  0.00    -0.324 NA
ATOM      4  N   UNL     1      34.603 -17.260 -22.833  0.00  0.00    -0.327 NA
ATOM      5  C   UNL     1      34.941 -16.996 -21.559  0.00  0.00    +0.170 C 
ATOM      6  C   UNL     1      35.600 -19.120 -21.102  0.00  0.00    +0.175 C 
ATOM      7  C   UNL     1      35.294 -19.522 -22.385  0.00  0.00    +0.147 C 
ATOM      8  C   UNL     1      34.793 -18.540 -23.216  0.00  0.00    +0.187 C 
ATOM      9  N   UNL     1      36.117 -20.098 -20.217  0.00  0.00    -0.335 N 
ATOM     10  H   UNL     1      36.348 -19.852 -19.292  0.00  0.00    +0.144 HD
ATOM     11  H   UNL     1      36.244 -21.023 -20.527  0.00  0.00    +0.144 HD
ENDBRANCH   1   5
BRANCH   1  12
ATOM     12  C   UNL     1      33.024 -14.971 -21.657  0.00  0.00    +0.099 C 
ATOM     13  C   UNL     1      32.008 -15.260 -20.540  0.00  0.00    +0.019 C 
BRANCH  12  16
ATOM     14  O   UNL     1      32.643  -9.904 -23.795  0.00  0.00    -0.453 OA
ATOM     15  N   UNL     1      33.745 -13.339 -23.289  0.00  0.00    -0.270 NA
ATOM     16  C   UNL     1      32.925 -13.599 -22.240  0.00  0.00    +0.047 C 
ATOM     17  C   UNL     1      31.975 -11.435 -22.273  0.00  0.00    +0.019 C 
ATOM     18  C   UNL     1      32.020 -12.703 -21.681  0.00  0.00    +0.071 C 
ATOM     19  C   UNL     1      32.819 -11.177 -23.347  0.00  0.00    +0.144 C 
ATOM     20  C   UNL     1      33.702 -12.112 -23.861  0.00  0.00    +0.188 C 
ATOM     21  C   UNL     1      31.244 -10.236 -22.063  0.00  0.00    +0.039 C 
ATOM     22  C   UNL     1      31.687  -9.341 -23.011  0.00  0.00    +0.179 C 
ENDBRANCH  12  16
ENDBRANCH   1  12
TORSDOF 3
ENDMDL
MODEL 7
REMARK VINA RESULT:      -8.7      6.146     10.099
REMARK  Name = 446309
REMARK  3 active torsions:
REMARK  status: ('A' for Active; 'I' for Inactive)
REMARK    1  A    between atoms: S_1  and  C_5
REMARK    2  A    between atoms: S_1  and  C_12
REMARK    3  A    between atoms: C_12  and  C_16
REMARK                            x       y       z     vdW  Elec       q    Type
REMARK                         _______ _______ _______ _____ _____    ______ ____
ROOT
ATOM      1  S   UNL     1      33.278 -23.720 -17.573  0.00  0.00    -0.013 S 
ENDROOT
BRANCH   1   5
ATOM      2 CL   UNL     1      32.224 -19.584 -20.625  0.00  0.00    -0.051 Cl
ATOM      3  N   UNL     1      35.192 -22.390 -18.875  0.00  0.00    -0.324 NA
ATOM      4  N   UNL     1      32.932 -21.604 -19.163  0.00  0.00    -0.327 NA
ATOM      5  C   UNL     1      33.866 -22.429 -18.657  0.00  0.00    +0.170 C 
ATOM      6  C   UNL     1      35.602 -21.401 -19.697  0.00  0.00    +0.175 C 
ATOM      7  C   UNL     1      34.749 -20.489 -20.282  0.00  0.00    +0.147 C 
ATOM      8  C   UNL     1      33.411 -20.640 -19.977  0.00  0.00    +0.187 C 
ATOM      9  N   UNL     1      36.983 -21.281 -19.985  0.00  0.00    -0.335 N 
ATOM     10  H   UNL     1      37.626 -21.913 -19.588  0.00  0.00    +0.144 HD
ATOM     11  H   UNL     1      37.301 -20.567 -20.583  0.00  0.00    +0.144 HD
ENDBRANCH   1   5
BRANCH   1  12
ATOM     12  C   UNL     1      33.787 -23.056 -15.939  0.00  0.00    +0.099 C 
ATOM     13  C   UNL     1      32.737 -23.475 -14.898  0.00  0.00    +0.019 C 
BRANCH  12  16
ATOM     14  O   UNL     1      38.945 -24.525 -14.662  0.00  0.00    -0.453 OA
ATOM     15  N   UNL     1      36.135 -22.499 -15.787  0.00  0.00    -0.270 NA
ATOM     16  C   UNL     1      35.187 -23.449 -15.594  0.00  0.00    +0.047 C 
ATOM     17  C   UNL     1      36.750 -25.039 -14.807  0.00  0.00    +0.019 C 
ATOM     18  C   UNL     1      35.417 -24.733 -15.111  0.00  0.00    +0.071 C 
ATOM     19  C   UNL     1      37.714 -24.058 -15.007  0.00  0.00    +0.144 C 
ATOM     20  C   UNL     1      37.425 -22.795 -15.493  0.00  0.00    +0.188 C 
ATOM     21  C   UNL     1      37.448 -26.169 -14.308  0.00  0.00    +0.039 C 
ATOM     22  C   UNL     1      38.775 -25.805 -14.239  0.00  0.00    +0.179 C 
ENDBRANCH  12  16
ENDBRANCH   1  12
TORSDOF 3
ENDMDL
MODEL 8
REMARK VINA RESULT:      -8.7      5.147      7.958
REMARK  Name = 446309
REMARK  3 active torsions:
REMARK  status: ('A' for Active; 'I' for Inactive)
REMARK    1  A    between atoms: S_1  and  C_5
REMARK    2  A    between atoms: S_1  and  C_12
REMARK    3  A    between atoms: C_12  and  C_16
REMARK                            x       y       z     vdW  Elec       q    Type
REMARK                         _______ _______ _______ _____ _____    ______ ____
ROOT
ATOM      1  S   UNL     1      32.384 -13.489 -22.333  0.00  0.00    -0.013 S 
ENDROOT
BRANCH   1   5
ATOM      2 CL   UNL     1      35.269 -10.422 -25.463  0.00  0.00    -0.051 Cl
ATOM      3  N   UNL     1      32.106 -10.834 -22.369  0.00  0.00    -0.324 NA
ATOM      4  N   UNL     1      33.757 -11.775 -23.851  0.00  0.00    -0.327 NA
ATOM      5  C   UNL     1      32.794 -11.852 -22.915  0.00  0.00    +0.170 C 
ATOM      6  C   UNL     1      32.441  -9.611 -22.833  0.00  0.00    +0.175 C 
ATOM      7  C   UNL     1      33.410  -9.394 -23.790  0.00  0.00    +0.147 C 
ATOM      8  C   UNL     1      34.042 -10.524 -24.268  0.00  0.00    +0.187 C 
ATOM      9  N   UNL     1      31.768  -8.477 -22.316  0.00  0.00    -0.335 N 
ATOM     10  H   UNL     1      31.071  -8.589 -21.630  0.00  0.00    +0.144 HD
ATOM     11  H   UNL     1      31.999  -7.577 -22.641  0.00  0.00    +0.144 HD
ENDBRANCH   1   5
BRANCH   1  12
ATOM     12  C   UNL     1      34.051 -14.252 -22.248  0.00  0.00    +0.099 C 
ATOM     13  C   UNL     1      34.363 -14.570 -20.776  0.00  0.00    +0.019 C 
BRANCH  12  16
ATOM     14  O   UNL     1      34.503 -18.580 -25.633  0.00  0.00    -0.453 OA
ATOM     15  N   UNL     1      33.866 -15.187 -24.470  0.00  0.00    -0.270 NA
ATOM     16  C   UNL     1      34.172 -15.422 -23.169  0.00  0.00    +0.047 C 
ATOM     17  C   UNL     1      34.673 -17.699 -23.559  0.00  0.00    +0.019 C 
ATOM     18  C   UNL     1      34.580 -16.643 -22.644  0.00  0.00    +0.071 C 
ATOM     19  C   UNL     1      34.358 -17.449 -24.890  0.00  0.00    +0.144 C 
ATOM     20  C   UNL     1      33.956 -16.209 -25.356  0.00  0.00    +0.188 C 
ATOM     21  C   UNL     1      35.032 -19.071 -23.501  0.00  0.00    +0.039 C 
ATOM     22  C   UNL     1      34.912 -19.558 -24.783  0.00  0.00    +0.179 C 
ENDBRANCH  12  16
ENDBRANCH   1  12
TORSDOF 3
ENDMDL
MODEL 9
REMARK VINA RESULT:      -8.7      4.047      8.061
REMARK  Name = 446309
REMARK  3 active torsions:
REMARK  status: ('A' for Active; 'I' for Inactive)
REMARK    1  A    between atoms: S_1  and  C_5
REMARK    2  A    between atoms: S_1  and  C_12
REMARK    3  A    between atoms: C_12  and  C_16
REMARK                            x       y       z     vdW  Elec       q    Type
REMARK                         _______ _______ _______ _____ _____    ______ ____
ROOT
ATOM      1  S   UNL     1      33.738 -19.728 -20.986  0.00  0.00    -0.013 S 
ENDROOT
BRANCH   1   5
ATOM      2 CL   UNL     1      34.637 -14.568 -20.691  0.00  0.00    -0.051 Cl
ATOM      3  N   UNL     1      34.491 -18.294 -23.108  0.00  0.00    -0.324 NA
ATOM      4  N   UNL     1      34.237 -17.106 -21.026  0.00  0.00    -0.327 NA
ATOM      5  C   UNL     1      34.207 -18.209 -21.796  0.00  0.00    +0.170 C 
ATOM      6  C   UNL     1      34.843 -17.127 -23.687  0.00  0.00    +0.175 C 
ATOM      7  C   UNL     1      34.913 -15.927 -23.012  0.00  0.00    +0.147 C 
ATOM      8  C   UNL     1      34.596 -15.976 -21.670  0.00  0.00    +0.187 C 
ATOM      9  N   UNL     1      35.161 -17.119 -25.068  0.00  0.00    -0.335 N 
ATOM     10  H   UNL     1      35.122 -17.955 -25.587  0.00  0.00    +0.144 HD
ATOM     11  H   UNL     1      35.419 -16.278 -25.508  0.00  0.00    +0.144 HD
ENDBRANCH   1   5
BRANCH   1  12
ATOM     12  C   UNL     1      35.386 -20.475 -20.675  0.00  0.00    +0.099 C 
ATOM     13  C   UNL     1      36.441 -19.358 -20.726  0.00  0.00    +0.019 C 
BRANCH  12  16
ATOM     14  O   UNL     1      35.459 -23.434 -16.024  0.00  0.00    -0.453 OA
ATOM     15  N   UNL     1      34.262 -21.959 -19.131  0.00  0.00    -0.270 NA
ATOM     16  C   UNL     1      35.400 -21.279 -19.415  0.00  0.00    +0.047 C 
ATOM     17  C   UNL     1      36.503 -22.048 -17.471  0.00  0.00    +0.019 C 
ATOM     18  C   UNL     1      36.553 -21.275 -18.638  0.00  0.00    +0.071 C 
ATOM     19  C   UNL     1      35.332 -22.741 -17.188  0.00  0.00    +0.144 C 
ATOM     20  C   UNL     1      34.212 -22.706 -18.002  0.00  0.00    +0.188 C 
ATOM     21  C   UNL     1      37.392 -22.346 -16.405  0.00  0.00    +0.039 C 
ATOM     22  C   UNL     1      36.711 -23.189 -15.556  0.00  0.00    +0.179 C 
ENDBRANCH  12  16
ENDBRANCH   1  12
TORSDOF 3
ENDMDL
