MODEL 1
REMARK VINA RESULT:     -10.1      0.000      0.000
REMARK  Name = 16229
REMARK  9 active torsions:
REMARK  status: ('A' for Active; 'I' for Inactive)
REMARK    1  A    between atoms: N_3  and  C_14
REMARK    2  A    between atoms: C_8  and  C_24
REMARK    3  A    between atoms: C_14  and  C_15
REMARK    4  A    between atoms: C_15  and  N_16
REMARK    5  A    between atoms: N_16  and  C_18
REMARK    6  A    between atoms: N_16  and  C_20
REMARK    7  A    between atoms: C_20  and  C_21
REMARK    8  A    between atoms: C_21  and  O_22
REMARK    9  A    between atoms: C_24  and  C_25
REMARK                            x       y       z     vdW  Elec       q    Type
REMARK                         _______ _______ _______ _____ _____    ______ ____
ROOT
ATOM      1  O   UNL     1      33.084 -24.440 -13.670  0.00  0.00    -0.272 OA
ATOM      2  O   UNL     1      37.622 -23.343 -13.203  0.00  0.00    -0.252 OA
ATOM      3  N   UNL     1      33.359 -23.449 -16.480  0.00  0.00    -0.276 N 
ATOM      4  N   UNL     1      36.605 -22.952 -15.259  0.00  0.00    -0.218 N 
ATOM      5  N   UNL     1      35.272 -22.651 -17.305  0.00  0.00    -0.378 NA
ATOM      6  N   UNL     1      35.356 -23.898 -13.412  0.00  0.00    -0.210 N 
ATOM      7  C   UNL     1      34.274 -23.526 -15.469  0.00  0.00    +0.220 C 
ATOM      8  C   UNL     1      34.007 -22.916 -17.564  0.00  0.00    +0.166 C 
ATOM      9  C   UNL     1      35.435 -23.033 -16.000  0.00  0.00    +0.195 C 
ATOM     10  C   UNL     1      34.135 -24.002 -14.130  0.00  0.00    +0.259 C 
ATOM     11  C   UNL     1      36.610 -23.390 -13.910  0.00  0.00    +0.318 C 
ATOM     12  C   UNL     1      37.816 -22.418 -15.870  0.00  0.00    +0.124 C 
ATOM     13  C   UNL     1      35.340 -24.353 -12.026  0.00  0.00    +0.124 C 
ENDROOT
BRANCH   3  14
ATOM     14  C   UNL     1      31.973 -23.849 -16.425  0.00  0.00    +0.071 C 
BRANCH  14  15
ATOM     15  C   UNL     1      31.069 -22.710 -15.962  0.00  0.00    -0.055 C 
BRANCH  15  16
ATOM     16  N   UNL     1      29.734 -23.217 -15.670  0.00  0.00    +0.390 N 
ATOM     17  H   UNL     1      29.508 -22.983 -14.703  0.00  0.00    -0.080 HD
BRANCH  16  18
ATOM     18  C   UNL     1      28.741 -22.589 -16.545  0.00  0.00    -0.077 C 
ATOM     19  C   UNL     1      27.441 -22.330 -15.803  0.00  0.00    -0.025 C 
ENDBRANCH  16  18
BRANCH  16  20
ATOM     20  C   UNL     1      29.692 -24.673 -15.818  0.00  0.00    -0.045 C 
BRANCH  20  21
ATOM     21  C   UNL     1      29.195 -25.329 -14.540  0.00  0.00    +0.115 C 
BRANCH  21  22
ATOM     22  O   UNL     1      30.114 -25.045 -13.493  0.00  0.00    -0.384 OA
ATOM     23  H   UNL     1      29.854 -24.225 -13.048  0.00  0.00    +0.210 HD
ENDBRANCH  21  22
ENDBRANCH  20  21
ENDBRANCH  16  20
ENDBRANCH  15  16
ENDBRANCH  14  15
ENDBRANCH   3  14
BRANCH   8  24
ATOM     24  C   UNL     1      33.321 -22.682 -18.852  0.00  0.00    +0.101 C 
BRANCH  24  25
ATOM     25  C   UNL     1      33.847 -21.479 -19.622  0.00  0.00    -0.014 C 
ATOM     26  C   UNL     1      32.950 -20.534 -20.076  0.00  0.00    -0.004 C 
ATOM     27  C   UNL     1      35.206 -21.370 -19.842  0.00  0.00    -0.004 C 
ATOM     28  C   UNL     1      33.433 -19.432 -20.782  0.00  0.00    -0.000 C 
ATOM     29  C   UNL     1      35.687 -20.267 -20.547  0.00  0.00    -0.000 C 
ATOM     30  C   UNL     1      34.801 -19.298 -21.016  0.00  0.00    -0.000 C 
ENDBRANCH  24  25
ENDBRANCH   8  24
TORSDOF 9
ENDMDL
MODEL 2
REMARK VINA RESULT:      -9.2      1.548      5.247
REMARK  Name = 16229
REMARK  9 active torsions:
REMARK  status: ('A' for Active; 'I' for Inactive)
REMARK    1  A    between atoms: N_3  and  C_14
REMARK    2  A    between atoms: C_8  and  C_24
REMARK    3  A    between atoms: C_14  and  C_15
REMARK    4  A    between atoms: C_15  and  N_16
REMARK    5  A    between atoms: N_16  and  C_18
REMARK    6  A    between atoms: N_16  and  C_20
REMARK    7  A    between atoms: C_20  and  C_21
REMARK    8  A    between atoms: C_21  and  O_22
REMARK    9  A    between atoms: C_24  and  C_25
REMARK                            x       y       z     vdW  Elec       q    Type
REMARK                         _______ _______ _______ _____ _____    ______ ____
ROOT
ATOM      1  O   UNL     1      33.037 -24.169 -13.259  0.00  0.00    -0.272 OA
ATOM      2  O   UNL     1      28.595 -23.687 -14.690  0.00  0.00    -0.252 OA
ATOM      3  N   UNL     1      33.790 -23.377 -16.044  0.00  0.00    -0.276 N 
ATOM      4  N   UNL     1      30.293 -23.272 -16.225  0.00  0.00    -0.218 N 
ATOM      5  N   UNL     1      32.286 -22.901 -17.620  0.00  0.00    -0.378 NA
ATOM      6  N   UNL     1      30.804 -23.935 -13.953  0.00  0.00    -0.210 N 
ATOM      7  C   UNL     1      32.564 -23.527 -15.461  0.00  0.00    +0.220 C 
ATOM      8  C   UNL     1      33.570 -23.000 -17.344  0.00  0.00    +0.166 C 
ATOM      9  C   UNL     1      31.662 -23.229 -16.447  0.00  0.00    +0.195 C 
ATOM     10  C   UNL     1      32.213 -23.905 -14.130  0.00  0.00    +0.259 C 
ATOM     11  C   UNL     1      29.803 -23.633 -14.945  0.00  0.00    +0.318 C 
ATOM     12  C   UNL     1      29.372 -22.946 -17.307  0.00  0.00    +0.124 C 
ATOM     13  C   UNL     1      30.319 -24.310 -12.628  0.00  0.00    +0.124 C 
ENDROOT
BRANCH   3  14
ATOM     14  C   UNL     1      35.076 -23.577 -15.420  0.00  0.00    +0.071 C 
BRANCH  14  15
ATOM     15  C   UNL     1      35.433 -25.058 -15.311  0.00  0.00    -0.055 C 
BRANCH  15  16
ATOM     16  N   UNL     1      35.987 -25.344 -13.993  0.00  0.00    +0.390 N 
ATOM     17  H   UNL     1      35.249 -25.753 -13.420  0.00  0.00    -0.080 HD
BRANCH  16  18
ATOM     18  C   UNL     1      37.087 -26.305 -14.094  0.00  0.00    -0.077 C 
ATOM     19  C   UNL     1      38.389 -25.613 -14.457  0.00  0.00    -0.025 C 
ENDBRANCH  16  18
BRANCH  16  20
ATOM     20  C   UNL     1      36.447 -24.112 -13.349  0.00  0.00    -0.045 C 
BRANCH  20  21
ATOM     21  C   UNL     1      36.179 -24.156 -11.853  0.00  0.00    +0.115 C 
BRANCH  21  22
ATOM     22  O   UNL     1      35.072 -25.014 -11.611  0.00  0.00    -0.384 OA
ATOM     23  H   UNL     1      35.237 -25.878 -12.018  0.00  0.00    +0.210 HD
ENDBRANCH  21  22
ENDBRANCH  20  21
ENDBRANCH  16  20
ENDBRANCH  15  16
ENDBRANCH  14  15
ENDBRANCH   3  14
BRANCH   8  24
ATOM     24  C   UNL     1      34.680 -22.748 -18.287  0.00  0.00    +0.101 C 
BRANCH  24  25
ATOM     25  C   UNL     1      34.419 -21.602 -19.256  0.00  0.00    -0.014 C 
ATOM     26  C   UNL     1      33.115 -21.236 -19.519  0.00  0.00    -0.004 C 
ATOM     27  C   UNL     1      35.495 -20.964 -19.839  0.00  0.00    -0.004 C 
ATOM     28  C   UNL     1      32.876 -20.187 -20.406  0.00  0.00    -0.000 C 
ATOM     29  C   UNL     1      35.255 -19.915 -20.726  0.00  0.00    -0.000 C 
ATOM     30  C   UNL     1      33.946 -19.526 -21.009  0.00  0.00    -0.000 C 
ENDBRANCH  24  25
ENDBRANCH   8  24
TORSDOF 9
ENDMDL
MODEL 3
REMARK VINA RESULT:      -8.6      2.345      5.757
REMARK  Name = 16229
REMARK  9 active torsions:
REMARK  status: ('A' for Active; 'I' for Inactive)
REMARK    1  A    between atoms: N_3  and  C_14
REMARK    2  A    between atoms: C_8  and  C_24
REMARK    3  A    between atoms: C_14  and  C_15
REMARK    4  A    between atoms: C_15  and  N_16
REMARK    5  A    between atoms: N_16  and  C_18
REMARK    6  A    between atoms: N_16  and  C_20
REMARK    7  A    between atoms: C_20  and  C_21
REMARK    8  A    between atoms: C_21  and  O_22
REMARK    9  A    between atoms: C_24  and  C_25
REMARK                            x       y       z     vdW  Elec       q    Type
REMARK                         _______ _______ _______ _____ _____    ______ ____
ROOT
ATOM      1  O   UNL     1      36.234 -25.516 -16.105  0.00  0.00    -0.272 OA
ATOM      2  O   UNL     1      37.603 -26.062 -11.651  0.00  0.00    -0.252 OA
ATOM      3  N   UNL     1      33.974 -23.908 -14.984  0.00  0.00    -0.276 N 
ATOM      4  N   UNL     1      35.685 -24.811 -12.064  0.00  0.00    -0.218 N 
ATOM      5  N   UNL     1      33.706 -23.547 -12.800  0.00  0.00    -0.378 NA
ATOM      6  N   UNL     1      36.938 -25.804 -13.882  0.00  0.00    -0.210 N 
ATOM      7  C   UNL     1      35.006 -24.548 -14.361  0.00  0.00    +0.220 C 
ATOM      8  C   UNL     1      33.219 -23.320 -14.003  0.00  0.00    +0.166 C 
ATOM      9  C   UNL     1      34.819 -24.311 -13.026  0.00  0.00    +0.195 C 
ATOM     10  C   UNL     1      36.082 -25.313 -14.904  0.00  0.00    +0.259 C 
ATOM     11  C   UNL     1      36.799 -25.592 -12.463  0.00  0.00    +0.318 C 
ATOM     12  C   UNL     1      35.442 -24.532 -10.654  0.00  0.00    +0.124 C 
ATOM     13  C   UNL     1      38.079 -26.605 -14.314  0.00  0.00    +0.124 C 
ENDROOT
BRANCH   3  14
ATOM     14  C   UNL     1      33.719 -23.855 -16.404  0.00  0.00    +0.071 C 
BRANCH  14  15
ATOM     15  C   UNL     1      34.545 -22.771 -17.092  0.00  0.00    -0.055 C 
BRANCH  15  16
ATOM     16  N   UNL     1      34.205 -22.704 -18.508  0.00  0.00    +0.390 N 
ATOM     17  H   UNL     1      34.050 -23.654 -18.844  0.00  0.00    -0.080 HD
BRANCH  16  18
ATOM     18  C   UNL     1      32.977 -21.932 -18.708  0.00  0.00    -0.077 C 
ATOM     19  C   UNL     1      33.143 -20.915 -19.823  0.00  0.00    -0.025 C 
ENDBRANCH  16  18
BRANCH  16  20
ATOM     20  C   UNL     1      35.304 -22.113 -19.275  0.00  0.00    -0.045 C 
BRANCH  20  21
ATOM     21  C   UNL     1      36.428 -21.674 -18.350  0.00  0.00    +0.115 C 
BRANCH  21  22
ATOM     22  O   UNL     1      36.869 -20.383 -18.747  0.00  0.00    -0.384 OA
ATOM     23  H   UNL     1      36.880 -20.327 -19.714  0.00  0.00    +0.210 HD
ENDBRANCH  21  22
ENDBRANCH  20  21
ENDBRANCH  16  20
ENDBRANCH  15  16
ENDBRANCH  14  15
ENDBRANCH   3  14
BRANCH   8  24
ATOM     24  C   UNL     1      32.004 -22.535 -14.310  0.00  0.00    +0.101 C 
BRANCH  24  25
ATOM     25  C   UNL     1      30.842 -23.372 -14.827  0.00  0.00    -0.014 C 
ATOM     26  C   UNL     1      30.609 -24.609 -14.264  0.00  0.00    -0.004 C 
ATOM     27  C   UNL     1      30.057 -22.865 -15.844  0.00  0.00    -0.004 C 
ATOM     28  C   UNL     1      29.545 -25.375 -14.739  0.00  0.00    -0.000 C 
ATOM     29  C   UNL     1      28.993 -23.631 -16.318  0.00  0.00    -0.000 C 
ATOM     30  C   UNL     1      28.736 -24.886 -15.765  0.00  0.00    -0.000 C 
ENDBRANCH  24  25
ENDBRANCH   8  24
TORSDOF 9
ENDMDL
MODEL 4
REMARK VINA RESULT:      -8.6      8.701     11.809
REMARK  Name = 16229
REMARK  9 active torsions:
REMARK  status: ('A' for Active; 'I' for Inactive)
REMARK    1  A    between atoms: N_3  and  C_14
REMARK    2  A    between atoms: C_8  and  C_24
REMARK    3  A    between atoms: C_14  and  C_15
REMARK    4  A    between atoms: C_15  and  N_16
REMARK    5  A    between atoms: N_16  and  C_18
REMARK    6  A    between atoms: N_16  and  C_20
REMARK    7  A    between atoms: C_20  and  C_21
REMARK    8  A    between atoms: C_21  and  O_22
REMARK    9  A    between atoms: C_24  and  C_25
REMARK                            x       y       z     vdW  Elec       q    Type
REMARK                         _______ _______ _______ _____ _____    ______ ____
ROOT
ATOM      1  O   UNL     1      34.814 -15.786 -20.338  0.00  0.00    -0.272 OA
ATOM      2  O   UNL     1      35.508 -19.285 -23.385  0.00  0.00    -0.252 OA
ATOM      3  N   UNL     1      33.738 -14.257 -22.674  0.00  0.00    -0.276 N 
ATOM      4  N   UNL     1      34.584 -17.304 -24.182  0.00  0.00    -0.218 N 
ATOM      5  N   UNL     1      33.628 -15.104 -24.734  0.00  0.00    -0.378 NA
ATOM      6  N   UNL     1      35.172 -17.552 -21.846  0.00  0.00    -0.210 N 
ATOM      7  C   UNL     1      34.239 -15.525 -22.593  0.00  0.00    +0.220 C 
ATOM      8  C   UNL     1      33.384 -14.050 -23.982  0.00  0.00    +0.166 C 
ATOM      9  C   UNL     1      34.160 -16.020 -23.867  0.00  0.00    +0.195 C 
ATOM     10  C   UNL     1      34.751 -16.248 -21.474  0.00  0.00    +0.259 C 
ATOM     11  C   UNL     1      35.116 -18.134 -23.163  0.00  0.00    +0.318 C 
ATOM     12  C   UNL     1      34.480 -17.786 -25.554  0.00  0.00    +0.124 C 
ATOM     13  C   UNL     1      35.717 -18.391 -20.784  0.00  0.00    +0.124 C 
ENDROOT
BRANCH   3  14
ATOM     14  C   UNL     1      33.603 -13.309 -21.593  0.00  0.00    +0.071 C 
BRANCH  14  15
ATOM     15  C   UNL     1      32.143 -13.095 -21.200  0.00  0.00    -0.055 C 
BRANCH  15  16
ATOM     16  N   UNL     1      31.906 -11.689 -20.897  0.00  0.00    +0.390 N 
ATOM     17  H   UNL     1      32.765 -11.173 -21.090  0.00  0.00    -0.080 HD
BRANCH  16  18
ATOM     18  C   UNL     1      30.839 -11.152 -21.743  0.00  0.00    -0.077 C 
ATOM     19  C   UNL     1      31.322  -9.952 -22.540  0.00  0.00    -0.025 C 
ENDBRANCH  16  18
BRANCH  16  20
ATOM     20  C   UNL     1      31.567 -11.517 -19.483  0.00  0.00    -0.045 C 
BRANCH  20  21
ATOM     21  C   UNL     1      31.411 -10.044 -19.143  0.00  0.00    +0.115 C 
BRANCH  21  22
ATOM     22  O   UNL     1      32.697  -9.440 -19.121  0.00  0.00    -0.384 OA
ATOM     23  H   UNL     1      33.351 -10.060 -19.478  0.00  0.00    +0.210 HD
ENDBRANCH  21  22
ENDBRANCH  20  21
ENDBRANCH  16  20
ENDBRANCH  15  16
ENDBRANCH  14  15
ENDBRANCH   3  14
BRANCH   8  24
ATOM     24  C   UNL     1      32.801 -12.774 -24.445  0.00  0.00    +0.101 C 
BRANCH  24  25
ATOM     25  C   UNL     1      33.827 -11.787 -24.986  0.00  0.00    -0.014 C 
ATOM     26  C   UNL     1      34.253 -10.757 -24.173  0.00  0.00    -0.004 C 
ATOM     27  C   UNL     1      34.299 -11.954 -26.272  0.00  0.00    -0.004 C 
ATOM     28  C   UNL     1      35.193  -9.853 -24.669  0.00  0.00    -0.000 C 
ATOM     29  C   UNL     1      35.238 -11.050 -26.767  0.00  0.00    -0.000 C 
ATOM     30  C   UNL     1      35.686 -10.000 -25.965  0.00  0.00    -0.000 C 
ENDBRANCH  24  25
ENDBRANCH   8  24
TORSDOF 9
ENDMDL
MODEL 5
REMARK VINA RESULT:      -8.4      2.458      6.681
REMARK  Name = 16229
REMARK  9 active torsions:
REMARK  status: ('A' for Active; 'I' for Inactive)
REMARK    1  A    between atoms: N_3  and  C_14
REMARK    2  A    between atoms: C_8  and  C_24
REMARK    3  A    between atoms: C_14  and  C_15
REMARK    4  A    between atoms: C_15  and  N_16
REMARK    5  A    between atoms: N_16  and  C_18
REMARK    6  A    between atoms: N_16  and  C_20
REMARK    7  A    between atoms: C_20  and  C_21
REMARK    8  A    between atoms: C_21  and  O_22
REMARK    9  A    between atoms: C_24  and  C_25
REMARK                            x       y       z     vdW  Elec       q    Type
REMARK                         _______ _______ _______ _____ _____    ______ ____
ROOT
ATOM      1  O   UNL     1      36.898 -22.336 -17.633  0.00  0.00    -0.272 OA
ATOM      2  O   UNL     1      34.951 -19.962 -21.180  0.00  0.00    -0.252 OA
ATOM      3  N   UNL     1      34.103 -23.133 -16.921  0.00  0.00    -0.276 N 
ATOM      4  N   UNL     1      33.547 -21.140 -19.747  0.00  0.00    -0.218 N 
ATOM      5  N   UNL     1      32.318 -22.470 -18.081  0.00  0.00    -0.378 NA
ATOM      6  N   UNL     1      35.945 -21.139 -19.416  0.00  0.00    -0.210 N 
ATOM      7  C   UNL     1      34.575 -22.350 -17.935  0.00  0.00    +0.220 C 
ATOM      8  C   UNL     1      32.740 -23.175 -17.051  0.00  0.00    +0.166 C 
ATOM      9  C   UNL     1      33.463 -21.958 -18.630  0.00  0.00    +0.195 C 
ATOM     10  C   UNL     1      35.912 -21.975 -18.269  0.00  0.00    +0.259 C 
ATOM     11  C   UNL     1      34.816 -20.690 -20.191  0.00  0.00    +0.318 C 
ATOM     12  C   UNL     1      32.333 -20.749 -20.453  0.00  0.00    +0.124 C 
ATOM     13  C   UNL     1      37.261 -20.686 -19.857  0.00  0.00    +0.124 C 
ENDROOT
BRANCH   3  14
ATOM     14  C   UNL     1      34.884 -23.794 -15.902  0.00  0.00    +0.071 C 
BRANCH  14  15
ATOM     15  C   UNL     1      35.248 -22.848 -14.760  0.00  0.00    -0.055 C 
BRANCH  15  16
ATOM     16  N   UNL     1      36.375 -23.383 -14.005  0.00  0.00    +0.390 N 
ATOM     17  H   UNL     1      37.144 -22.715 -14.066  0.00  0.00    -0.080 HD
BRANCH  16  18
ATOM     18  C   UNL     1      36.017 -23.556 -12.596  0.00  0.00    -0.077 C 
ATOM     19  C   UNL     1      37.095 -22.999 -11.683  0.00  0.00    -0.025 C 
ENDBRANCH  16  18
BRANCH  16  20
ATOM     20  C   UNL     1      36.818 -24.657 -14.576  0.00  0.00    -0.045 C 
BRANCH  20  21
ATOM     21  C   UNL     1      38.324 -24.656 -14.786  0.00  0.00    +0.115 C 
BRANCH  21  22
ATOM     22  O   UNL     1      38.657 -23.624 -15.705  0.00  0.00    -0.384 OA
ATOM     23  H   UNL     1      39.483 -23.199 -15.429  0.00  0.00    +0.210 HD
ENDBRANCH  21  22
ENDBRANCH  20  21
ENDBRANCH  16  20
ENDBRANCH  15  16
ENDBRANCH  14  15
ENDBRANCH   3  14
BRANCH   8  24
ATOM     24  C   UNL     1      31.884 -23.936 -16.116  0.00  0.00    +0.101 C 
BRANCH  24  25
ATOM     25  C   UNL     1      30.442 -23.451 -16.065  0.00  0.00    -0.014 C 
ATOM     26  C   UNL     1      29.528 -23.982 -16.952  0.00  0.00    -0.004 C 
ATOM     27  C   UNL     1      30.092 -22.495 -15.132  0.00  0.00    -0.004 C 
ATOM     28  C   UNL     1      28.207 -23.538 -16.905  0.00  0.00    -0.000 C 
ATOM     29  C   UNL     1      28.771 -22.052 -15.085  0.00  0.00    -0.000 C 
ATOM     30  C   UNL     1      27.828 -22.574 -15.972  0.00  0.00    -0.000 C 
ENDBRANCH  24  25
ENDBRANCH   8  24
TORSDOF 9
ENDMDL
MODEL 6
REMARK VINA RESULT:      -8.4      2.333      6.356
REMARK  Name = 16229
REMARK  9 active torsions:
REMARK  status: ('A' for Active; 'I' for Inactive)
REMARK    1  A    between atoms: N_3  and  C_14
REMARK    2  A    between atoms: C_8  and  C_24
REMARK    3  A    between atoms: C_14  and  C_15
REMARK    4  A    between atoms: C_15  and  N_16
REMARK    5  A    between atoms: N_16  and  C_18
REMARK    6  A    between atoms: N_16  and  C_20
REMARK    7  A    between atoms: C_20  and  C_21
REMARK    8  A    between atoms: C_21  and  O_22
REMARK    9  A    between atoms: C_24  and  C_25
REMARK                            x       y       z     vdW  Elec       q    Type
REMARK                         _______ _______ _______ _____ _____    ______ ____
ROOT
ATOM      1  O   UNL     1      36.833 -22.645 -14.829  0.00  0.00    -0.272 OA
ATOM      2  O   UNL     1      36.318 -21.436 -19.333  0.00  0.00    -0.252 OA
ATOM      3  N   UNL     1      33.978 -23.531 -14.967  0.00  0.00    -0.276 N 
ATOM      4  N   UNL     1      34.491 -22.366 -18.231  0.00  0.00    -0.218 N 
ATOM      5  N   UNL     1      32.743 -23.366 -16.816  0.00  0.00    -0.378 NA
ATOM      6  N   UNL     1      36.598 -22.031 -17.085  0.00  0.00    -0.210 N 
ATOM      7  C   UNL     1      34.786 -22.977 -15.918  0.00  0.00    +0.220 C 
ATOM      8  C   UNL     1      32.759 -23.746 -15.555  0.00  0.00    +0.166 C 
ATOM      9  C   UNL     1      34.006 -22.888 -17.040  0.00  0.00    +0.195 C 
ATOM     10  C   UNL     1      36.149 -22.557 -15.845  0.00  0.00    +0.259 C 
ATOM     11  C   UNL     1      35.832 -21.909 -18.299  0.00  0.00    +0.318 C 
ATOM     12  C   UNL     1      33.621 -22.291 -19.398  0.00  0.00    +0.124 C 
ATOM     13  C   UNL     1      37.981 -21.565 -17.135  0.00  0.00    +0.124 C 
ENDROOT
BRANCH   3  14
ATOM     14  C   UNL     1      34.332 -23.834 -13.600  0.00  0.00    +0.071 C 
BRANCH  14  15
ATOM     15  C   UNL     1      35.152 -25.117 -13.495  0.00  0.00    -0.055 C 
BRANCH  15  16
ATOM     16  N   UNL     1      35.902 -25.132 -12.245  0.00  0.00    +0.390 N 
ATOM     17  H   UNL     1      35.359 -25.647 -11.553  0.00  0.00    -0.080 HD
BRANCH  16  18
ATOM     18  C   UNL     1      37.190 -25.805 -12.425  0.00  0.00    -0.077 C 
ATOM     19  C   UNL     1      37.257 -26.513 -13.767  0.00  0.00    -0.025 C 
ENDBRANCH  16  18
BRANCH  16  20
ATOM     20  C   UNL     1      36.108 -23.768 -11.753  0.00  0.00    -0.045 C 
BRANCH  20  21
ATOM     21  C   UNL     1      37.591 -23.470 -11.601  0.00  0.00    +0.115 C 
BRANCH  21  22
ATOM     22  O   UNL     1      37.815 -22.099 -11.901  0.00  0.00    -0.384 OA
ATOM     23  H   UNL     1      37.012 -21.591 -11.712  0.00  0.00    +0.210 HD
ENDBRANCH  21  22
ENDBRANCH  20  21
ENDBRANCH  16  20
ENDBRANCH  15  16
ENDBRANCH  14  15
ENDBRANCH   3  14
BRANCH   8  24
ATOM     24  C   UNL     1      31.624 -24.338 -14.817  0.00  0.00    +0.101 C 
BRANCH  24  25
ATOM     25  C   UNL     1      30.259 -23.872 -15.304  0.00  0.00    -0.014 C 
ATOM     26  C   UNL     1      29.798 -22.633 -14.908  0.00  0.00    -0.004 C 
ATOM     27  C   UNL     1      29.526 -24.702 -16.128  0.00  0.00    -0.004 C 
ATOM     28  C   UNL     1      28.548 -22.206 -15.355  0.00  0.00    -0.000 C 
ATOM     29  C   UNL     1      28.277 -24.274 -16.575  0.00  0.00    -0.000 C 
ATOM     30  C   UNL     1      27.787 -23.026 -16.189  0.00  0.00    -0.000 C 
ENDBRANCH  24  25
ENDBRANCH   8  24
TORSDOF 9
ENDMDL
MODEL 7
REMARK VINA RESULT:      -8.2      1.480      5.560
REMARK  Name = 16229
REMARK  9 active torsions:
REMARK  status: ('A' for Active; 'I' for Inactive)
REMARK    1  A    between atoms: N_3  and  C_14
REMARK    2  A    between atoms: C_8  and  C_24
REMARK    3  A    between atoms: C_14  and  C_15
REMARK    4  A    between atoms: C_15  and  N_16
REMARK    5  A    between atoms: N_16  and  C_18
REMARK    6  A    between atoms: N_16  and  C_20
REMARK    7  A    between atoms: C_20  and  C_21
REMARK    8  A    between atoms: C_21  and  O_22
REMARK    9  A    between atoms: C_24  and  C_25
REMARK                            x       y       z     vdW  Elec       q    Type
REMARK                         _______ _______ _______ _____ _____    ______ ____
ROOT
ATOM      1  O   UNL     1      33.021 -24.505 -13.711  0.00  0.00    -0.272 OA
ATOM      2  O   UNL     1      28.566 -23.254 -14.485  0.00  0.00    -0.252 OA
ATOM      3  N   UNL     1      33.540 -23.571 -16.505  0.00  0.00    -0.276 N 
ATOM      4  N   UNL     1      30.106 -22.945 -16.202  0.00  0.00    -0.218 N 
ATOM      5  N   UNL     1      31.946 -22.736 -17.823  0.00  0.00    -0.378 NA
ATOM      6  N   UNL     1      30.784 -23.887 -14.076  0.00  0.00    -0.210 N 
ATOM      7  C   UNL     1      32.387 -23.596 -15.774  0.00  0.00    +0.220 C 
ATOM      8  C   UNL     1      33.223 -23.045 -17.731  0.00  0.00    +0.166 C 
ATOM      9  C   UNL     1      31.428 -23.080 -16.603  0.00  0.00    +0.195 C 
ATOM     10  C   UNL     1      32.148 -24.043 -14.440  0.00  0.00    +0.259 C 
ATOM     11  C   UNL     1      29.727 -23.352 -14.897  0.00  0.00    +0.318 C 
ATOM     12  C   UNL     1      29.122 -22.390 -17.122  0.00  0.00    +0.124 C 
ATOM     13  C   UNL     1      30.413 -24.311 -12.730  0.00  0.00    +0.124 C 
ENDROOT
BRANCH   3  14
ATOM     14  C   UNL     1      34.847 -24.012 -16.078  0.00  0.00    +0.071 C 
BRANCH  14  15
ATOM     15  C   UNL     1      35.623 -22.900 -15.378  0.00  0.00    -0.055 C 
BRANCH  15  16
ATOM     16  N   UNL     1      37.057 -23.116 -15.533  0.00  0.00    +0.390 N 
ATOM     17  H   UNL     1      37.198 -23.796 -16.279  0.00  0.00    -0.080 HD
BRANCH  16  18
ATOM     18  C   UNL     1      37.729 -21.869 -15.904  0.00  0.00    -0.077 C 
ATOM     19  C   UNL     1      37.178 -21.315 -17.206  0.00  0.00    -0.025 C 
ENDBRANCH  16  18
BRANCH  16  20
ATOM     20  C   UNL     1      37.632 -23.654 -14.298  0.00  0.00    -0.045 C 
BRANCH  20  21
ATOM     21  C   UNL     1      38.461 -24.895 -14.588  0.00  0.00    +0.115 C 
BRANCH  21  22
ATOM     22  O   UNL     1      39.636 -24.858 -13.790  0.00  0.00    -0.384 OA
ATOM     23  H   UNL     1      39.416 -25.103 -12.879  0.00  0.00    +0.210 HD
ENDBRANCH  21  22
ENDBRANCH  20  21
ENDBRANCH  16  20
ENDBRANCH  15  16
ENDBRANCH  14  15
ENDBRANCH   3  14
BRANCH   8  24
ATOM     24  C   UNL     1      34.234 -22.868 -18.795  0.00  0.00    +0.101 C 
BRANCH  24  25
ATOM     25  C   UNL     1      34.084 -21.572 -19.580  0.00  0.00    -0.014 C 
ATOM     26  C   UNL     1      35.217 -20.952 -20.065  0.00  0.00    -0.004 C 
ATOM     27  C   UNL     1      32.819 -21.059 -19.784  0.00  0.00    -0.004 C 
ATOM     28  C   UNL     1      35.078 -19.765 -20.784  0.00  0.00    -0.000 C 
ATOM     29  C   UNL     1      32.681 -19.873 -20.503  0.00  0.00    -0.000 C 
ATOM     30  C   UNL     1      33.811 -19.226 -21.004  0.00  0.00    -0.000 C 
ENDBRANCH  24  25
ENDBRANCH   8  24
TORSDOF 9
ENDMDL
MODEL 8
REMARK VINA RESULT:      -8.2      2.400      5.692
REMARK  Name = 16229
REMARK  9 active torsions:
REMARK  status: ('A' for Active; 'I' for Inactive)
REMARK    1  A    between atoms: N_3  and  C_14
REMARK    2  A    between atoms: C_8  and  C_24
REMARK    3  A    between atoms: C_14  and  C_15
REMARK    4  A    between atoms: C_15  and  N_16
REMARK    5  A    between atoms: N_16  and  C_18
REMARK    6  A    between atoms: N_16  and  C_20
REMARK    7  A    between atoms: C_20  and  C_21
REMARK    8  A    between atoms: C_21  and  O_22
REMARK    9  A    between atoms: C_24  and  C_25
REMARK                            x       y       z     vdW  Elec       q    Type
REMARK                         _______ _______ _______ _____ _____    ______ ____
ROOT
ATOM      1  O   UNL     1      32.708 -22.292 -19.373  0.00  0.00    -0.272 OA
ATOM      2  O   UNL     1      36.912 -20.232 -19.682  0.00  0.00    -0.252 OA
ATOM      3  N   UNL     1      33.701 -23.436 -16.793  0.00  0.00    -0.276 N 
ATOM      4  N   UNL     1      36.479 -21.567 -17.826  0.00  0.00    -0.218 N 
ATOM      5  N   UNL     1      35.740 -23.026 -15.987  0.00  0.00    -0.378 NA
ATOM      6  N   UNL     1      34.807 -21.251 -19.549  0.00  0.00    -0.210 N 
ATOM      7  C   UNL     1      34.311 -22.611 -17.695  0.00  0.00    +0.220 C 
ATOM      8  C   UNL     1      34.602 -23.657 -15.784  0.00  0.00    +0.166 C 
ATOM      9  C   UNL     1      35.556 -22.376 -17.177  0.00  0.00    +0.195 C 
ATOM     10  C   UNL     1      33.829 -22.068 -18.924  0.00  0.00    +0.259 C 
ATOM     11  C   UNL     1      36.132 -20.962 -19.061  0.00  0.00    +0.318 C 
ATOM     12  C   UNL     1      37.793 -21.347 -17.235  0.00  0.00    +0.124 C 
ATOM     13  C   UNL     1      34.432 -20.637 -20.820  0.00  0.00    +0.124 C 
ENDROOT
BRANCH   3  14
ATOM     14  C   UNL     1      32.365 -23.977 -16.879  0.00  0.00    +0.071 C 
BRANCH  14  15
ATOM     15  C   UNL     1      31.343 -23.085 -16.179  0.00  0.00    -0.055 C 
BRANCH  15  16
ATOM     16  N   UNL     1      30.102 -23.818 -15.964  0.00  0.00    +0.390 N 
ATOM     17  H   UNL     1      29.882 -24.329 -16.819  0.00  0.00    -0.080 HD
BRANCH  16  18
ATOM     18  C   UNL     1      30.253 -24.781 -14.872  0.00  0.00    -0.077 C 
ATOM     19  C   UNL     1      30.666 -24.090 -13.584  0.00  0.00    -0.025 C 
ENDBRANCH  16  18
BRANCH  16  20
ATOM     20  C   UNL     1      29.001 -22.895 -15.678  0.00  0.00    -0.045 C 
BRANCH  20  21
ATOM     21  C   UNL     1      28.128 -22.703 -16.907  0.00  0.00    +0.115 C 
BRANCH  21  22
ATOM     22  O   UNL     1      27.830 -23.977 -17.461  0.00  0.00    -0.384 OA
ATOM     23  H   UNL     1      27.189 -24.433 -16.896  0.00  0.00    +0.210 HD
ENDBRANCH  21  22
ENDBRANCH  20  21
ENDBRANCH  16  20
ENDBRANCH  15  16
ENDBRANCH  14  15
ENDBRANCH   3  14
BRANCH   8  24
ATOM     24  C   UNL     1      34.285 -24.515 -14.622  0.00  0.00    +0.101 C 
BRANCH  24  25
ATOM     25  C   UNL     1      35.408 -24.610 -13.599  0.00  0.00    -0.014 C 
ATOM     26  C   UNL     1      35.342 -23.830 -12.463  0.00  0.00    -0.004 C 
ATOM     27  C   UNL     1      36.458 -25.473 -13.840  0.00  0.00    -0.004 C 
ATOM     28  C   UNL     1      36.371 -23.917 -11.526  0.00  0.00    -0.000 C 
ATOM     29  C   UNL     1      37.487 -25.559 -12.902  0.00  0.00    -0.000 C 
ATOM     30  C   UNL     1      37.443 -24.782 -11.745  0.00  0.00    -0.000 C 
ENDBRANCH  24  25
ENDBRANCH   8  24
TORSDOF 9
ENDMDL
MODEL 9
REMARK VINA RESULT:      -8.1      2.366      6.196
REMARK  Name = 16229
REMARK  9 active torsions:
REMARK  status: ('A' for Active; 'I' for Inactive)
REMARK    1  A    between atoms: N_3  and  C_14
REMARK    2  A    between atoms: C_8  and  C_24
REMARK    3  A    between atoms: C_14  and  C_15
REMARK    4  A    between atoms: C_15  and  N_16
REMARK    5  A    between atoms: N_16  and  C_18
REMARK    6  A    between atoms: N_16  and  C_20
REMARK    7  A    between atoms: C_20  and  C_21
REMARK    8  A    between atoms: C_21  and  O_22
REMARK    9  A    between atoms: C_24  and  C_25
REMARK                            x       y       z     vdW  Elec       q    Type
REMARK                         _______ _______ _______ _____ _____    ______ ____
ROOT
ATOM      1  O   UNL     1      36.779 -22.478 -14.509  0.00  0.00    -0.272 OA
ATOM      2  O   UNL     1      36.486 -21.643 -19.116  0.00  0.00    -0.252 OA
ATOM      3  N   UNL     1      33.949 -23.426 -14.723  0.00  0.00    -0.276 N 
ATOM      4  N   UNL     1      34.618 -22.516 -18.039  0.00  0.00    -0.218 N 
ATOM      5  N   UNL     1      32.812 -23.433 -16.641  0.00  0.00    -0.378 NA
ATOM      6  N   UNL     1      36.655 -22.051 -16.816  0.00  0.00    -0.210 N 
ATOM      7  C   UNL     1      34.798 -22.935 -15.673  0.00  0.00    +0.220 C 
ATOM      8  C   UNL     1      32.767 -23.712 -15.354  0.00  0.00    +0.166 C 
ATOM      9  C   UNL     1      34.078 -22.951 -16.836  0.00  0.00    +0.195 C 
ATOM     10  C   UNL     1      36.149 -22.485 -15.563  0.00  0.00    +0.259 C 
ATOM     11  C   UNL     1      35.953 -22.041 -18.075  0.00  0.00    +0.318 C 
ATOM     12  C   UNL     1      33.810 -22.552 -19.252  0.00  0.00    +0.124 C 
ATOM     13  C   UNL     1      38.032 -21.565 -16.833  0.00  0.00    +0.124 C 
ENDROOT
BRANCH   3  14
ATOM     14  C   UNL     1      34.235 -23.612 -13.319  0.00  0.00    +0.071 C 
BRANCH  14  15
ATOM     15  C   UNL     1      34.720 -25.028 -13.019  0.00  0.00    -0.055 C 
BRANCH  15  16
ATOM     16  N   UNL     1      36.000 -25.268 -13.673  0.00  0.00    +0.390 N 
ATOM     17  H   UNL     1      36.349 -24.378 -14.027  0.00  0.00    -0.080 HD
BRANCH  16  18
ATOM     18  C   UNL     1      36.974 -25.806 -12.721  0.00  0.00    -0.077 C 
ATOM     19  C   UNL     1      37.753 -24.691 -12.045  0.00  0.00    -0.025 C 
ENDBRANCH  16  18
BRANCH  16  20
ATOM     20  C   UNL     1      35.837 -26.186 -14.803  0.00  0.00    -0.045 C 
BRANCH  20  21
ATOM     21  C   UNL     1      37.189 -26.662 -15.308  0.00  0.00    +0.115 C 
BRANCH  21  22
ATOM     22  O   UNL     1      36.990 -27.455 -16.471  0.00  0.00    -0.384 OA
ATOM     23  H   UNL     1      36.495 -28.254 -16.237  0.00  0.00    +0.210 HD
ENDBRANCH  21  22
ENDBRANCH  20  21
ENDBRANCH  16  20
ENDBRANCH  15  16
ENDBRANCH  14  15
ENDBRANCH   3  14
BRANCH   8  24
ATOM     24  C   UNL     1      31.603 -24.264 -14.629  0.00  0.00    +0.101 C 
BRANCH  24  25
ATOM     25  C   UNL     1      30.259 -23.833 -15.200  0.00  0.00    -0.014 C 
ATOM     26  C   UNL     1      29.559 -24.716 -15.997  0.00  0.00    -0.004 C 
ATOM     27  C   UNL     1      29.781 -22.573 -14.901  0.00  0.00    -0.004 C 
ATOM     28  C   UNL     1      28.328 -24.321 -16.519  0.00  0.00    -0.000 C 
ATOM     29  C   UNL     1      28.550 -22.179 -15.424  0.00  0.00    -0.000 C 
ATOM     30  C   UNL     1      27.823 -23.053 -16.233  0.00  0.00    -0.000 C 
ENDBRANCH  24  25
ENDBRANCH   8  24
TORSDOF 9
ENDMDL
