MODEL 1
REMARK VINA RESULT:      -9.7      0.000      0.000
REMARK  Name = 6914609
REMARK  7 active torsions:
REMARK  status: ('A' for Active; 'I' for Inactive)
REMARK    1  A    between atoms: N_1  and  CA_27
REMARK    2  A    between atoms: N_2  and  C_12
REMARK    3  A    between atoms: N_15  and  C_18
REMARK    4  A    between atoms: C_21  and  N_24
REMARK    5  A    between atoms: CA_27  and  CB_28
REMARK    6  A    between atoms: CA_27  and  C_31
REMARK    7  A    between atoms: C_31  and  O_32
REMARK                            x       y       z     vdW  Elec       q    Type
REMARK                         _______ _______ _______ _____ _____    ______ ____
ROOT
ATOM      1  N   UNL     1      31.835 -23.318 -17.036  0.00  0.00    -0.258 N 
ATOM      2  N   UNL     1      34.731 -20.987 -19.994  0.00  0.00    -0.262 N 
ATOM      3  N   UNL     1      33.092 -22.127 -18.609  0.00  0.00    -0.311 NA
ATOM      4  N   UNL     1      34.143 -23.165 -16.667  0.00  0.00    -0.311 NA
ATOM      5  N   UNL     1      36.581 -21.410 -18.824  0.00  0.00    -0.240 NA
ATOM      6  C   UNL     1      34.335 -21.727 -18.917  0.00  0.00    +0.220 C 
ATOM      7  C   ACE A   0      33.067 -22.854 -17.454  0.00  0.00    +0.202 C 
ATOM      8  C   UNL     1      35.497 -21.978 -18.204  0.00  0.00    +0.168 C 
ATOM      9  C   UNL     1      35.370 -22.727 -17.038  0.00  0.00    +0.219 C 
ATOM     10  C   UNL     1      36.086 -20.823 -19.895  0.00  0.00    +0.222 C 
ATOM     11  H   UNL     1      31.045 -23.105 -17.585  0.00  0.00    +0.160 HD
ATOM     12  N   UNL     1      36.496 -23.029 -16.252  0.00  0.00    -0.286 N 
ATOM     13  H   UNL     1      37.336 -22.663 -16.610  0.00  0.00    +0.155 HD
ENDROOT
BRANCH  12  15
ATOM     14 CL   UNL     1      36.923 -22.964 -11.141  0.00  0.00    -0.082 Cl
ATOM     15  C   UNL     1      36.661 -23.754 -15.052  0.00  0.00    +0.052 C 
ATOM     16  C   UNL     1      36.781 -25.142 -15.088  0.00  0.00    +0.029 C 
ATOM     17  C   UNL     1      36.704 -23.079 -13.832  0.00  0.00    +0.026 C 
ATOM     18  C   UNL     1      36.945 -25.859 -13.902  0.00  0.00    +0.044 C 
ATOM     19  C   UNL     1      36.868 -23.796 -12.646  0.00  0.00    +0.060 C 
ATOM     20  C   UNL     1      36.989 -25.185 -12.682  0.00  0.00    +0.026 C 
BRANCH  18  21
ATOM     21  N   UNL     1      37.067 -27.263 -13.938  0.00  0.00    -0.357 N 
ATOM     22  H   UNL     1      37.950 -27.678 -14.070  0.00  0.00    +0.142 HD
ATOM     23  H   UNL     1      36.268 -27.829 -13.832  0.00  0.00    +0.142 HD
ENDBRANCH  18  21
ENDBRANCH  12  15
BRANCH   2  24
ATOM     24  C   UNL     1      33.886 -20.472 -21.046  0.00  0.00    +0.077 C 
ATOM     25  C   UNL     1      34.661 -19.579 -22.016  0.00  0.00    +0.022 C 
ATOM     26  C   UNL     1      32.650 -19.761 -20.490  0.00  0.00    +0.022 C 
ENDBRANCH   2  24
BRANCH   1  27
ATOM     27  CA  UNL     1      31.643 -24.106 -15.831  0.00  0.00    +0.109 C 
BRANCH  27  28
ATOM     28  CB  UNL     1      31.980 -23.270 -14.574  0.00  0.00    +0.021 C 
ATOM     29  CG1 UNL     1      30.709 -22.828 -13.840  0.00  0.00    +0.002 C 
ATOM     30  CG2 UNL     1      32.926 -23.975 -13.598  0.00  0.00    +0.002 C 
ENDBRANCH  27  28
BRANCH  27  31
ATOM     31  C   UNL     1      30.213 -24.650 -15.812  0.00  0.00    +0.157 C 
BRANCH  31  32
ATOM     32  O   UNL     1      30.188 -25.880 -15.092  0.00  0.00    -0.380 OA
ATOM     33  H   UNL     1      31.056 -26.036 -14.688  0.00  0.00    +0.211 HD
ENDBRANCH  31  32
ENDBRANCH  27  31
ENDBRANCH   1  27
TORSDOF 7
ENDMDL
MODEL 2
REMARK VINA RESULT:      -8.2      2.586      4.960
REMARK  Name = 6914609
REMARK  7 active torsions:
REMARK  status: ('A' for Active; 'I' for Inactive)
REMARK    1  A    between atoms: N_1  and  CA_27
REMARK    2  A    between atoms: N_2  and  C_12
REMARK    3  A    between atoms: N_15  and  C_18
REMARK    4  A    between atoms: C_21  and  N_24
REMARK    5  A    between atoms: CA_27  and  CB_28
REMARK    6  A    between atoms: CA_27  and  C_31
REMARK    7  A    between atoms: C_31  and  O_32
REMARK                            x       y       z     vdW  Elec       q    Type
REMARK                         _______ _______ _______ _____ _____    ______ ____
ROOT
ATOM      1  N   UNL     1      36.933 -23.048 -16.541  0.00  0.00    -0.258 N 
ATOM      2  N   UNL     1      34.837 -20.892 -20.220  0.00  0.00    -0.262 N 
ATOM      3  N   UNL     1      36.093 -21.933 -18.418  0.00  0.00    -0.311 NA
ATOM      4  N   UNL     1      34.607 -23.019 -16.816  0.00  0.00    -0.311 NA
ATOM      5  N   UNL     1      32.763 -21.410 -19.589  0.00  0.00    -0.240 NA
ATOM      6  C   UNL     1      34.961 -21.603 -19.061  0.00  0.00    +0.220 C 
ATOM      7  C   ACE A   0      35.839 -22.651 -17.285  0.00  0.00    +0.202 C 
ATOM      8  C   UNL     1      33.664 -21.916 -18.687  0.00  0.00    +0.168 C 
ATOM      9  C   UNL     1      33.507 -22.653 -17.516  0.00  0.00    +0.219 C 
ATOM     10  C   UNL     1      33.499 -20.802 -20.496  0.00  0.00    +0.222 C 
ATOM     11  H   UNL     1      37.830 -22.797 -16.860  0.00  0.00    +0.160 HD
ATOM     12  N   UNL     1      32.226 -23.015 -17.063  0.00  0.00    -0.286 N 
ATOM     13  H   UNL     1      31.498 -22.700 -17.645  0.00  0.00    +0.155 HD
ENDROOT
BRANCH  12  15
ATOM     14 CL   UNL     1      28.376 -25.417 -14.671  0.00  0.00    -0.082 Cl
ATOM     15  C   UNL     1      31.778 -23.740 -15.937  0.00  0.00    +0.052 C 
ATOM     16  C   UNL     1      32.660 -24.023 -14.896  0.00  0.00    +0.029 C 
ATOM     17  C   UNL     1      30.454 -24.170 -15.869  0.00  0.00    +0.026 C 
ATOM     18  C   UNL     1      32.217 -24.739 -13.783  0.00  0.00    +0.044 C 
ATOM     19  C   UNL     1      30.011 -24.886 -14.756  0.00  0.00    +0.060 C 
ATOM     20  C   UNL     1      30.893 -25.170 -13.713  0.00  0.00    +0.026 C 
BRANCH  18  21
ATOM     21  N   UNL     1      33.110 -25.026 -12.729  0.00  0.00    -0.357 N 
ATOM     22  H   UNL     1      33.378 -24.314 -12.103  0.00  0.00    +0.142 HD
ATOM     23  H   UNL     1      33.464 -25.938 -12.618  0.00  0.00    +0.142 HD
ENDBRANCH  18  21
ENDBRANCH  12  15
BRANCH   2  24
ATOM     24  C   UNL     1      35.909 -20.333 -21.010  0.00  0.00    +0.077 C 
ATOM     25  C   UNL     1      36.996 -19.706 -20.137  0.00  0.00    +0.022 C 
ATOM     26  C   UNL     1      35.390 -19.349 -22.060  0.00  0.00    +0.022 C 
ENDBRANCH   2  24
BRANCH   1  27
ATOM     27  CA  UNL     1      36.829 -23.815 -15.313  0.00  0.00    +0.109 C 
BRANCH  27  28
ATOM     28  CB  UNL     1      37.898 -24.932 -15.275  0.00  0.00    +0.021 C 
ATOM     29  CG1 UNL     1      38.913 -24.695 -14.151  0.00  0.00    +0.002 C 
ATOM     30  CG2 UNL     1      37.314 -26.343 -15.160  0.00  0.00    +0.002 C 
ENDBRANCH  27  28
BRANCH  27  31
ATOM     31  C   UNL     1      36.928 -22.863 -14.118  0.00  0.00    +0.157 C 
BRANCH  31  32
ATOM     32  O   UNL     1      35.830 -23.097 -13.240  0.00  0.00    -0.380 OA
ATOM     33  H   UNL     1      35.847 -22.446 -12.521  0.00  0.00    +0.211 HD
ENDBRANCH  31  32
ENDBRANCH  27  31
ENDBRANCH   1  27
TORSDOF 7
ENDMDL
MODEL 3
REMARK VINA RESULT:      -8.1      1.866      2.189
REMARK  Name = 6914609
REMARK  7 active torsions:
REMARK  status: ('A' for Active; 'I' for Inactive)
REMARK    1  A    between atoms: N_1  and  CA_27
REMARK    2  A    between atoms: N_2  and  C_12
REMARK    3  A    between atoms: N_15  and  C_18
REMARK    4  A    between atoms: C_21  and  N_24
REMARK    5  A    between atoms: CA_27  and  CB_28
REMARK    6  A    between atoms: CA_27  and  C_31
REMARK    7  A    between atoms: C_31  and  O_32
REMARK                            x       y       z     vdW  Elec       q    Type
REMARK                         _______ _______ _______ _____ _____    ______ ____
ROOT
ATOM      1  N   UNL     1      32.567 -23.203 -16.589  0.00  0.00    -0.258 N 
ATOM      2  N   UNL     1      34.977 -20.988 -20.032  0.00  0.00    -0.262 N 
ATOM      3  N   UNL     1      33.570 -22.082 -18.380  0.00  0.00    -0.311 NA
ATOM      4  N   UNL     1      34.895 -22.957 -16.528  0.00  0.00    -0.311 NA
ATOM      5  N   UNL     1      36.974 -21.277 -19.084  0.00  0.00    -0.240 NA
ATOM      6  C   UNL     1      34.749 -21.666 -18.869  0.00  0.00    +0.220 C 
ATOM      7  C   ACE A   0      33.718 -22.731 -17.188  0.00  0.00    +0.202 C 
ATOM      8  C   UNL     1      35.999 -21.835 -18.296  0.00  0.00    +0.168 C 
ATOM      9  C   UNL     1      36.048 -22.508 -17.078  0.00  0.00    +0.219 C 
ATOM     10  C   UNL     1      36.327 -20.778 -20.117  0.00  0.00    +0.222 C 
ATOM     11  H   UNL     1      31.707 -23.050 -17.045  0.00  0.00    +0.160 HD
ATOM     12  N   UNL     1      37.275 -22.723 -16.426  0.00  0.00    -0.286 N 
ATOM     13  H   UNL     1      38.049 -22.357 -16.911  0.00  0.00    +0.155 HD
ENDROOT
BRANCH  12  15
ATOM     14 CL   UNL     1      40.170 -26.179 -13.978  0.00  0.00    -0.082 Cl
ATOM     15  C   UNL     1      37.616 -23.360 -15.213  0.00  0.00    +0.052 C 
ATOM     16  C   UNL     1      36.959 -23.010 -14.035  0.00  0.00    +0.029 C 
ATOM     17  C   UNL     1      38.609 -24.339 -15.197  0.00  0.00    +0.026 C 
ATOM     18  C   UNL     1      37.296 -23.641 -12.836  0.00  0.00    +0.044 C 
ATOM     19  C   UNL     1      38.945 -24.970 -13.998  0.00  0.00    +0.060 C 
ATOM     20  C   UNL     1      38.288 -24.620 -12.819  0.00  0.00    +0.026 C 
BRANCH  18  21
ATOM     21  N   UNL     1      36.632 -23.286 -11.643  0.00  0.00    -0.357 N 
ATOM     22  H   UNL     1      37.103 -22.765 -10.953  0.00  0.00    +0.142 HD
ATOM     23  H   UNL     1      35.697 -23.560 -11.500  0.00  0.00    +0.142 HD
ENDBRANCH  18  21
ENDBRANCH  12  15
BRANCH   2  24
ATOM     24  C   UNL     1      33.988 -20.570 -20.997  0.00  0.00    +0.077 C 
ATOM     25  C   UNL     1      34.575 -19.619 -22.041  0.00  0.00    +0.022 C 
ATOM     26  C   UNL     1      32.749 -19.974 -20.325  0.00  0.00    +0.022 C 
ENDBRANCH   2  24
BRANCH   1  27
ATOM     27  CA  UNL     1      32.558 -23.914 -15.322  0.00  0.00    +0.109 C 
BRANCH  27  28
ATOM     28  CB  UNL     1      31.138 -24.435 -15.000  0.00  0.00    +0.021 C 
ATOM     29  CG1 UNL     1      30.954 -24.660 -13.494  0.00  0.00    +0.002 C 
ATOM     30  CG2 UNL     1      30.015 -23.541 -15.533  0.00  0.00    +0.002 C 
ENDBRANCH  27  28
BRANCH  27  31
ATOM     31  C   UNL     1      33.601 -25.033 -15.370  0.00  0.00    +0.157 C 
BRANCH  31  32
ATOM     32  O   UNL     1      34.345 -25.032 -14.154  0.00  0.00    -0.380 OA
ATOM     33  H   UNL     1      35.161 -25.543 -14.274  0.00  0.00    +0.211 HD
ENDBRANCH  31  32
ENDBRANCH  27  31
ENDBRANCH   1  27
TORSDOF 7
ENDMDL
MODEL 4
REMARK VINA RESULT:      -8.1      2.730      6.572
REMARK  Name = 6914609
REMARK  7 active torsions:
REMARK  status: ('A' for Active; 'I' for Inactive)
REMARK    1  A    between atoms: N_1  and  CA_27
REMARK    2  A    between atoms: N_2  and  C_12
REMARK    3  A    between atoms: N_15  and  C_18
REMARK    4  A    between atoms: C_21  and  N_24
REMARK    5  A    between atoms: CA_27  and  CB_28
REMARK    6  A    between atoms: CA_27  and  C_31
REMARK    7  A    between atoms: C_31  and  O_32
REMARK                            x       y       z     vdW  Elec       q    Type
REMARK                         _______ _______ _______ _____ _____    ______ ____
ROOT
ATOM      1  N   UNL     1      33.588 -23.413 -14.266  0.00  0.00    -0.258 N 
ATOM      2  N   UNL     1      38.177 -24.572 -13.857  0.00  0.00    -0.262 N 
ATOM      3  N   UNL     1      35.800 -24.070 -13.880  0.00  0.00    -0.311 NA
ATOM      4  N   UNL     1      35.165 -22.881 -15.914  0.00  0.00    -0.311 NA
ATOM      5  N   UNL     1      38.775 -23.679 -15.811  0.00  0.00    -0.240 NA
ATOM      6  C   UNL     1      37.037 -24.054 -14.401  0.00  0.00    +0.220 C 
ATOM      7  C   ACE A   0      34.898 -23.456 -14.701  0.00  0.00    +0.202 C 
ATOM      8  C   UNL     1      37.429 -23.506 -15.611  0.00  0.00    +0.168 C 
ATOM      9  C   UNL     1      36.437 -22.902 -16.380  0.00  0.00    +0.219 C 
ATOM     10  C   UNL     1      39.194 -24.322 -14.740  0.00  0.00    +0.222 C 
ATOM     11  H   UNL     1      33.371 -23.823 -13.397  0.00  0.00    +0.160 HD
ATOM     12  N   UNL     1      36.745 -22.321 -17.622  0.00  0.00    -0.286 N 
ATOM     13  H   UNL     1      37.696 -22.392 -17.866  0.00  0.00    +0.155 HD
ENDROOT
BRANCH  12  15
ATOM     14 CL   UNL     1      36.470 -18.803 -21.345  0.00  0.00    -0.082 Cl
ATOM     15  C   UNL     1      35.962 -21.656 -18.589  0.00  0.00    +0.052 C 
ATOM     16  C   UNL     1      34.614 -21.980 -18.736  0.00  0.00    +0.029 C 
ATOM     17  C   UNL     1      36.537 -20.674 -19.395  0.00  0.00    +0.026 C 
ATOM     18  C   UNL     1      33.838 -21.322 -19.691  0.00  0.00    +0.044 C 
ATOM     19  C   UNL     1      35.761 -20.015 -20.351  0.00  0.00    +0.060 C 
ATOM     20  C   UNL     1      34.412 -20.340 -20.498  0.00  0.00    +0.026 C 
BRANCH  18  21
ATOM     21  N   UNL     1      32.475 -21.650 -19.840  0.00  0.00    -0.357 N 
ATOM     22  H   UNL     1      31.920 -21.163 -20.492  0.00  0.00    +0.142 HD
ATOM     23  H   UNL     1      32.078 -22.366 -19.293  0.00  0.00    +0.142 HD
ENDBRANCH  18  21
ENDBRANCH  12  15
BRANCH   2  24
ATOM     24  C   UNL     1      38.299 -25.254 -12.591  0.00  0.00    +0.077 C 
ATOM     25  C   UNL     1      37.398 -26.488 -12.516  0.00  0.00    +0.022 C 
ATOM     26  C   UNL     1      38.061 -24.311 -11.409  0.00  0.00    +0.022 C 
ENDBRANCH   2  24
BRANCH   1  27
ATOM     27  CA  UNL     1      32.514 -22.796 -15.024  0.00  0.00    +0.109 C 
BRANCH  27  28
ATOM     28  CB  UNL     1      31.740 -23.859 -15.839  0.00  0.00    +0.021 C 
ATOM     29  CG1 UNL     1      31.204 -24.975 -14.934  0.00  0.00    +0.002 C 
ATOM     30  CG2 UNL     1      30.601 -23.282 -16.684  0.00  0.00    +0.002 C 
ENDBRANCH  27  28
BRANCH  27  31
ATOM     31  C   UNL     1      31.611 -22.015 -14.065  0.00  0.00    +0.157 C 
BRANCH  31  32
ATOM     32  O   UNL     1      31.921 -22.383 -12.724  0.00  0.00    -0.380 OA
ATOM     33  H   UNL     1      31.265 -23.022 -12.403  0.00  0.00    +0.211 HD
ENDBRANCH  31  32
ENDBRANCH  27  31
ENDBRANCH   1  27
TORSDOF 7
ENDMDL
MODEL 5
REMARK VINA RESULT:      -7.8      2.113      4.875
REMARK  Name = 6914609
REMARK  7 active torsions:
REMARK  status: ('A' for Active; 'I' for Inactive)
REMARK    1  A    between atoms: N_1  and  CA_27
REMARK    2  A    between atoms: N_2  and  C_12
REMARK    3  A    between atoms: N_15  and  C_18
REMARK    4  A    between atoms: C_21  and  N_24
REMARK    5  A    between atoms: CA_27  and  CB_28
REMARK    6  A    between atoms: CA_27  and  C_31
REMARK    7  A    between atoms: C_31  and  O_32
REMARK                            x       y       z     vdW  Elec       q    Type
REMARK                         _______ _______ _______ _____ _____    ______ ____
ROOT
ATOM      1  N   UNL     1      36.945 -22.973 -16.573  0.00  0.00    -0.258 N 
ATOM      2  N   UNL     1      34.756 -20.908 -20.250  0.00  0.00    -0.262 N 
ATOM      3  N   UNL     1      36.057 -21.901 -18.454  0.00  0.00    -0.311 NA
ATOM      4  N   UNL     1      34.614 -22.977 -16.806  0.00  0.00    -0.311 NA
ATOM      5  N   UNL     1      32.700 -21.441 -19.573  0.00  0.00    -0.240 NA
ATOM      6  C   UNL     1      34.910 -21.597 -19.081  0.00  0.00    +0.220 C 
ATOM      7  C   ACE A   0      35.833 -22.602 -17.304  0.00  0.00    +0.202 C 
ATOM      8  C   UNL     1      33.624 -21.919 -18.678  0.00  0.00    +0.168 C 
ATOM      9  C   UNL     1      33.497 -22.637 -17.493  0.00  0.00    +0.219 C 
ATOM     10  C   UNL     1      33.413 -20.839 -20.504  0.00  0.00    +0.222 C 
ATOM     11  H   UNL     1      37.833 -22.716 -16.913  0.00  0.00    +0.160 HD
ATOM     12  N   UNL     1      32.230 -23.006 -17.009  0.00  0.00    -0.286 N 
ATOM     13  H   UNL     1      31.487 -22.711 -17.583  0.00  0.00    +0.155 HD
ENDROOT
BRANCH  12  15
ATOM     14 CL   UNL     1      33.391 -24.915 -12.392  0.00  0.00    -0.082 Cl
ATOM     15  C   UNL     1      31.811 -23.717 -15.864  0.00  0.00    +0.052 C 
ATOM     16  C   UNL     1      30.504 -24.197 -15.782  0.00  0.00    +0.029 C 
ATOM     17  C   UNL     1      32.704 -23.938 -14.816  0.00  0.00    +0.026 C 
ATOM     18  C   UNL     1      30.090 -24.901 -14.651  0.00  0.00    +0.044 C 
ATOM     19  C   UNL     1      32.289 -24.642 -13.685  0.00  0.00    +0.060 C 
ATOM     20  C   UNL     1      30.982 -25.123 -13.603  0.00  0.00    +0.026 C 
BRANCH  18  21
ATOM     21  N   UNL     1      28.768 -25.387 -14.568  0.00  0.00    -0.357 N 
ATOM     22  H   UNL     1      28.458 -26.078 -15.197  0.00  0.00    +0.142 HD
ATOM     23  H   UNL     1      28.156 -25.035 -13.882  0.00  0.00    +0.142 HD
ENDBRANCH  18  21
ENDBRANCH  12  15
BRANCH   2  24
ATOM     24  C   UNL     1      35.806 -20.351 -21.069  0.00  0.00    +0.077 C 
ATOM     25  C   UNL     1      36.888 -19.670 -20.229  0.00  0.00    +0.022 C 
ATOM     26  C   UNL     1      35.254 -19.412 -22.145  0.00  0.00    +0.022 C 
ENDBRANCH   2  24
BRANCH   1  27
ATOM     27  CA  UNL     1      36.872 -23.719 -15.330  0.00  0.00    +0.109 C 
BRANCH  27  28
ATOM     28  CB  UNL     1      37.769 -24.978 -15.396  0.00  0.00    +0.021 C 
ATOM     29  CG1 UNL     1      39.022 -24.817 -14.528  0.00  0.00    +0.002 C 
ATOM     30  CG2 UNL     1      37.042 -26.274 -15.027  0.00  0.00    +0.002 C 
ENDBRANCH  27  28
BRANCH  27  31
ATOM     31  C   UNL     1      37.241 -22.793 -14.168  0.00  0.00    +0.157 C 
BRANCH  31  32
ATOM     32  O   UNL     1      36.449 -23.128 -13.031  0.00  0.00    -0.380 OA
ATOM     33  H   UNL     1      36.889 -23.829 -12.526  0.00  0.00    +0.211 HD
ENDBRANCH  31  32
ENDBRANCH  27  31
ENDBRANCH   1  27
TORSDOF 7
ENDMDL
MODEL 6
REMARK VINA RESULT:      -7.8      2.901      6.986
REMARK  Name = 6914609
REMARK  7 active torsions:
REMARK  status: ('A' for Active; 'I' for Inactive)
REMARK    1  A    between atoms: N_1  and  CA_27
REMARK    2  A    between atoms: N_2  and  C_12
REMARK    3  A    between atoms: N_15  and  C_18
REMARK    4  A    between atoms: C_21  and  N_24
REMARK    5  A    between atoms: CA_27  and  CB_28
REMARK    6  A    between atoms: CA_27  and  C_31
REMARK    7  A    between atoms: C_31  and  O_32
REMARK                            x       y       z     vdW  Elec       q    Type
REMARK                         _______ _______ _______ _____ _____    ______ ____
ROOT
ATOM      1  N   UNL     1      35.431 -22.661 -17.205  0.00  0.00    -0.258 N 
ATOM      2  N   UNL     1      37.237 -24.322 -13.138  0.00  0.00    -0.262 N 
ATOM      3  N   UNL     1      36.509 -23.421 -15.273  0.00  0.00    -0.311 NA
ATOM      4  N   UNL     1      34.092 -23.622 -15.541  0.00  0.00    -0.311 NA
ATOM      5  N   UNL     1      35.274 -24.976 -12.309  0.00  0.00    -0.240 NA
ATOM      6  C   UNL     1      36.304 -24.006 -14.083  0.00  0.00    +0.220 C 
ATOM      7  C   ACE A   0      35.342 -23.257 -15.962  0.00  0.00    +0.202 C 
ATOM      8  C   UNL     1      35.094 -24.419 -13.550  0.00  0.00    +0.168 C 
ATOM      9  C   UNL     1      33.958 -24.208 -14.327  0.00  0.00    +0.219 C 
ATOM     10  C   UNL     1      36.571 -24.903 -12.092  0.00  0.00    +0.222 C 
ATOM     11  H   UNL     1      36.320 -22.387 -17.529  0.00  0.00    +0.160 HD
ATOM     12  N   UNL     1      32.689 -24.595 -13.864  0.00  0.00    -0.286 N 
ATOM     13  H   UNL     1      32.704 -25.009 -12.972  0.00  0.00    +0.155 HD
ENDROOT
BRANCH  12  15
ATOM     14 CL   UNL     1      29.379 -22.019 -16.818  0.00  0.00    -0.082 Cl
ATOM     15  C   UNL     1      31.396 -24.508 -14.425  0.00  0.00    +0.052 C 
ATOM     16  C   UNL     1      30.452 -25.497 -14.154  0.00  0.00    +0.029 C 
ATOM     17  C   UNL     1      31.066 -23.432 -15.249  0.00  0.00    +0.026 C 
ATOM     18  C   UNL     1      29.174 -25.411 -14.707  0.00  0.00    +0.044 C 
ATOM     19  C   UNL     1      29.788 -23.346 -15.802  0.00  0.00    +0.060 C 
ATOM     20  C   UNL     1      28.843 -24.336 -15.531  0.00  0.00    +0.026 C 
BRANCH  18  21
ATOM     21  N   UNL     1      28.219 -26.412 -14.434  0.00  0.00    -0.357 N 
ATOM     22  H   UNL     1      27.820 -26.927 -15.172  0.00  0.00    +0.142 HD
ATOM     23  H   UNL     1      27.951 -26.596 -13.504  0.00  0.00    +0.142 HD
ENDBRANCH  18  21
ENDBRANCH  12  15
BRANCH   2  24
ATOM     24  C   UNL     1      38.660 -24.094 -13.218  0.00  0.00    +0.077 C 
ATOM     25  C   UNL     1      39.424 -25.367 -13.586  0.00  0.00    +0.022 C 
ATOM     26  C   UNL     1      39.210 -23.457 -11.939  0.00  0.00    +0.022 C 
ENDBRANCH   2  24
BRANCH   1  27
ATOM     27  CA  UNL     1      34.282 -22.418 -18.060  0.00  0.00    +0.109 C 
BRANCH  27  28
ATOM     28  CB  UNL     1      34.725 -21.799 -19.406  0.00  0.00    +0.021 C 
ATOM     29  CG1 UNL     1      33.703 -20.775 -19.914  0.00  0.00    +0.002 C 
ATOM     30  CG2 UNL     1      36.119 -21.166 -19.366  0.00  0.00    +0.002 C 
ENDBRANCH  27  28
BRANCH  27  31
ATOM     31  C   UNL     1      33.506 -23.725 -18.239  0.00  0.00    +0.157 C 
BRANCH  31  32
ATOM     32  O   UNL     1      33.842 -24.302 -19.498  0.00  0.00    -0.380 OA
ATOM     33  H   UNL     1      34.722 -23.997 -19.769  0.00  0.00    +0.211 HD
ENDBRANCH  31  32
ENDBRANCH  27  31
ENDBRANCH   1  27
TORSDOF 7
ENDMDL
MODEL 7
REMARK VINA RESULT:      -7.7      9.909     14.518
REMARK  Name = 6914609
REMARK  7 active torsions:
REMARK  status: ('A' for Active; 'I' for Inactive)
REMARK    1  A    between atoms: N_1  and  CA_27
REMARK    2  A    between atoms: N_2  and  C_12
REMARK    3  A    between atoms: N_15  and  C_18
REMARK    4  A    between atoms: C_21  and  N_24
REMARK    5  A    between atoms: CA_27  and  CB_28
REMARK    6  A    between atoms: CA_27  and  C_31
REMARK    7  A    between atoms: C_31  and  O_32
REMARK                            x       y       z     vdW  Elec       q    Type
REMARK                         _______ _______ _______ _____ _____    ______ ____
ROOT
ATOM      1  N   UNL     1      33.844 -13.208 -25.178  0.00  0.00    -0.258 N 
ATOM      2  N   UNL     1      33.216 -16.017 -21.398  0.00  0.00    -0.262 N 
ATOM      3  N   UNL     1      33.605 -14.750 -23.434  0.00  0.00    -0.311 NA
ATOM      4  N   UNL     1      33.017 -12.400 -23.141  0.00  0.00    -0.311 NA
ATOM      5  N   UNL     1      32.449 -14.393 -20.078  0.00  0.00    -0.240 NA
ATOM      6  C   UNL     1      33.220 -14.881 -22.155  0.00  0.00    +0.220 C 
ATOM      7  C   ACE A   0      33.475 -13.463 -23.871  0.00  0.00    +0.202 C 
ATOM      8  C   UNL     1      32.742 -13.886 -21.318  0.00  0.00    +0.168 C 
ATOM      9  C   UNL     1      32.647 -12.604 -21.854  0.00  0.00    +0.219 C 
ATOM     10  C   UNL     1      32.744 -15.674 -20.159  0.00  0.00    +0.222 C 
ATOM     11  H   UNL     1      34.179 -13.957 -25.723  0.00  0.00    +0.160 HD
ATOM     12  N   UNL     1      32.173 -11.534 -21.076  0.00  0.00    -0.286 N 
ATOM     13  H   UNL     1      31.932 -11.791 -20.157  0.00  0.00    +0.155 HD
ENDROOT
BRANCH  12  15
ATOM     14 CL   UNL     1      30.610  -7.928 -24.373  0.00  0.00    -0.082 Cl
ATOM     15  C   UNL     1      31.973 -10.164 -21.351  0.00  0.00    +0.052 C 
ATOM     16  C   UNL     1      32.299  -9.207 -20.391  0.00  0.00    +0.029 C 
ATOM     17  C   UNL     1      31.450  -9.770 -22.582  0.00  0.00    +0.026 C 
ATOM     18  C   UNL     1      32.103  -7.852 -20.663  0.00  0.00    +0.044 C 
ATOM     19  C   UNL     1      31.254  -8.415 -22.854  0.00  0.00    +0.060 C 
ATOM     20  C   UNL     1      31.581  -7.457 -21.894  0.00  0.00    +0.026 C 
BRANCH  18  21
ATOM     21  N   UNL     1      32.433  -6.884 -19.692  0.00  0.00    -0.357 N 
ATOM     22  H   UNL     1      32.278  -7.071 -18.737  0.00  0.00    +0.142 HD
ATOM     23  H   UNL     1      32.818  -6.021 -19.968  0.00  0.00    +0.142 HD
ENDBRANCH  18  21
ENDBRANCH  12  15
BRANCH   2  24
ATOM     24  C   UNL     1      33.626 -17.337 -21.817  0.00  0.00    +0.077 C 
ATOM     25  C   UNL     1      33.127 -18.421 -20.861  0.00  0.00    +0.022 C 
ATOM     26  C   UNL     1      35.139 -17.424 -22.029  0.00  0.00    +0.022 C 
ENDBRANCH   2  24
BRANCH   1  27
ATOM     27  CA  UNL     1      33.764 -11.894 -25.790  0.00  0.00    +0.109 C 
BRANCH  27  28
ATOM     28  CB  UNL     1      34.957 -11.013 -25.350  0.00  0.00    +0.021 C 
ATOM     29  CG1 UNL     1      35.721 -10.464 -26.561  0.00  0.00    +0.002 C 
ATOM     30  CG2 UNL     1      34.567  -9.865 -24.416  0.00  0.00    +0.002 C 
ENDBRANCH  27  28
BRANCH  27  31
ATOM     31  C   UNL     1      33.677 -12.054 -27.310  0.00  0.00    +0.157 C 
BRANCH  31  32
ATOM     32  O   UNL     1      33.795 -13.435 -27.643  0.00  0.00    -0.380 OA
ATOM     33  H   UNL     1      33.462 -13.580 -28.542  0.00  0.00    +0.211 HD
ENDBRANCH  31  32
ENDBRANCH  27  31
ENDBRANCH   1  27
TORSDOF 7
ENDMDL
MODEL 8
REMARK VINA RESULT:      -7.6      2.737      5.340
REMARK  Name = 6914609
REMARK  7 active torsions:
REMARK  status: ('A' for Active; 'I' for Inactive)
REMARK    1  A    between atoms: N_1  and  CA_27
REMARK    2  A    between atoms: N_2  and  C_12
REMARK    3  A    between atoms: N_15  and  C_18
REMARK    4  A    between atoms: C_21  and  N_24
REMARK    5  A    between atoms: CA_27  and  CB_28
REMARK    6  A    between atoms: CA_27  and  C_31
REMARK    7  A    between atoms: C_31  and  O_32
REMARK                            x       y       z     vdW  Elec       q    Type
REMARK                         _______ _______ _______ _____ _____    ______ ____
ROOT
ATOM      1  N   UNL     1      35.433 -23.918 -15.760  0.00  0.00    -0.258 N 
ATOM      2  N   UNL     1      35.214 -21.134 -19.603  0.00  0.00    -0.262 N 
ATOM      3  N   UNL     1      35.535 -22.554 -17.658  0.00  0.00    -0.311 NA
ATOM      4  N   UNL     1      33.400 -23.158 -16.642  0.00  0.00    -0.311 NA
ATOM      5  N   UNL     1      32.990 -20.993 -19.611  0.00  0.00    -0.240 NA
ATOM      6  C   UNL     1      34.785 -21.874 -18.539  0.00  0.00    +0.220 C 
ATOM      7  C   ACE A   0      34.766 -23.183 -16.721  0.00  0.00    +0.202 C 
ATOM      8  C   UNL     1      33.403 -21.774 -18.562  0.00  0.00    +0.168 C 
ATOM      9  C   UNL     1      32.706 -22.452 -17.565  0.00  0.00    +0.219 C 
ATOM     10  C   UNL     1      34.101 -20.624 -20.215  0.00  0.00    +0.222 C 
ATOM     11  H   UNL     1      36.416 -23.952 -15.797  0.00  0.00    +0.160 HD
ATOM     12  N   UNL     1      31.302 -22.406 -17.513  0.00  0.00    -0.286 N 
ATOM     13  H   UNL     1      30.898 -21.867 -18.230  0.00  0.00    +0.155 HD
ENDROOT
BRANCH  12  15
ATOM     14 CL   UNL     1      26.559 -22.339 -15.560  0.00  0.00    -0.082 Cl
ATOM     15  C   UNL     1      30.357 -22.980 -16.636  0.00  0.00    +0.052 C 
ATOM     16  C   UNL     1      30.707 -24.086 -15.863  0.00  0.00    +0.029 C 
ATOM     17  C   UNL     1      29.075 -22.439 -16.543  0.00  0.00    +0.026 C 
ATOM     18  C   UNL     1      29.773 -24.654 -14.995  0.00  0.00    +0.044 C 
ATOM     19  C   UNL     1      28.141 -23.006 -15.675  0.00  0.00    +0.060 C 
ATOM     20  C   UNL     1      28.491 -24.113 -14.902  0.00  0.00    +0.026 C 
BRANCH  18  21
ATOM     21  N   UNL     1      30.127 -25.773 -14.214  0.00  0.00    -0.357 N 
ATOM     22  H   UNL     1      29.778 -26.664 -14.444  0.00  0.00    +0.142 HD
ATOM     23  H   UNL     1      30.722 -25.663 -13.437  0.00  0.00    +0.142 HD
ENDBRANCH  18  21
ENDBRANCH  12  15
BRANCH   2  24
ATOM     24  C   UNL     1      36.583 -20.920 -20.011  0.00  0.00    +0.077 C 
ATOM     25  C   UNL     1      36.769 -19.567 -20.698  0.00  0.00    +0.022 C 
ATOM     26  C   UNL     1      37.107 -22.068 -20.876  0.00  0.00    +0.022 C 
ENDBRANCH   2  24
BRANCH   1  27
ATOM     27  CA  UNL     1      34.759 -24.642 -14.696  0.00  0.00    +0.109 C 
BRANCH  27  28
ATOM     28  CB  UNL     1      35.741 -25.597 -13.979  0.00  0.00    +0.021 C 
ATOM     29  CG1 UNL     1      36.718 -26.240 -14.971  0.00  0.00    +0.002 C 
ATOM     30  CG2 UNL     1      36.518 -24.940 -12.835  0.00  0.00    +0.002 C 
ENDBRANCH  27  28
BRANCH  27  31
ATOM     31  C   UNL     1      34.110 -23.637 -13.741  0.00  0.00    +0.157 C 
BRANCH  31  32
ATOM     32  O   UNL     1      32.956 -24.230 -13.150  0.00  0.00    -0.380 OA
ATOM     33  H   UNL     1      32.952 -24.050 -12.197  0.00  0.00    +0.211 HD
ENDBRANCH  31  32
ENDBRANCH  27  31
ENDBRANCH   1  27
TORSDOF 7
ENDMDL
MODEL 9
REMARK VINA RESULT:      -7.6      9.849     14.569
REMARK  Name = 6914609
REMARK  7 active torsions:
REMARK  status: ('A' for Active; 'I' for Inactive)
REMARK    1  A    between atoms: N_1  and  CA_27
REMARK    2  A    between atoms: N_2  and  C_12
REMARK    3  A    between atoms: N_15  and  C_18
REMARK    4  A    between atoms: C_21  and  N_24
REMARK    5  A    between atoms: CA_27  and  CB_28
REMARK    6  A    between atoms: CA_27  and  C_31
REMARK    7  A    between atoms: C_31  and  O_32
REMARK                            x       y       z     vdW  Elec       q    Type
REMARK                         _______ _______ _______ _____ _____    ______ ____
ROOT
ATOM      1  N   UNL     1      33.864 -13.208 -25.165  0.00  0.00    -0.258 N 
ATOM      2  N   UNL     1      33.166 -15.854 -21.281  0.00  0.00    -0.262 N 
ATOM      3  N   UNL     1      33.594 -14.675 -23.362  0.00  0.00    -0.311 NA
ATOM      4  N   UNL     1      32.991 -12.317 -23.183  0.00  0.00    -0.311 NA
ATOM      5  N   UNL     1      32.365 -14.178 -20.049  0.00  0.00    -0.240 NA
ATOM      6  C   UNL     1      33.182 -14.752 -22.087  0.00  0.00    +0.220 C 
ATOM      7  C   ACE A   0      33.468 -13.408 -23.857  0.00  0.00    +0.202 C 
ATOM      8  C   UNL     1      32.683 -13.724 -21.304  0.00  0.00    +0.168 C 
ATOM      9  C   UNL     1      32.594 -12.467 -21.897  0.00  0.00    +0.219 C 
ATOM     10  C   UNL     1      32.666 -15.460 -20.069  0.00  0.00    +0.222 C 
ATOM     11  H   UNL     1      34.213 -13.979 -25.669  0.00  0.00    +0.160 HD
ATOM     12  N   UNL     1      32.099 -11.367 -21.176  0.00  0.00    -0.286 N 
ATOM     13  H   UNL     1      31.839 -11.585 -20.252  0.00  0.00    +0.155 HD
ENDROOT
BRANCH  12  15
ATOM     14 CL   UNL     1      32.473  -6.432 -19.825  0.00  0.00    -0.082 Cl
ATOM     15  C   UNL     1      31.899 -10.011 -21.514  0.00  0.00    +0.052 C 
ATOM     16  C   UNL     1      31.354  -9.676 -22.753  0.00  0.00    +0.029 C 
ATOM     17  C   UNL     1      32.245  -9.009 -20.608  0.00  0.00    +0.026 C 
ATOM     18  C   UNL     1      31.156  -8.336 -23.088  0.00  0.00    +0.044 C 
ATOM     19  C   UNL     1      32.046  -7.669 -20.943  0.00  0.00    +0.060 C 
ATOM     20  C   UNL     1      31.502  -7.333 -22.182  0.00  0.00    +0.026 C 
BRANCH  18  21
ATOM     21  N   UNL     1      30.605  -7.997 -24.341  0.00  0.00    -0.357 N 
ATOM     22  H   UNL     1      31.097  -7.398 -24.949  0.00  0.00    +0.142 HD
ATOM     23  H   UNL     1      29.729  -8.358 -24.608  0.00  0.00    +0.142 HD
ENDBRANCH  18  21
ENDBRANCH  12  15
BRANCH   2  24
ATOM     24  C   UNL     1      33.590 -17.189 -21.634  0.00  0.00    +0.077 C 
ATOM     25  C   UNL     1      32.822 -18.257 -20.855  0.00  0.00    +0.022 C 
ATOM     26  C   UNL     1      35.103 -17.364 -21.488  0.00  0.00    +0.022 C 
ENDBRANCH   2  24
BRANCH   1  27
ATOM     27  CA  UNL     1      33.792 -11.922 -25.835  0.00  0.00    +0.109 C 
BRANCH  27  28
ATOM     28  CB  UNL     1      34.979 -11.023 -25.419  0.00  0.00    +0.021 C 
ATOM     29  CG1 UNL     1      35.727 -10.484 -26.644  0.00  0.00    +0.002 C 
ATOM     30  CG2 UNL     1      34.585  -9.864 -24.499  0.00  0.00    +0.002 C 
ENDBRANCH  27  28
BRANCH  27  31
ATOM     31  C   UNL     1      33.724 -12.149 -27.347  0.00  0.00    +0.157 C 
BRANCH  31  32
ATOM     32  O   UNL     1      33.802 -13.546 -27.616  0.00  0.00    -0.380 OA
ATOM     33  H   UNL     1      33.484 -14.042 -26.846  0.00  0.00    +0.211 HD
ENDBRANCH  31  32
ENDBRANCH  27  31
ENDBRANCH   1  27
TORSDOF 7
ENDMDL
