MODEL 1
REMARK VINA RESULT:      -9.5      0.000      0.000
REMARK  Name = 46937090
REMARK  7 active torsions:
REMARK  status: ('A' for Active; 'I' for Inactive)
REMARK    1  A    between atoms: N_3  and  C_32
REMARK    2  A    between atoms: C_7  and  C_14
REMARK    3  A    between atoms: C_8  and  C_31
REMARK    4  A    between atoms: C_19  and  C_20
REMARK    5  A    between atoms: C_20  and  N_21
REMARK    6  A    between atoms: C_20  and  N_25
REMARK    7  A    between atoms: C_32  and  C_34
REMARK                            x       y       z     vdW  Elec       q    Type
REMARK                         _______ _______ _______ _____ _____    ______ ____
ROOT
ATOM      1  O   UNL     1      36.195 -22.242 -16.825  0.00  0.00    -0.275 OA
ATOM      2  N   UNL     1      32.495 -22.569 -16.503  0.00  0.00    +0.392 N 
ATOM      3  N   UNL     1      35.710 -23.613 -14.982  0.00  0.00    -0.272 N 
ATOM      4  C   UNL     1      33.694 -24.525 -15.706  0.00  0.00    +0.012 C 
ATOM      5  C   UNL     1      32.646 -23.462 -15.328  0.00  0.00    -0.055 C 
ATOM      6  C   UNL     1      34.408 -23.912 -16.914  0.00  0.00    +0.062 C 
ATOM      7  C   UNL     1      33.292 -23.139 -17.611  0.00  0.00    -0.026 C 
ATOM      8  C   UNL     1      34.798 -24.697 -14.661  0.00  0.00    +0.141 C 
ATOM      9  C   UNL     1      31.265 -24.040 -15.026  0.00  0.00    -0.023 C 
ATOM     10  C   UNL     1      31.059 -22.494 -16.809  0.00  0.00    -0.077 C 
ATOM     11  C   UNL     1      35.543 -23.116 -16.276  0.00  0.00    +0.224 C 
ATOM     12  C   UNL     1      30.472 -23.794 -16.294  0.00  0.00    -0.025 C 
ATOM     13  H   UNL     1      32.836 -21.623 -16.336  0.00  0.00    -0.079 HD
ENDROOT
BRANCH   7  14
ATOM     14  C   UNL     1      33.773 -22.146 -18.650  0.00  0.00    -0.041 C 
ATOM     15  C   UNL     1      32.874 -21.245 -19.222  0.00  0.00    -0.007 C 
ATOM     16  C   UNL     1      35.114 -22.133 -19.035  0.00  0.00    -0.007 C 
ATOM     17  C   UNL     1      33.316 -20.331 -20.178  0.00  0.00    -0.009 C 
ATOM     18  C   UNL     1      35.555 -21.219 -19.991  0.00  0.00    -0.009 C 
ATOM     19  C   UNL     1      34.657 -20.318 -20.563  0.00  0.00    -0.062 C 
BRANCH  19  20
ATOM     20  C   UNL     1      35.130 -19.338 -21.583  0.00  0.00    -0.114 C 
BRANCH  20  21
ATOM     21  N   UNL     1      35.508 -18.043 -20.992  0.00  0.00    +0.373 N 
ATOM     22  H   UNL     1      36.188 -17.580 -21.596  0.00  0.00    -0.092 HD
ATOM     23  H   UNL     1      35.919 -18.196 -20.071  0.00  0.00    -0.092 HD
ATOM     24  H   UNL     1      34.679 -17.455 -20.902  0.00  0.00    -0.092 HD
ENDBRANCH  20  21
BRANCH  20  25
ATOM     25  N   UNL     1      34.142 -19.097 -22.648  0.00  0.00    +0.373 N 
ATOM     26  H   UNL     1      34.626 -18.825 -23.504  0.00  0.00    -0.092 HD
ATOM     27  H   UNL     1      33.510 -18.349 -22.362  0.00  0.00    -0.092 HD
ATOM     28  H   UNL     1      33.608 -19.949 -22.815  0.00  0.00    -0.092 HD
ENDBRANCH  20  25
ENDBRANCH  19  20
ENDBRANCH   7  14
BRANCH   8  31
ATOM     29  F   UNL     1      36.115 -26.326 -13.618  0.00  0.00    -0.197 F 
ATOM     30  F   UNL     1      36.418 -25.989 -15.747  0.00  0.00    -0.197 F 
ATOM     31  C   UNL     1      35.482 -26.056 -14.779  0.00  0.00    +0.336 C 
ENDBRANCH   8  31
BRANCH   3  32
ATOM     32  C   UNL     1      36.703 -23.145 -14.036  0.00  0.00    +0.120 C 
BRANCH  32  34
ATOM     33  F   UNL     1      41.267 -26.439 -13.963  0.00  0.00    -0.204 F 
ATOM     34  C   UNL     1      37.920 -24.023 -14.017  0.00  0.00    -0.002 C 
ATOM     35  C   UNL     1      38.697 -24.163 -15.167  0.00  0.00    -0.000 C 
ATOM     36  C   UNL     1      38.274 -24.699 -12.849  0.00  0.00    -0.000 C 
ATOM     37  C   UNL     1      39.828 -24.980 -15.149  0.00  0.00    +0.029 C 
ATOM     38  C   UNL     1      39.404 -25.516 -12.831  0.00  0.00    +0.029 C 
ATOM     39  C   UNL     1      40.181 -25.655 -13.981  0.00  0.00    +0.140 C 
ENDBRANCH  32  34
ENDBRANCH   3  32
TORSDOF 7
ENDMDL
MODEL 2
REMARK VINA RESULT:      -9.0     12.823     16.482
REMARK  Name = 46937090
REMARK  7 active torsions:
REMARK  status: ('A' for Active; 'I' for Inactive)
REMARK    1  A    between atoms: N_3  and  C_32
REMARK    2  A    between atoms: C_7  and  C_14
REMARK    3  A    between atoms: C_8  and  C_31
REMARK    4  A    between atoms: C_19  and  C_20
REMARK    5  A    between atoms: C_20  and  N_21
REMARK    6  A    between atoms: C_20  and  N_25
REMARK    7  A    between atoms: C_32  and  C_34
REMARK                            x       y       z     vdW  Elec       q    Type
REMARK                         _______ _______ _______ _____ _____    ______ ____
ROOT
ATOM      1  O   UNL     1      33.817  -9.261 -24.907  0.00  0.00    -0.275 OA
ATOM      2  N   UNL     1      33.015  -7.265 -21.861  0.00  0.00    +0.392 N 
ATOM      3  N   UNL     1      33.344 -10.729 -23.137  0.00  0.00    -0.272 N 
ATOM      4  C   UNL     1      31.863  -9.402 -21.926  0.00  0.00    +0.012 C 
ATOM      5  C   UNL     1      32.778  -8.502 -21.077  0.00  0.00    -0.055 C 
ATOM      6  C   UNL     1      31.993  -8.818 -23.335  0.00  0.00    +0.062 C 
ATOM      7  C   UNL     1      32.164  -7.325 -23.070  0.00  0.00    -0.026 C 
ATOM      8  C   UNL     1      32.371 -10.838 -22.063  0.00  0.00    +0.141 C 
ATOM      9  C   UNL     1      32.159  -8.075 -19.747  0.00  0.00    -0.023 C 
ATOM     10  C   UNL     1      32.690  -6.128 -20.988  0.00  0.00    -0.077 C 
ATOM     11  C   UNL     1      33.177  -9.585 -23.918  0.00  0.00    +0.224 C 
ATOM     12  C   UNL     1      31.671  -6.662 -19.999  0.00  0.00    -0.025 C 
ATOM     13  H   UNL     1      33.981  -7.164 -22.171  0.00  0.00    -0.079 HD
ENDROOT
BRANCH   7  14
ATOM     14  C   UNL     1      32.661  -6.530 -24.261  0.00  0.00    -0.041 C 
ATOM     15  C   UNL     1      31.775  -5.730 -24.983  0.00  0.00    -0.007 C 
ATOM     16  C   UNL     1      34.003  -6.600 -24.635  0.00  0.00    -0.007 C 
ATOM     17  C   UNL     1      32.233  -4.999 -26.080  0.00  0.00    -0.009 C 
ATOM     18  C   UNL     1      34.459  -5.869 -25.732  0.00  0.00    -0.009 C 
ATOM     19  C   UNL     1      33.575  -5.068 -26.454  0.00  0.00    -0.062 C 
BRANCH  19  20
ATOM     20  C   UNL     1      34.063  -4.283 -27.624  0.00  0.00    -0.114 C 
BRANCH  20  21
ATOM     21  N   UNL     1      33.240  -4.490 -28.828  0.00  0.00    +0.373 N 
ATOM     22  H   UNL     1      32.439  -5.077 -28.596  0.00  0.00    -0.092 HD
ATOM     23  H   UNL     1      33.799  -4.947 -29.548  0.00  0.00    -0.092 HD
ATOM     24  H   UNL     1      32.911  -3.588 -29.174  0.00  0.00    -0.092 HD
ENDBRANCH  20  21
BRANCH  20  25
ATOM     25  N   UNL     1      35.467  -4.570 -27.961  0.00  0.00    +0.373 N 
ATOM     26  H   UNL     1      35.524  -5.471 -28.437  0.00  0.00    -0.092 HD
ATOM     27  H   UNL     1      36.022  -4.602 -27.106  0.00  0.00    -0.092 HD
ATOM     28  H   UNL     1      35.825  -3.839 -28.574  0.00  0.00    -0.092 HD
ENDBRANCH  20  25
ENDBRANCH  19  20
ENDBRANCH   7  14
BRANCH   8  31
ATOM     29  F   UNL     1      30.114 -11.401 -21.813  0.00  0.00    -0.197 F 
ATOM     30  F   UNL     1      31.554 -13.028 -21.944  0.00  0.00    -0.197 F 
ATOM     31  C   UNL     1      31.247 -11.805 -22.424  0.00  0.00    +0.336 C 
ENDBRANCH   8  31
BRANCH   3  32
ATOM     32  C   UNL     1      34.351 -11.746 -23.361  0.00  0.00    +0.120 C 
BRANCH  32  34
ATOM     33  F   UNL     1      32.517 -15.811 -26.798  0.00  0.00    -0.204 F 
ATOM     34  C   UNL     1      33.862 -12.830 -24.277  0.00  0.00    -0.002 C 
ATOM     35  C   UNL     1      33.812 -14.151 -23.831  0.00  0.00    -0.000 C 
ATOM     36  C   UNL     1      33.458 -12.517 -25.575  0.00  0.00    -0.000 C 
ATOM     37  C   UNL     1      33.358 -15.158 -24.682  0.00  0.00    +0.029 C 
ATOM     38  C   UNL     1      33.004 -13.524 -26.427  0.00  0.00    +0.029 C 
ATOM     39  C   UNL     1      32.954 -14.845 -25.980  0.00  0.00    +0.140 C 
ENDBRANCH  32  34
ENDBRANCH   3  32
TORSDOF 7
ENDMDL
MODEL 3
REMARK VINA RESULT:      -8.9      2.981      6.508
REMARK  Name = 46937090
REMARK  7 active torsions:
REMARK  status: ('A' for Active; 'I' for Inactive)
REMARK    1  A    between atoms: N_3  and  C_32
REMARK    2  A    between atoms: C_7  and  C_14
REMARK    3  A    between atoms: C_8  and  C_31
REMARK    4  A    between atoms: C_19  and  C_20
REMARK    5  A    between atoms: C_20  and  N_21
REMARK    6  A    between atoms: C_20  and  N_25
REMARK    7  A    between atoms: C_32  and  C_34
REMARK                            x       y       z     vdW  Elec       q    Type
REMARK                         _______ _______ _______ _____ _____    ______ ____
ROOT
ATOM      1  O   UNL     1      32.548 -23.172 -17.028  0.00  0.00    -0.275 OA
ATOM      2  N   UNL     1      35.701 -24.422 -15.480  0.00  0.00    +0.392 N 
ATOM      3  N   UNL     1      32.019 -24.341 -15.062  0.00  0.00    -0.272 N 
ATOM      4  C   UNL     1      33.966 -23.945 -13.848  0.00  0.00    +0.012 C 
ATOM      5  C   UNL     1      34.945 -25.021 -14.353  0.00  0.00    -0.055 C 
ATOM      6  C   UNL     1      33.906 -22.944 -15.004  0.00  0.00    +0.062 C 
ATOM      7  C   UNL     1      35.323 -22.995 -15.572  0.00  0.00    -0.026 C 
ATOM      8  C   UNL     1      32.528 -24.445 -13.704  0.00  0.00    +0.141 C 
ATOM      9  C   UNL     1      35.972 -25.457 -13.308  0.00  0.00    -0.023 C 
ATOM     10  C   UNL     1      37.130 -24.618 -15.197  0.00  0.00    -0.077 C 
ATOM     11  C   UNL     1      32.768 -23.481 -15.867  0.00  0.00    +0.224 C 
ATOM     12  C   UNL     1      37.231 -24.702 -13.686  0.00  0.00    -0.025 C 
ATOM     13  H   UNL     1      35.491 -24.853 -16.379  0.00  0.00    -0.079 HD
ENDROOT
BRANCH   7  14
ATOM     14  C   UNL     1      35.471 -22.364 -16.942  0.00  0.00    -0.041 C 
ATOM     15  C   UNL     1      34.475 -22.543 -17.902  0.00  0.00    -0.007 C 
ATOM     16  C   UNL     1      36.604 -21.608 -17.242  0.00  0.00    -0.007 C 
ATOM     17  C   UNL     1      34.612 -21.963 -19.163  0.00  0.00    -0.009 C 
ATOM     18  C   UNL     1      36.740 -21.029 -18.504  0.00  0.00    -0.009 C 
ATOM     19  C   UNL     1      35.744 -21.205 -19.465  0.00  0.00    -0.062 C 
BRANCH  19  20
ATOM     20  C   UNL     1      35.888 -20.583 -20.812  0.00  0.00    -0.114 C 
BRANCH  20  21
ATOM     21  N   UNL     1      36.897 -19.511 -20.836  0.00  0.00    +0.373 N 
ATOM     22  H   UNL     1      37.827 -19.917 -20.731  0.00  0.00    -0.092 HD
ATOM     23  H   UNL     1      36.721 -18.861 -20.070  0.00  0.00    -0.092 HD
ATOM     24  H   UNL     1      36.842 -19.012 -21.725  0.00  0.00    -0.092 HD
ENDBRANCH  20  21
BRANCH  20  25
ATOM     25  N   UNL     1      34.620 -20.046 -21.334  0.00  0.00    +0.373 N 
ATOM     26  H   UNL     1      34.779 -19.636 -22.255  0.00  0.00    -0.092 HD
ATOM     27  H   UNL     1      34.268 -19.329 -20.699  0.00  0.00    -0.092 HD
ATOM     28  H   UNL     1      33.938 -20.800 -21.410  0.00  0.00    -0.092 HD
ENDBRANCH  20  25
ENDBRANCH  19  20
ENDBRANCH   7  14
BRANCH   8  31
ATOM     29  F   UNL     1      30.506 -24.139 -12.566  0.00  0.00    -0.197 F 
ATOM     30  F   UNL     1      31.536 -22.365 -13.294  0.00  0.00    -0.197 F 
ATOM     31  C   UNL     1      31.722 -23.580 -12.739  0.00  0.00    +0.336 C 
ENDBRANCH   8  31
BRANCH   3  32
ATOM     32  C   UNL     1      30.831 -25.052 -15.488  0.00  0.00    +0.120 C 
BRANCH  32  34
ATOM     33  F   UNL     1      26.663 -21.538 -16.895  0.00  0.00    -0.204 F 
ATOM     34  C   UNL     1      29.719 -24.115 -15.863  0.00  0.00    -0.002 C 
ATOM     35  C   UNL     1      28.886 -24.417 -16.941  0.00  0.00    -0.000 C 
ATOM     36  C   UNL     1      29.520 -22.942 -15.136  0.00  0.00    -0.000 C 
ATOM     37  C   UNL     1      27.854 -23.547 -17.290  0.00  0.00    +0.029 C 
ATOM     38  C   UNL     1      28.488 -22.071 -15.484  0.00  0.00    +0.029 C 
ATOM     39  C   UNL     1      27.654 -22.374 -16.561  0.00  0.00    +0.140 C 
ENDBRANCH  32  34
ENDBRANCH   3  32
TORSDOF 7
ENDMDL
MODEL 4
REMARK VINA RESULT:      -8.4      2.464      5.935
REMARK  Name = 46937090
REMARK  7 active torsions:
REMARK  status: ('A' for Active; 'I' for Inactive)
REMARK    1  A    between atoms: N_3  and  C_32
REMARK    2  A    between atoms: C_7  and  C_14
REMARK    3  A    between atoms: C_8  and  C_31
REMARK    4  A    between atoms: C_19  and  C_20
REMARK    5  A    between atoms: C_20  and  N_21
REMARK    6  A    between atoms: C_20  and  N_25
REMARK    7  A    between atoms: C_32  and  C_34
REMARK                            x       y       z     vdW  Elec       q    Type
REMARK                         _______ _______ _______ _____ _____    ______ ____
ROOT
ATOM      1  O   UNL     1      34.101 -23.222 -15.231  0.00  0.00    -0.275 OA
ATOM      2  N   UNL     1      37.553 -24.629 -15.323  0.00  0.00    +0.392 N 
ATOM      3  N   UNL     1      34.491 -24.412 -13.245  0.00  0.00    -0.272 N 
ATOM      4  C   UNL     1      36.795 -24.120 -13.073  0.00  0.00    +0.012 C 
ATOM      5  C   UNL     1      37.379 -25.223 -13.975  0.00  0.00    -0.055 C 
ATOM      6  C   UNL     1      36.252 -23.092 -14.068  0.00  0.00    +0.062 C 
ATOM      7  C   UNL     1      37.240 -23.186 -15.228  0.00  0.00    -0.026 C 
ATOM      8  C   UNL     1      35.566 -24.565 -12.279  0.00  0.00    +0.141 C 
ATOM      9  C   UNL     1      38.752 -25.721 -13.527  0.00  0.00    -0.023 C 
ATOM     10  C   UNL     1      38.940 -24.888 -15.737  0.00  0.00    -0.077 C 
ATOM     11  C   UNL     1      34.820 -23.565 -14.305  0.00  0.00    +0.224 C 
ATOM     12  C   UNL     1      39.726 -25.009 -14.445  0.00  0.00    -0.025 C 
ATOM     13  H   UNL     1      36.931 -25.031 -16.023  0.00  0.00    -0.079 HD
ENDROOT
BRANCH   7  14
ATOM     14  C   UNL     1      36.765 -22.533 -16.510  0.00  0.00    -0.041 C 
ATOM     15  C   UNL     1      37.461 -21.443 -17.035  0.00  0.00    -0.007 C 
ATOM     16  C   UNL     1      35.633 -23.019 -17.163  0.00  0.00    -0.007 C 
ATOM     17  C   UNL     1      37.024 -20.841 -18.215  0.00  0.00    -0.009 C 
ATOM     18  C   UNL     1      35.197 -22.416 -18.342  0.00  0.00    -0.009 C 
ATOM     19  C   UNL     1      35.892 -21.327 -18.869  0.00  0.00    -0.062 C 
BRANCH  19  20
ATOM     20  C   UNL     1      35.428 -20.685 -20.132  0.00  0.00    -0.114 C 
BRANCH  20  21
ATOM     21  N   UNL     1      36.099 -19.401 -20.395  0.00  0.00    +0.373 N 
ATOM     22  H   UNL     1      35.966 -18.778 -19.598  0.00  0.00    -0.092 HD
ATOM     23  H   UNL     1      35.700 -18.973 -21.231  0.00  0.00    -0.092 HD
ATOM     24  H   UNL     1      37.096 -19.561 -20.538  0.00  0.00    -0.092 HD
ENDBRANCH  20  21
BRANCH  20  25
ATOM     25  N   UNL     1      33.972 -20.468 -20.164  0.00  0.00    +0.373 N 
ATOM     26  H   UNL     1      33.556 -20.829 -19.304  0.00  0.00    -0.092 HD
ATOM     27  H   UNL     1      33.573 -20.956 -20.966  0.00  0.00    -0.092 HD
ATOM     28  H   UNL     1      33.779 -19.470 -20.241  0.00  0.00    -0.092 HD
ENDBRANCH  20  25
ENDBRANCH  19  20
ENDBRANCH   7  14
BRANCH   8  31
ATOM     29  F   UNL     1      36.418 -22.900 -10.873  0.00  0.00    -0.197 F 
ATOM     30  F   UNL     1      35.234 -24.485  -9.964  0.00  0.00    -0.197 F 
ATOM     31  C   UNL     1      35.339 -23.691 -11.048  0.00  0.00    +0.336 C 
ENDBRANCH   8  31
BRANCH   3  32
ATOM     32  C   UNL     1      33.210 -25.065 -13.073  0.00  0.00    +0.120 C 
BRANCH  32  34
ATOM     33  F   UNL     1      29.097 -22.411 -15.853  0.00  0.00    -0.204 F 
ATOM     34  C   UNL     1      32.113 -24.358 -13.814  0.00  0.00    -0.002 C 
ATOM     35  C   UNL     1      31.752 -23.060 -13.453  0.00  0.00    -0.000 C 
ATOM     36  C   UNL     1      31.455 -24.998 -14.864  0.00  0.00    -0.000 C 
ATOM     37  C   UNL     1      30.733 -22.402 -14.141  0.00  0.00    +0.029 C 
ATOM     38  C   UNL     1      30.435 -24.341 -15.553  0.00  0.00    +0.029 C 
ATOM     39  C   UNL     1      30.075 -23.042 -15.191  0.00  0.00    +0.140 C 
ENDBRANCH  32  34
ENDBRANCH   3  32
TORSDOF 7
ENDMDL
MODEL 5
REMARK VINA RESULT:      -8.3     13.750     17.283
REMARK  Name = 46937090
REMARK  7 active torsions:
REMARK  status: ('A' for Active; 'I' for Inactive)
REMARK    1  A    between atoms: N_3  and  C_32
REMARK    2  A    between atoms: C_7  and  C_14
REMARK    3  A    between atoms: C_8  and  C_31
REMARK    4  A    between atoms: C_19  and  C_20
REMARK    5  A    between atoms: C_20  and  N_21
REMARK    6  A    between atoms: C_20  and  N_25
REMARK    7  A    between atoms: C_32  and  C_34
REMARK                            x       y       z     vdW  Elec       q    Type
REMARK                         _______ _______ _______ _____ _____    ______ ____
ROOT
ATOM      1  O   UNL     1      31.932  -9.234 -24.453  0.00  0.00    -0.275 OA
ATOM      2  N   UNL     1      31.369 -10.974 -21.203  0.00  0.00    +0.392 N 
ATOM      3  N   UNL     1      31.328  -7.645 -22.833  0.00  0.00    -0.272 N 
ATOM      4  C   UNL     1      32.171  -8.697 -20.935  0.00  0.00    +0.012 C 
ATOM      5  C   UNL     1      31.061  -9.687 -20.533  0.00  0.00    -0.055 C 
ATOM      6  C   UNL     1      32.803  -9.348 -22.167  0.00  0.00    +0.062 C 
ATOM      7  C   UNL     1      32.686 -10.839 -21.862  0.00  0.00    -0.026 C 
ATOM      8  C   UNL     1      31.641  -7.356 -21.444  0.00  0.00    +0.141 C 
ATOM      9  C   UNL     1      31.001  -9.968 -19.033  0.00  0.00    -0.023 C 
ATOM     10  C   UNL     1      31.351 -12.018 -20.168  0.00  0.00    -0.077 C 
ATOM     11  C   UNL     1      31.975  -8.783 -23.318  0.00  0.00    +0.224 C 
ATOM     12  C   UNL     1      31.699 -11.305 -18.875  0.00  0.00    -0.025 C 
ATOM     13  H   UNL     1      30.691 -11.225 -21.922  0.00  0.00    -0.079 HD
ENDROOT
BRANCH   7  14
ATOM     14  C   UNL     1      32.917 -11.743 -23.057  0.00  0.00    -0.041 C 
ATOM     15  C   UNL     1      32.297 -12.991 -23.116  0.00  0.00    -0.007 C 
ATOM     16  C   UNL     1      33.748 -11.326 -24.097  0.00  0.00    -0.007 C 
ATOM     17  C   UNL     1      32.509 -13.823 -24.216  0.00  0.00    -0.009 C 
ATOM     18  C   UNL     1      33.960 -12.158 -25.195  0.00  0.00    -0.009 C 
ATOM     19  C   UNL     1      33.340 -13.407 -25.256  0.00  0.00    -0.062 C 
BRANCH  19  20
ATOM     20  C   UNL     1      33.564 -14.295 -26.432  0.00  0.00    -0.114 C 
BRANCH  20  21
ATOM     21  N   UNL     1      33.673 -13.546 -27.696  0.00  0.00    +0.373 N 
ATOM     22  H   UNL     1      34.011 -14.167 -28.431  0.00  0.00    -0.092 HD
ATOM     23  H   UNL     1      34.328 -12.772 -27.577  0.00  0.00    -0.092 HD
ATOM     24  H   UNL     1      32.757 -13.180 -27.954  0.00  0.00    -0.092 HD
ENDBRANCH  20  21
BRANCH  20  25
ATOM     25  N   UNL     1      32.518 -15.320 -26.584  0.00  0.00    +0.373 N 
ATOM     26  H   UNL     1      32.667 -16.061 -25.899  0.00  0.00    -0.092 HD
ATOM     27  H   UNL     1      32.560 -15.712 -27.524  0.00  0.00    -0.092 HD
ATOM     28  H   UNL     1      31.603 -14.896 -26.432  0.00  0.00    -0.092 HD
ENDBRANCH  20  25
ENDBRANCH  19  20
ENDBRANCH   7  14
BRANCH   8  31
ATOM     29  F   UNL     1      33.101  -6.181 -20.043  0.00  0.00    -0.197 F 
ATOM     30  F   UNL     1      32.113  -5.072 -21.634  0.00  0.00    -0.197 F 
ATOM     31  C   UNL     1      32.688  -6.252 -21.325  0.00  0.00    +0.336 C 
ENDBRANCH   8  31
BRANCH   3  32
ATOM     32  C   UNL     1      30.453  -6.793 -23.612  0.00  0.00    +0.120 C 
BRANCH  32  34
ATOM     33  F   UNL     1      33.331  -3.044 -26.671  0.00  0.00    -0.204 F 
ATOM     34  C   UNL     1      31.220  -5.794 -24.428  0.00  0.00    -0.002 C 
ATOM     35  C   UNL     1      30.708  -4.510 -24.620  0.00  0.00    -0.000 C 
ATOM     36  C   UNL     1      32.445  -6.148 -24.993  0.00  0.00    -0.000 C 
ATOM     37  C   UNL     1      31.421  -3.581 -25.378  0.00  0.00    +0.029 C 
ATOM     38  C   UNL     1      33.158  -5.219 -25.752  0.00  0.00    +0.029 C 
ATOM     39  C   UNL     1      32.646  -3.936 -25.943  0.00  0.00    +0.140 C 
ENDBRANCH  32  34
ENDBRANCH   3  32
TORSDOF 7
ENDMDL
MODEL 6
REMARK VINA RESULT:      -8.2      1.567      2.524
REMARK  Name = 46937090
REMARK  7 active torsions:
REMARK  status: ('A' for Active; 'I' for Inactive)
REMARK    1  A    between atoms: N_3  and  C_32
REMARK    2  A    between atoms: C_7  and  C_14
REMARK    3  A    between atoms: C_8  and  C_31
REMARK    4  A    between atoms: C_19  and  C_20
REMARK    5  A    between atoms: C_20  and  N_21
REMARK    6  A    between atoms: C_20  and  N_25
REMARK    7  A    between atoms: C_32  and  C_34
REMARK                            x       y       z     vdW  Elec       q    Type
REMARK                         _______ _______ _______ _____ _____    ______ ____
ROOT
ATOM      1  O   UNL     1      36.178 -21.829 -17.305  0.00  0.00    -0.275 OA
ATOM      2  N   UNL     1      32.539 -22.503 -16.850  0.00  0.00    +0.392 N 
ATOM      3  N   UNL     1      35.899 -23.326 -15.518  0.00  0.00    -0.272 N 
ATOM      4  C   UNL     1      33.940 -24.380 -16.206  0.00  0.00    +0.012 C 
ATOM      5  C   UNL     1      32.821 -23.434 -15.730  0.00  0.00    -0.055 C 
ATOM      6  C   UNL     1      34.541 -23.647 -17.408  0.00  0.00    +0.062 C 
ATOM      7  C   UNL     1      33.331 -22.944 -18.018  0.00  0.00    -0.026 C 
ATOM      8  C   UNL     1      35.100 -24.502 -15.217  0.00  0.00    +0.141 C 
ATOM      9  C   UNL     1      31.510 -24.149 -15.403  0.00  0.00    -0.023 C 
ATOM     10  C   UNL     1      31.090 -22.542 -17.093  0.00  0.00    -0.077 C 
ATOM     11  C   UNL     1      35.630 -22.784 -16.776  0.00  0.00    +0.224 C 
ATOM     12  C   UNL     1      30.642 -23.914 -16.624  0.00  0.00    -0.025 C 
ATOM     13  H   UNL     1      32.803 -21.539 -16.647  0.00  0.00    -0.079 HD
ENDROOT
BRANCH   7  14
ATOM     14  C   UNL     1      33.676 -21.862 -19.022  0.00  0.00    -0.041 C 
ATOM     15  C   UNL     1      34.972 -21.771 -19.530  0.00  0.00    -0.007 C 
ATOM     16  C   UNL     1      32.698 -20.959 -19.438  0.00  0.00    -0.007 C 
ATOM     17  C   UNL     1      35.290 -20.775 -20.454  0.00  0.00    -0.009 C 
ATOM     18  C   UNL     1      33.017 -19.963 -20.361  0.00  0.00    -0.009 C 
ATOM     19  C   UNL     1      34.312 -19.872 -20.870  0.00  0.00    -0.062 C 
BRANCH  19  20
ATOM     20  C   UNL     1      34.652 -18.810 -21.860  0.00  0.00    -0.114 C 
BRANCH  20  21
ATOM     21  N   UNL     1      34.573 -19.286 -23.252  0.00  0.00    +0.373 N 
ATOM     22  H   UNL     1      33.622 -19.598 -23.451  0.00  0.00    -0.092 HD
ATOM     23  H   UNL     1      35.220 -20.064 -23.382  0.00  0.00    -0.092 HD
ATOM     24  H   UNL     1      34.821 -18.527 -23.886  0.00  0.00    -0.092 HD
ENDBRANCH  20  21
BRANCH  20  25
ATOM     25  N   UNL     1      35.985 -18.225 -21.640  0.00  0.00    +0.373 N 
ATOM     26  H   UNL     1      36.491 -18.191 -22.526  0.00  0.00    -0.092 HD
ATOM     27  H   UNL     1      36.503 -18.800 -20.975  0.00  0.00    -0.092 HD
ATOM     28  H   UNL     1      35.885 -17.281 -21.269  0.00  0.00    -0.092 HD
ENDBRANCH  20  25
ENDBRANCH  19  20
ENDBRANCH   7  14
BRANCH   8  31
ATOM     29  F   UNL     1      35.835 -26.530 -14.310  0.00  0.00    -0.197 F 
ATOM     30  F   UNL     1      37.189 -25.468 -15.643  0.00  0.00    -0.197 F 
ATOM     31  C   UNL     1      35.895 -25.787 -15.434  0.00  0.00    +0.336 C 
ENDBRANCH   8  31
BRANCH   3  32
ATOM     32  C   UNL     1      36.888 -22.817 -14.590  0.00  0.00    +0.120 C 
BRANCH  32  34
ATOM     33  F   UNL     1      35.804 -24.371  -9.289  0.00  0.00    -0.204 F 
ATOM     34  C   UNL     1      36.599 -23.231 -13.177  0.00  0.00    -0.002 C 
ATOM     35  C   UNL     1      35.300 -23.575 -12.803  0.00  0.00    -0.000 C 
ATOM     36  C   UNL     1      37.628 -23.272 -12.237  0.00  0.00    -0.000 C 
ATOM     37  C   UNL     1      35.030 -23.960 -11.489  0.00  0.00    +0.029 C 
ATOM     38  C   UNL     1      37.360 -23.657 -10.923  0.00  0.00    +0.029 C 
ATOM     39  C   UNL     1      36.061 -24.001 -10.550  0.00  0.00    +0.140 C 
ENDBRANCH  32  34
ENDBRANCH   3  32
TORSDOF 7
ENDMDL
MODEL 7
REMARK VINA RESULT:      -7.7     10.380     14.142
REMARK  Name = 46937090
REMARK  7 active torsions:
REMARK  status: ('A' for Active; 'I' for Inactive)
REMARK    1  A    between atoms: N_3  and  C_32
REMARK    2  A    between atoms: C_7  and  C_14
REMARK    3  A    between atoms: C_8  and  C_31
REMARK    4  A    between atoms: C_19  and  C_20
REMARK    5  A    between atoms: C_20  and  N_21
REMARK    6  A    between atoms: C_20  and  N_25
REMARK    7  A    between atoms: C_32  and  C_34
REMARK                            x       y       z     vdW  Elec       q    Type
REMARK                         _______ _______ _______ _____ _____    ______ ____
ROOT
ATOM      1  O   UNL     1      33.560 -10.411 -24.139  0.00  0.00    -0.275 OA
ATOM      2  N   UNL     1      32.345  -9.492 -20.735  0.00  0.00    +0.392 N 
ATOM      3  N   UNL     1      33.377 -12.361 -22.844  0.00  0.00    -0.272 N 
ATOM      4  C   UNL     1      31.648 -11.714 -21.425  0.00  0.00    +0.012 C 
ATOM      5  C   UNL     1      32.356 -10.915 -20.315  0.00  0.00    -0.055 C 
ATOM      6  C   UNL     1      31.670 -10.762 -22.623  0.00  0.00    +0.062 C 
ATOM      7  C   UNL     1      31.535  -9.389 -21.969  0.00  0.00    -0.026 C 
ATOM      8  C   UNL     1      32.436 -12.937 -21.897  0.00  0.00    +0.141 C 
ATOM      9  C   UNL     1      31.651 -10.985 -18.961  0.00  0.00    -0.023 C 
ATOM     10  C   UNL     1      31.790  -8.713 -19.619  0.00  0.00    -0.077 C 
ATOM     11  C   UNL     1      32.989 -11.103 -23.310  0.00  0.00    +0.224 C 
ATOM     12  C   UNL     1      30.891  -9.677 -18.867  0.00  0.00    -0.025 C 
ATOM     13  H   UNL     1      33.273  -9.129 -20.948  0.00  0.00    -0.079 HD
ENDROOT
BRANCH   7  14
ATOM     14  C   UNL     1      31.872  -8.226 -22.879  0.00  0.00    -0.041 C 
ATOM     15  C   UNL     1      30.907  -7.720 -23.750  0.00  0.00    -0.007 C 
ATOM     16  C   UNL     1      33.148  -7.662 -22.847  0.00  0.00    -0.007 C 
ATOM     17  C   UNL     1      31.217  -6.649 -24.588  0.00  0.00    -0.009 C 
ATOM     18  C   UNL     1      33.457  -6.592 -23.686  0.00  0.00    -0.009 C 
ATOM     19  C   UNL     1      32.492  -6.085 -24.556  0.00  0.00    -0.062 C 
BRANCH  19  20
ATOM     20  C   UNL     1      32.822  -4.938 -25.451  0.00  0.00    -0.114 C 
BRANCH  20  21
ATOM     21  N   UNL     1      31.642  -4.123 -25.786  0.00  0.00    +0.373 N 
ATOM     22  H   UNL     1      31.359  -3.582 -24.969  0.00  0.00    -0.092 HD
ATOM     23  H   UNL     1      30.876  -4.734 -26.071  0.00  0.00    -0.092 HD
ATOM     24  H   UNL     1      31.873  -3.489 -26.551  0.00  0.00    -0.092 HD
ENDBRANCH  20  21
BRANCH  20  25
ATOM     25  N   UNL     1      33.475  -5.356 -26.702  0.00  0.00    +0.373 N 
ATOM     26  H   UNL     1      33.356  -6.362 -26.827  0.00  0.00    -0.092 HD
ATOM     27  H   UNL     1      34.469  -5.134 -26.658  0.00  0.00    -0.092 HD
ATOM     28  H   UNL     1      33.050  -4.864 -27.488  0.00  0.00    -0.092 HD
ENDBRANCH  20  25
ENDBRANCH  19  20
ENDBRANCH   7  14
BRANCH   8  31
ATOM     29  F   UNL     1      31.803 -15.185 -22.045  0.00  0.00    -0.197 F 
ATOM     30  F   UNL     1      31.825 -14.015 -23.882  0.00  0.00    -0.197 F 
ATOM     31  C   UNL     1      31.533 -13.969 -22.566  0.00  0.00    +0.336 C 
ENDBRANCH   8  31
BRANCH   3  32
ATOM     32  C   UNL     1      34.570 -13.068 -23.261  0.00  0.00    +0.120 C 
BRANCH  32  34
ATOM     33  F   UNL     1      34.948 -18.155 -20.879  0.00  0.00    -0.204 F 
ATOM     34  C   UNL     1      34.671 -14.424 -22.626  0.00  0.00    -0.002 C 
ATOM     35  C   UNL     1      34.696 -14.544 -21.236  0.00  0.00    -0.000 C 
ATOM     36  C   UNL     1      34.739 -15.566 -23.425  0.00  0.00    -0.000 C 
ATOM     37  C   UNL     1      34.790 -15.804 -20.646  0.00  0.00    +0.029 C 
ATOM     38  C   UNL     1      34.834 -16.826 -22.835  0.00  0.00    +0.029 C 
ATOM     39  C   UNL     1      34.858 -16.945 -21.445  0.00  0.00    +0.140 C 
ENDBRANCH  32  34
ENDBRANCH   3  32
TORSDOF 7
ENDMDL
MODEL 8
REMARK VINA RESULT:      -7.7      7.505     11.734
REMARK  Name = 46937090
REMARK  7 active torsions:
REMARK  status: ('A' for Active; 'I' for Inactive)
REMARK    1  A    between atoms: N_3  and  C_32
REMARK    2  A    between atoms: C_7  and  C_14
REMARK    3  A    between atoms: C_8  and  C_31
REMARK    4  A    between atoms: C_19  and  C_20
REMARK    5  A    between atoms: C_20  and  N_21
REMARK    6  A    between atoms: C_20  and  N_25
REMARK    7  A    between atoms: C_32  and  C_34
REMARK                            x       y       z     vdW  Elec       q    Type
REMARK                         _______ _______ _______ _____ _____    ______ ____
ROOT
ATOM      1  O   UNL     1      33.220 -13.669 -21.458  0.00  0.00    -0.275 OA
ATOM      2  N   UNL     1      32.462 -13.566 -25.108  0.00  0.00    +0.392 N 
ATOM      3  N   UNL     1      33.555 -15.808 -22.366  0.00  0.00    -0.272 N 
ATOM      4  C   UNL     1      34.154 -15.212 -24.535  0.00  0.00    +0.012 C 
ATOM      5  C   UNL     1      32.806 -15.002 -25.250  0.00  0.00    -0.055 C 
ATOM      6  C   UNL     1      34.283 -13.976 -23.642  0.00  0.00    +0.062 C 
ATOM      7  C   UNL     1      33.611 -12.885 -24.472  0.00  0.00    -0.026 C 
ATOM      8  C   UNL     1      34.153 -16.388 -23.557  0.00  0.00    +0.141 C 
ATOM      9  C   UNL     1      32.850 -15.304 -26.747  0.00  0.00    -0.023 C 
ATOM     10  C   UNL     1      32.166 -13.055 -26.454  0.00  0.00    -0.077 C 
ATOM     11  C   UNL     1      33.604 -14.414 -22.348  0.00  0.00    +0.224 C 
ATOM     12  C   UNL     1      32.955 -13.940 -27.400  0.00  0.00    -0.025 C 
ATOM     13  H   UNL     1      31.646 -13.405 -24.518  0.00  0.00    -0.079 HD
ENDROOT
BRANCH   7  14
ATOM     14  C   UNL     1      33.280 -11.624 -23.699  0.00  0.00    -0.041 C 
ATOM     15  C   UNL     1      32.200 -11.613 -22.816  0.00  0.00    -0.007 C 
ATOM     16  C   UNL     1      34.054 -10.477 -23.872  0.00  0.00    -0.007 C 
ATOM     17  C   UNL     1      31.895 -10.452 -22.104  0.00  0.00    -0.009 C 
ATOM     18  C   UNL     1      33.747  -9.317 -23.160  0.00  0.00    -0.009 C 
ATOM     19  C   UNL     1      32.668  -9.304 -22.276  0.00  0.00    -0.062 C 
BRANCH  19  20
ATOM     20  C   UNL     1      32.343  -8.066 -21.512  0.00  0.00    -0.114 C 
BRANCH  20  21
ATOM     21  N   UNL     1      32.770  -6.841 -22.211  0.00  0.00    +0.373 N 
ATOM     22  H   UNL     1      33.776  -6.875 -22.373  0.00  0.00    -0.092 HD
ATOM     23  H   UNL     1      32.545  -6.027 -21.638  0.00  0.00    -0.092 HD
ATOM     24  H   UNL     1      32.283  -6.773 -23.105  0.00  0.00    -0.092 HD
ENDBRANCH  20  21
BRANCH  20  25
ATOM     25  N   UNL     1      32.921  -8.058 -20.158  0.00  0.00    +0.373 N 
ATOM     26  H   UNL     1      32.281  -7.585 -19.519  0.00  0.00    -0.092 HD
ATOM     27  H   UNL     1      33.813  -7.565 -20.172  0.00  0.00    -0.092 HD
ATOM     28  H   UNL     1      33.066  -9.018 -19.846  0.00  0.00    -0.092 HD
ENDBRANCH  20  25
ENDBRANCH  19  20
ENDBRANCH   7  14
BRANCH   8  31
ATOM     29  F   UNL     1      36.447 -16.097 -23.916  0.00  0.00    -0.197 F 
ATOM     30  F   UNL     1      35.690 -18.135 -23.803  0.00  0.00    -0.197 F 
ATOM     31  C   UNL     1      35.565 -16.897 -23.282  0.00  0.00    +0.336 C 
ENDBRANCH   8  31
BRANCH   3  32
ATOM     32  C   UNL     1      33.004 -16.633 -21.310  0.00  0.00    +0.120 C 
BRANCH  32  34
ATOM     33  F   UNL     1      36.112 -21.235 -20.386  0.00  0.00    -0.204 F 
ATOM     34  C   UNL     1      33.832 -17.860 -21.064  0.00  0.00    -0.002 C 
ATOM     35  C   UNL     1      33.237 -19.121 -21.094  0.00  0.00    -0.000 C 
ATOM     36  C   UNL     1      35.197 -17.740 -20.805  0.00  0.00    -0.000 C 
ATOM     37  C   UNL     1      34.006 -20.262 -20.864  0.00  0.00    +0.029 C 
ATOM     38  C   UNL     1      35.968 -18.880 -20.575  0.00  0.00    +0.029 C 
ATOM     39  C   UNL     1      35.372 -20.141 -20.606  0.00  0.00    +0.140 C 
ENDBRANCH  32  34
ENDBRANCH   3  32
TORSDOF 7
ENDMDL
MODEL 9
REMARK VINA RESULT:      -7.4      2.743      6.312
REMARK  Name = 46937090
REMARK  7 active torsions:
REMARK  status: ('A' for Active; 'I' for Inactive)
REMARK    1  A    between atoms: N_3  and  C_32
REMARK    2  A    between atoms: C_7  and  C_14
REMARK    3  A    between atoms: C_8  and  C_31
REMARK    4  A    between atoms: C_19  and  C_20
REMARK    5  A    between atoms: C_20  and  N_21
REMARK    6  A    between atoms: C_20  and  N_25
REMARK    7  A    between atoms: C_32  and  C_34
REMARK                            x       y       z     vdW  Elec       q    Type
REMARK                         _______ _______ _______ _____ _____    ______ ____
ROOT
ATOM      1  O   UNL     1      34.510 -22.689 -16.078  0.00  0.00    -0.275 OA
ATOM      2  N   UNL     1      34.898 -23.461 -12.450  0.00  0.00    +0.392 N 
ATOM      3  N   UNL     1      36.796 -22.719 -15.547  0.00  0.00    -0.272 N 
ATOM      4  C   UNL     1      36.761 -24.252 -13.795  0.00  0.00    +0.012 C 
ATOM      5  C   UNL     1      36.376 -23.405 -12.566  0.00  0.00    -0.055 C 
ATOM      6  C   UNL     1      35.447 -24.375 -14.570  0.00  0.00    +0.062 C 
ATOM      7  C   UNL     1      34.400 -24.419 -13.461  0.00  0.00    -0.026 C 
ATOM      8  C   UNL     1      37.706 -23.535 -14.761  0.00  0.00    +0.141 C 
ATOM      9  C   UNL     1      36.948 -23.934 -11.252  0.00  0.00    -0.023 C 
ATOM     10  C   UNL     1      34.586 -23.867 -11.073  0.00  0.00    -0.077 C 
ATOM     11  C   UNL     1      35.472 -23.155 -15.486  0.00  0.00    +0.224 C 
ATOM     12  C   UNL     1      35.788 -24.669 -10.610  0.00  0.00    -0.025 C 
ATOM     13  H   UNL     1      34.447 -22.565 -12.630  0.00  0.00    -0.079 HD
ENDROOT
BRANCH   7  14
ATOM     14  C   UNL     1      32.977 -24.193 -13.933  0.00  0.00    -0.041 C 
ATOM     15  C   UNL     1      32.477 -22.895 -14.038  0.00  0.00    -0.007 C 
ATOM     16  C   UNL     1      32.170 -25.282 -14.260  0.00  0.00    -0.007 C 
ATOM     17  C   UNL     1      31.168 -22.686 -14.473  0.00  0.00    -0.009 C 
ATOM     18  C   UNL     1      30.861 -25.072 -14.694  0.00  0.00    -0.009 C 
ATOM     19  C   UNL     1      30.360 -23.775 -14.801  0.00  0.00    -0.062 C 
BRANCH  19  20
ATOM     20  C   UNL     1      28.962 -23.550 -15.268  0.00  0.00    -0.114 C 
BRANCH  20  21
ATOM     21  N   UNL     1      28.642 -24.313 -16.487  0.00  0.00    +0.373 N 
ATOM     22  H   UNL     1      28.600 -23.677 -17.284  0.00  0.00    -0.092 HD
ATOM     23  H   UNL     1      27.740 -24.775 -16.373  0.00  0.00    -0.092 HD
ATOM     24  H   UNL     1      29.366 -25.014 -16.649  0.00  0.00    -0.092 HD
ENDBRANCH  20  21
BRANCH  20  25
ATOM     25  N   UNL     1      28.659 -22.130 -15.511  0.00  0.00    +0.373 N 
ATOM     26  H   UNL     1      27.802 -21.877 -15.018  0.00  0.00    -0.092 HD
ATOM     27  H   UNL     1      28.534 -21.975 -16.511  0.00  0.00    -0.092 HD
ATOM     28  H   UNL     1      29.429 -21.556 -15.170  0.00  0.00    -0.092 HD
ENDBRANCH  20  25
ENDBRANCH  19  20
ENDBRANCH   7  14
BRANCH   8  31
ATOM     29  F   UNL     1      38.433 -25.740 -15.060  0.00  0.00    -0.197 F 
ATOM     30  F   UNL     1      39.763 -24.139 -15.698  0.00  0.00    -0.197 F 
ATOM     31  C   UNL     1      38.471 -24.521 -15.639  0.00  0.00    +0.336 C 
ENDBRANCH   8  31
BRANCH   3  32
ATOM     32  C   UNL     1      37.263 -21.591 -16.327  0.00  0.00    +0.120 C 
BRANCH  32  34
ATOM     33  F   UNL     1      34.788 -21.353 -21.378  0.00  0.00    -0.204 F 
ATOM     34  C   UNL     1      36.603 -21.528 -17.674  0.00  0.00    -0.002 C 
ATOM     35  C   UNL     1      37.077 -20.641 -18.641  0.00  0.00    -0.000 C 
ATOM     36  C   UNL     1      35.517 -22.354 -17.958  0.00  0.00    -0.000 C 
ATOM     37  C   UNL     1      36.464 -20.581 -19.893  0.00  0.00    +0.029 C 
ATOM     38  C   UNL     1      34.903 -22.295 -19.209  0.00  0.00    +0.029 C 
ATOM     39  C   UNL     1      35.377 -21.409 -20.177  0.00  0.00    +0.140 C 
ENDBRANCH  32  34
ENDBRANCH   3  32
TORSDOF 7
ENDMDL
