MODEL 1
REMARK VINA RESULT:     -10.8      0.000      0.000
REMARK  Name = 4850
REMARK  2 active torsions:
REMARK  status: ('A' for Active; 'I' for Inactive)
REMARK    1  A    between atoms: N_1  and  C_14
REMARK    2  A    between atoms: C_14  and  C_17
REMARK                            x       y       z     vdW  Elec       q    Type
REMARK                         _______ _______ _______ _____ _____    ______ ____
ROOT
ATOM      1  N   UNL     1      34.840 -18.034 -22.459  0.00  0.00    +0.392 N 
ATOM      2  N   UNL     1      34.297 -15.868 -24.239  0.00  0.00    -0.257 N 
ATOM      3  N   UNL     1      33.607 -15.145 -26.378  0.00  0.00    -0.203 NA
ATOM      4  N   UNL     1      33.858 -13.571 -24.571  0.00  0.00    -0.181 NA
ATOM      5  C   UNL     1      35.266 -18.101 -23.862  0.00  0.00    -0.054 C 
ATOM      6  C   UNL     1      34.907 -16.647 -21.982  0.00  0.00    -0.054 C 
ATOM      7  C   UNL     1      34.366 -17.240 -24.751  0.00  0.00    +0.079 C 
ATOM      8  C   UNL     1      33.994 -15.738 -22.809  0.00  0.00    +0.079 C 
ATOM      9  C   UNL     1      33.909 -14.828 -25.091  0.00  0.00    +0.090 C 
ATOM     10  C   UNL     1      33.234 -14.119 -27.171  0.00  0.00    +0.165 C 
ATOM     11  C   UNL     1      33.479 -12.594 -25.419  0.00  0.00    +0.108 C 
ATOM     12  C   UNL     1      33.152 -12.809 -26.743  0.00  0.00    +0.022 C 
ATOM     13  H   UNL     1      33.875 -18.360 -22.392  0.00  0.00    -0.079 HD
ENDROOT
BRANCH   1  14
ATOM     14  C   UNL     1      35.672 -18.903 -21.628  0.00  0.00    -0.050 C 
BRANCH  14  17
ATOM     15  O   UNL     1      35.112 -22.638 -18.448  0.00  0.00    -0.435 OA
ATOM     16  O   UNL     1      32.710 -22.447 -18.468  0.00  0.00    -0.435 OA
ATOM     17  C   UNL     1      34.844 -19.840 -20.790  0.00  0.00    -0.040 C 
ATOM     18  C   UNL     1      35.481 -20.803 -20.015  0.00  0.00    +0.034 C 
ATOM     19  C   UNL     1      33.450 -19.720 -20.809  0.00  0.00    -0.003 C 
ATOM     20  C   UNL     1      34.680 -21.638 -19.264  0.00  0.00    +0.176 C 
ATOM     21  C   UNL     1      33.308 -21.529 -19.275  0.00  0.00    +0.176 C 
ATOM     22  C   UNL     1      32.662 -20.579 -20.039  0.00  0.00    +0.040 C 
ATOM     23  C   UNL     1      33.859 -23.146 -17.948  0.00  0.00    +0.429 C 
ENDBRANCH  14  17
ENDBRANCH   1  14
TORSDOF 2
ENDMDL
MODEL 2
REMARK VINA RESULT:     -10.2      2.718      3.627
REMARK  Name = 4850
REMARK  2 active torsions:
REMARK  status: ('A' for Active; 'I' for Inactive)
REMARK    1  A    between atoms: N_1  and  C_14
REMARK    2  A    between atoms: C_14  and  C_17
REMARK                            x       y       z     vdW  Elec       q    Type
REMARK                         _______ _______ _______ _____ _____    ______ ____
ROOT
ATOM      1  N   UNL     1      34.339 -16.674 -22.239  0.00  0.00    +0.392 N 
ATOM      2  N   UNL     1      33.083 -14.179 -21.643  0.00  0.00    -0.257 N 
ATOM      3  N   UNL     1      31.807 -12.339 -22.390  0.00  0.00    -0.203 NA
ATOM      4  N   UNL     1      32.253 -12.653 -20.043  0.00  0.00    -0.181 NA
ATOM      5  C   UNL     1      34.424 -15.555 -23.185  0.00  0.00    -0.054 C 
ATOM      6  C   UNL     1      34.318 -16.164 -20.862  0.00  0.00    -0.054 C 
ATOM      7  C   UNL     1      33.224 -14.616 -23.035  0.00  0.00    +0.079 C 
ATOM      8  C   UNL     1      33.114 -15.247 -20.636  0.00  0.00    +0.079 C 
ATOM      9  C   UNL     1      32.358 -13.019 -21.350  0.00  0.00    +0.090 C 
ATOM     10  C   UNL     1      31.113 -11.226 -22.071  0.00  0.00    +0.165 C 
ATOM     11  C   UNL     1      31.546 -11.531 -19.797  0.00  0.00    +0.108 C 
ATOM     12  C   UNL     1      30.948 -10.769 -20.780  0.00  0.00    +0.022 C 
ATOM     13  H   UNL     1      33.476 -17.188 -22.414  0.00  0.00    -0.079 HD
ENDROOT
BRANCH   1  14
ATOM     14  C   UNL     1      35.461 -17.592 -22.429  0.00  0.00    -0.050 C 
BRANCH  14  17
ATOM     15  O   UNL     1      33.005 -21.178 -20.089  0.00  0.00    -0.435 OA
ATOM     16  O   UNL     1      35.003 -22.022 -19.040  0.00  0.00    -0.435 OA
ATOM     17  C   UNL     1      35.375 -18.782 -21.512  0.00  0.00    -0.040 C 
ATOM     18  C   UNL     1      34.139 -19.378 -21.284  0.00  0.00    +0.034 C 
ATOM     19  C   UNL     1      36.542 -19.264 -20.908  0.00  0.00    -0.003 C 
ATOM     20  C   UNL     1      34.111 -20.466 -20.436  0.00  0.00    +0.176 C 
ATOM     21  C   UNL     1      35.252 -20.947 -19.836  0.00  0.00    +0.176 C 
ATOM     22  C   UNL     1      36.485 -20.367 -20.052  0.00  0.00    +0.040 C 
ATOM     23  C   UNL     1      33.578 -22.163 -19.205  0.00  0.00    +0.429 C 
ENDBRANCH  14  17
ENDBRANCH   1  14
TORSDOF 2
ENDMDL
MODEL 3
REMARK VINA RESULT:     -10.0      4.002      8.656
REMARK  Name = 4850
REMARK  2 active torsions:
REMARK  status: ('A' for Active; 'I' for Inactive)
REMARK    1  A    between atoms: N_1  and  C_14
REMARK    2  A    between atoms: C_14  and  C_17
REMARK                            x       y       z     vdW  Elec       q    Type
REMARK                         _______ _______ _______ _____ _____    ______ ____
ROOT
ATOM      1  N   UNL     1      35.627 -19.809 -21.283  0.00  0.00    +0.392 N 
ATOM      2  N   UNL     1      34.469 -21.333 -19.163  0.00  0.00    -0.257 N 
ATOM      3  N   UNL     1      32.550 -22.328 -18.214  0.00  0.00    -0.203 NA
ATOM      4  N   UNL     1      34.741 -22.792 -17.326  0.00  0.00    -0.181 NA
ATOM      5  C   UNL     1      34.324 -19.433 -20.723  0.00  0.00    -0.054 C 
ATOM      6  C   UNL     1      36.476 -20.381 -20.230  0.00  0.00    -0.054 C 
ATOM      7  C   UNL     1      33.607 -20.649 -20.131  0.00  0.00    +0.079 C 
ATOM      8  C   UNL     1      35.832 -21.630 -19.623  0.00  0.00    +0.079 C 
ATOM      9  C   UNL     1      33.901 -22.178 -18.203  0.00  0.00    +0.090 C 
ATOM     10  C   UNL     1      32.035 -23.151 -17.277  0.00  0.00    +0.165 C 
ATOM     11  C   UNL     1      34.159 -23.600 -16.416  0.00  0.00    +0.108 C 
ATOM     12  C   UNL     1      32.798 -23.820 -16.342  0.00  0.00    +0.022 C 
ATOM     13  H   UNL     1      35.483 -20.512 -22.008  0.00  0.00    -0.079 HD
ENDROOT
BRANCH   1  14
ATOM     14  C   UNL     1      36.277 -18.651 -21.894  0.00  0.00    -0.050 C 
BRANCH  14  17
ATOM     15  O   UNL     1      34.055 -15.017 -24.390  0.00  0.00    -0.435 OA
ATOM     16  O   UNL     1      33.334 -16.505 -26.143  0.00  0.00    -0.435 OA
ATOM     17  C   UNL     1      35.484 -18.107 -23.052  0.00  0.00    -0.040 C 
ATOM     18  C   UNL     1      35.179 -16.751 -23.091  0.00  0.00    +0.034 C 
ATOM     19  C   UNL     1      35.071 -18.981 -24.065  0.00  0.00    -0.003 C 
ATOM     20  C   UNL     1      34.450 -16.301 -24.173  0.00  0.00    +0.176 C 
ATOM     21  C   UNL     1      34.039 -17.151 -25.174  0.00  0.00    +0.176 C 
ATOM     22  C   UNL     1      34.334 -18.498 -25.149  0.00  0.00    +0.040 C 
ATOM     23  C   UNL     1      33.348 -15.154 -25.639  0.00  0.00    +0.429 C 
ENDBRANCH  14  17
ENDBRANCH   1  14
TORSDOF 2
ENDMDL
MODEL 4
REMARK VINA RESULT:      -9.8      5.315     10.494
REMARK  Name = 4850
REMARK  2 active torsions:
REMARK  status: ('A' for Active; 'I' for Inactive)
REMARK    1  A    between atoms: N_1  and  C_14
REMARK    2  A    between atoms: C_14  and  C_17
REMARK                            x       y       z     vdW  Elec       q    Type
REMARK                         _______ _______ _______ _____ _____    ______ ____
ROOT
ATOM      1  N   UNL     1      34.734 -22.363 -17.701  0.00  0.00    +0.392 N 
ATOM      2  N   UNL     1      35.609 -23.119 -15.090  0.00  0.00    -0.257 N 
ATOM      3  N   UNL     1      37.116 -22.800 -13.301  0.00  0.00    -0.203 NA
ATOM      4  N   UNL     1      35.181 -24.210 -13.040  0.00  0.00    -0.181 NA
ATOM      5  C   UNL     1      36.166 -22.477 -17.402  0.00  0.00    -0.054 C 
ATOM      6  C   UNL     1      33.981 -23.355 -16.924  0.00  0.00    -0.054 C 
ATOM      7  C   UNL     1      36.438 -22.236 -15.915  0.00  0.00    +0.079 C 
ATOM      8  C   UNL     1      34.179 -23.142 -15.422  0.00  0.00    +0.079 C 
ATOM      9  C   UNL     1      35.981 -23.386 -13.768  0.00  0.00    +0.090 C 
ATOM     10  C   UNL     1      37.445 -23.077 -12.022  0.00  0.00    +0.165 C 
ATOM     11  C   UNL     1      35.569 -24.444 -11.770  0.00  0.00    +0.108 C 
ATOM     12  C   UNL     1      36.703 -23.900 -11.200  0.00  0.00    +0.022 C 
ATOM     13  H   UNL     1      34.417 -21.429 -17.440  0.00  0.00    -0.079 HD
ENDROOT
BRANCH   1  14
ATOM     14  C   UNL     1      34.494 -22.541 -19.133  0.00  0.00    -0.050 C 
BRANCH  14  17
ATOM     15  O   UNL     1      36.310 -18.620 -21.519  0.00  0.00    -0.435 OA
ATOM     16  O   UNL     1      34.128 -17.639 -21.808  0.00  0.00    -0.435 OA
ATOM     17  C   UNL     1      34.358 -21.223 -19.848  0.00  0.00    -0.040 C 
ATOM     18  C   UNL     1      35.499 -20.592 -20.332  0.00  0.00    +0.034 C 
ATOM     19  C   UNL     1      33.086 -20.663 -20.010  0.00  0.00    -0.003 C 
ATOM     20  C   UNL     1      35.323 -19.386 -20.980  0.00  0.00    +0.176 C 
ATOM     21  C   UNL     1      34.077 -18.826 -21.145  0.00  0.00    +0.176 C 
ATOM     22  C   UNL     1      32.937 -19.441 -20.670  0.00  0.00    +0.040 C 
ATOM     23  C   UNL     1      35.545 -17.515 -22.042  0.00  0.00    +0.429 C 
ENDBRANCH  14  17
ENDBRANCH   1  14
TORSDOF 2
ENDMDL
MODEL 5
REMARK VINA RESULT:      -9.8      3.941      8.628
REMARK  Name = 4850
REMARK  2 active torsions:
REMARK  status: ('A' for Active; 'I' for Inactive)
REMARK    1  A    between atoms: N_1  and  C_14
REMARK    2  A    between atoms: C_14  and  C_17
REMARK                            x       y       z     vdW  Elec       q    Type
REMARK                         _______ _______ _______ _____ _____    ______ ____
ROOT
ATOM      1  N   UNL     1      35.451 -19.134 -21.831  0.00  0.00    +0.392 N 
ATOM      2  N   UNL     1      34.735 -21.030 -19.818  0.00  0.00    -0.257 N 
ATOM      3  N   UNL     1      35.307 -22.166 -17.829  0.00  0.00    -0.203 NA
ATOM      4  N   UNL     1      33.074 -22.303 -18.724  0.00  0.00    -0.181 NA
ATOM      5  C   UNL     1      36.442 -20.092 -21.326  0.00  0.00    -0.054 C 
ATOM      6  C   UNL     1      34.117 -19.749 -21.830  0.00  0.00    -0.054 C 
ATOM      7  C   UNL     1      36.110 -20.526 -19.897  0.00  0.00    +0.079 C 
ATOM      8  C   UNL     1      33.708 -20.170 -20.417  0.00  0.00    +0.079 C 
ATOM      9  C   UNL     1      34.360 -21.860 -18.756  0.00  0.00    +0.090 C 
ATOM     10  C   UNL     1      34.911 -22.968 -16.818  0.00  0.00    +0.165 C 
ATOM     11  C   UNL     1      32.747 -23.101 -17.687  0.00  0.00    +0.108 C 
ATOM     12  C   UNL     1      33.632 -23.471 -16.694  0.00  0.00    +0.022 C 
ATOM     13  H   UNL     1      35.439 -18.319 -21.217  0.00  0.00    -0.079 HD
ENDROOT
BRANCH   1  14
ATOM     14  C   UNL     1      35.809 -18.686 -23.176  0.00  0.00    -0.050 C 
BRANCH  14  17
ATOM     15  O   UNL     1      33.434 -15.788 -26.390  0.00  0.00    -0.435 OA
ATOM     16  O   UNL     1      33.068 -14.066 -24.745  0.00  0.00    -0.435 OA
ATOM     17  C   UNL     1      35.075 -17.430 -23.563  0.00  0.00    -0.040 C 
ATOM     18  C   UNL     1      34.619 -17.284 -24.868  0.00  0.00    +0.034 C 
ATOM     19  C   UNL     1      34.868 -16.437 -22.599  0.00  0.00    -0.003 C 
ATOM     20  C   UNL     1      33.952 -16.116 -25.175  0.00  0.00    +0.176 C 
ATOM     21  C   UNL     1      33.743 -15.132 -24.235  0.00  0.00    +0.176 C 
ATOM     22  C   UNL     1      34.189 -15.263 -22.937  0.00  0.00    +0.040 C 
ATOM     23  C   UNL     1      32.876 -14.488 -26.110  0.00  0.00    +0.429 C 
ENDBRANCH  14  17
ENDBRANCH   1  14
TORSDOF 2
ENDMDL
MODEL 6
REMARK VINA RESULT:      -9.7      2.613      3.715
REMARK  Name = 4850
REMARK  2 active torsions:
REMARK  status: ('A' for Active; 'I' for Inactive)
REMARK    1  A    between atoms: N_1  and  C_14
REMARK    2  A    between atoms: C_14  and  C_17
REMARK                            x       y       z     vdW  Elec       q    Type
REMARK                         _______ _______ _______ _____ _____    ______ ____
ROOT
ATOM      1  N   UNL     1      34.738 -16.546 -22.475  0.00  0.00    +0.392 N 
ATOM      2  N   UNL     1      33.154 -14.259 -21.832  0.00  0.00    -0.257 N 
ATOM      3  N   UNL     1      32.213 -12.862 -20.177  0.00  0.00    -0.203 NA
ATOM      4  N   UNL     1      32.156 -12.226 -22.500  0.00  0.00    -0.181 NA
ATOM      5  C   UNL     1      33.768 -16.600 -21.375  0.00  0.00    -0.054 C 
ATOM      6  C   UNL     1      34.239 -15.667 -23.539  0.00  0.00    -0.054 C 
ATOM      7  C   UNL     1      33.532 -15.210 -20.782  0.00  0.00    +0.079 C 
ATOM      8  C   UNL     1      34.020 -14.245 -23.017  0.00  0.00    +0.079 C 
ATOM      9  C   UNL     1      32.485 -13.078 -21.492  0.00  0.00    +0.090 C 
ATOM     10  C   UNL     1      31.569 -11.713 -19.884  0.00  0.00    +0.165 C 
ATOM     11  C   UNL     1      31.514 -11.097 -22.136  0.00  0.00    +0.108 C 
ATOM     12  C   UNL     1      31.190 -10.784 -20.831  0.00  0.00    +0.022 C 
ATOM     13  H   UNL     1      35.617 -16.169 -22.120  0.00  0.00    -0.079 HD
ENDROOT
BRANCH   1  14
ATOM     14  C   UNL     1      34.997 -17.888 -22.997  0.00  0.00    -0.050 C 
BRANCH  14  17
ATOM     15  O   UNL     1      33.069 -21.310 -20.006  0.00  0.00    -0.435 OA
ATOM     16  O   UNL     1      35.181 -21.719 -18.922  0.00  0.00    -0.435 OA
ATOM     17  C   UNL     1      35.083 -18.912 -21.897  0.00  0.00    -0.040 C 
ATOM     18  C   UNL     1      33.938 -19.607 -21.523  0.00  0.00    +0.034 C 
ATOM     19  C   UNL     1      36.315 -19.142 -21.274  0.00  0.00    -0.003 C 
ATOM     20  C   UNL     1      34.067 -20.535 -20.510  0.00  0.00    +0.176 C 
ATOM     21  C   UNL     1      35.274 -20.769 -19.891  0.00  0.00    +0.176 C 
ATOM     22  C   UNL     1      36.418 -20.087 -20.251  0.00  0.00    +0.040 C 
ATOM     23  C   UNL     1      33.782 -22.058 -19.000  0.00  0.00    +0.429 C 
ENDBRANCH  14  17
ENDBRANCH   1  14
TORSDOF 2
ENDMDL
MODEL 7
REMARK VINA RESULT:      -9.6      4.124      6.398
REMARK  Name = 4850
REMARK  2 active torsions:
REMARK  status: ('A' for Active; 'I' for Inactive)
REMARK    1  A    between atoms: N_1  and  C_14
REMARK    2  A    between atoms: C_14  and  C_17
REMARK                            x       y       z     vdW  Elec       q    Type
REMARK                         _______ _______ _______ _____ _____    ______ ____
ROOT
ATOM      1  N   UNL     1      33.537 -12.632 -23.480  0.00  0.00    +0.392 N 
ATOM      2  N   UNL     1      32.760  -9.893 -23.254  0.00  0.00    -0.257 N 
ATOM      3  N   UNL     1      31.725  -8.193 -21.984  0.00  0.00    -0.203 NA
ATOM      4  N   UNL     1      32.974  -7.654 -23.973  0.00  0.00    -0.181 NA
ATOM      5  C   UNL     1      32.222 -12.276 -22.936  0.00  0.00    -0.054 C 
ATOM      6  C   UNL     1      33.932 -11.661 -24.508  0.00  0.00    -0.054 C 
ATOM      7  C   UNL     1      32.247 -10.884 -22.301  0.00  0.00    +0.079 C 
ATOM      8  C   UNL     1      34.016 -10.249 -23.925  0.00  0.00    +0.079 C 
ATOM      9  C   UNL     1      32.476  -8.537 -23.064  0.00  0.00    +0.090 C 
ATOM     10  C   UNL     1      31.472  -6.877 -21.831  0.00  0.00    +0.165 C 
ATOM     11  C   UNL     1      32.682  -6.355 -23.759  0.00  0.00    +0.108 C 
ATOM     12  C   UNL     1      31.928  -5.902 -22.695  0.00  0.00    +0.022 C 
ATOM     13  H   UNL     1      34.223 -12.610 -22.725  0.00  0.00    -0.079 HD
ENDROOT
BRANCH   1  14
ATOM     14  C   UNL     1      33.514 -13.986 -24.034  0.00  0.00    -0.050 C 
BRANCH  14  17
ATOM     15  O   UNL     1      35.795 -18.220 -22.918  0.00  0.00    -0.435 OA
ATOM     16  O   UNL     1      35.615 -17.826 -20.547  0.00  0.00    -0.435 OA
ATOM     17  C   UNL     1      34.069 -14.998 -23.067  0.00  0.00    -0.040 C 
ATOM     18  C   UNL     1      34.677 -16.147 -23.560  0.00  0.00    +0.034 C 
ATOM     19  C   UNL     1      33.959 -14.758 -21.692  0.00  0.00    -0.003 C 
ATOM     20  C   UNL     1      35.170 -17.044 -22.635  0.00  0.00    +0.176 C 
ATOM     21  C   UNL     1      35.068 -16.819 -21.281  0.00  0.00    +0.176 C 
ATOM     22  C   UNL     1      34.467 -15.684 -20.777  0.00  0.00    +0.040 C 
ATOM     23  C   UNL     1      36.073 -18.709 -21.590  0.00  0.00    +0.429 C 
ENDBRANCH  14  17
ENDBRANCH   1  14
TORSDOF 2
ENDMDL
MODEL 8
REMARK VINA RESULT:      -9.4     10.149     11.898
REMARK  Name = 4850
REMARK  2 active torsions:
REMARK  status: ('A' for Active; 'I' for Inactive)
REMARK    1  A    between atoms: N_1  and  C_14
REMARK    2  A    between atoms: C_14  and  C_17
REMARK                            x       y       z     vdW  Elec       q    Type
REMARK                         _______ _______ _______ _____ _____    ______ ____
ROOT
ATOM      1  N   UNL     1      33.317 -23.752 -13.992  0.00  0.00    +0.392 N 
ATOM      2  N   UNL     1      36.125 -24.265 -14.074  0.00  0.00    -0.257 N 
ATOM      3  N   UNL     1      37.978 -25.462 -13.231  0.00  0.00    -0.203 NA
ATOM      4  N   UNL     1      38.187 -24.109 -15.214  0.00  0.00    -0.181 NA
ATOM      5  C   UNL     1      34.078 -23.920 -12.749  0.00  0.00    -0.054 C 
ATOM      6  C   UNL     1      34.159 -23.113 -15.011  0.00  0.00    -0.054 C 
ATOM      7  C   UNL     1      35.313 -24.794 -12.973  0.00  0.00    +0.079 C 
ATOM      8  C   UNL     1      35.397 -23.961 -15.311  0.00  0.00    +0.079 C 
ATOM      9  C   UNL     1      37.474 -24.623 -14.176  0.00  0.00    +0.090 C 
ATOM     10  C   UNL     1      39.281 -25.787 -13.360  0.00  0.00    +0.165 C 
ATOM     11  C   UNL     1      39.483 -24.475 -15.282  0.00  0.00    +0.108 C 
ATOM     12  C   UNL     1      40.092 -25.320 -14.374  0.00  0.00    +0.022 C 
ATOM     13  H   UNL     1      33.032 -24.672 -14.330  0.00  0.00    -0.079 HD
ENDROOT
BRANCH   1  14
ATOM     14  C   UNL     1      32.110 -22.961 -13.753  0.00  0.00    -0.050 C 
BRANCH  14  17
ATOM     15  O   UNL     1      28.467 -21.987 -16.940  0.00  0.00    -0.435 OA
ATOM     16  O   UNL     1      27.907 -24.318 -17.189  0.00  0.00    -0.435 OA
ATOM     17  C   UNL     1      30.985 -23.362 -14.669  0.00  0.00    -0.040 C 
ATOM     18  C   UNL     1      30.286 -22.378 -15.359  0.00  0.00    +0.034 C 
ATOM     19  C   UNL     1      30.668 -24.718 -14.807  0.00  0.00    -0.003 C 
ATOM     20  C   UNL     1      29.264 -22.794 -16.187  0.00  0.00    +0.176 C 
ATOM     21  C   UNL     1      28.943 -24.125 -16.329  0.00  0.00    +0.176 C 
ATOM     22  C   UNL     1      29.628 -25.113 -15.652  0.00  0.00    +0.040 C 
ATOM     23  C   UNL     1      27.610 -22.960 -17.572  0.00  0.00    +0.429 C 
ENDBRANCH  14  17
ENDBRANCH   1  14
TORSDOF 2
ENDMDL
MODEL 9
REMARK VINA RESULT:      -9.4      1.895      2.920
REMARK  Name = 4850
REMARK  2 active torsions:
REMARK  status: ('A' for Active; 'I' for Inactive)
REMARK    1  A    between atoms: N_1  and  C_14
REMARK    2  A    between atoms: C_14  and  C_17
REMARK                            x       y       z     vdW  Elec       q    Type
REMARK                         _______ _______ _______ _____ _____    ______ ____
ROOT
ATOM      1  N   UNL     1      34.785 -18.078 -21.899  0.00  0.00    +0.392 N 
ATOM      2  N   UNL     1      33.583 -15.497 -22.120  0.00  0.00    -0.257 N 
ATOM      3  N   UNL     1      32.318 -13.773 -21.120  0.00  0.00    -0.203 NA
ATOM      4  N   UNL     1      33.419 -13.421 -23.233  0.00  0.00    -0.181 NA
ATOM      5  C   UNL     1      33.441 -17.835 -21.360  0.00  0.00    -0.054 C 
ATOM      6  C   UNL     1      34.996 -17.262 -23.101  0.00  0.00    -0.054 C 
ATOM      7  C   UNL     1      33.258 -16.364 -20.983  0.00  0.00    +0.079 C 
ATOM      8  C   UNL     1      34.865 -15.771 -22.782  0.00  0.00    +0.079 C 
ATOM      9  C   UNL     1      33.090 -14.188 -22.159  0.00  0.00    +0.090 C 
ATOM     10  C   UNL     1      31.861 -12.505 -21.188  0.00  0.00    +0.165 C 
ATOM     11  C   UNL     1      32.928 -12.165 -23.237  0.00  0.00    +0.108 C 
ATOM     12  C   UNL     1      32.135 -11.647 -22.233  0.00  0.00    +0.022 C 
ATOM     13  H   UNL     1      35.474 -17.814 -21.195  0.00  0.00    -0.079 HD
ENDROOT
BRANCH   1  14
ATOM     14  C   UNL     1      34.967 -19.497 -22.203  0.00  0.00    -0.050 C 
BRANCH  14  17
ATOM     15  O   UNL     1      32.828 -22.305 -18.751  0.00  0.00    -0.435 OA
ATOM     16  O   UNL     1      34.907 -22.653 -17.583  0.00  0.00    -0.435 OA
ATOM     17  C   UNL     1      34.987 -20.341 -20.957  0.00  0.00    -0.040 C 
ATOM     18  C   UNL     1      33.803 -20.907 -20.499  0.00  0.00    +0.034 C 
ATOM     19  C   UNL     1      36.200 -20.537 -20.287  0.00  0.00    -0.003 C 
ATOM     20  C   UNL     1      33.872 -21.673 -19.353  0.00  0.00    +0.176 C 
ATOM     21  C   UNL     1      35.059 -21.872 -18.685  0.00  0.00    +0.176 C 
ATOM     22  C   UNL     1      36.242 -21.316 -19.127  0.00  0.00    +0.040 C 
ATOM     23  C   UNL     1      33.492 -22.924 -17.630  0.00  0.00    +0.429 C 
ENDBRANCH  14  17
ENDBRANCH   1  14
TORSDOF 2
ENDMDL
