MODEL 1
REMARK VINA RESULT:      -9.3      0.000      0.000
REMARK  Name = 5288002
REMARK  0 active torsions:
REMARK  status: ('A' for Active; 'I' for Inactive)
REMARK                            x       y       z     vdW  Elec       q    Type
REMARK                         _______ _______ _______ _____ _____    ______ ____
ROOT
ATOM      1  O   UNL     1      36.506 -20.646 -18.891  0.00  0.00    -0.460 OA
ATOM      2  O   UNL     1      35.202 -24.514 -15.156  0.00  0.00    -0.468 OA
ATOM      3  O   UNL     1      37.771 -23.211 -15.135  0.00  0.00    -0.468 OA
ATOM      4  O   UNL     1      32.676 -22.044 -18.771  0.00  0.00    -0.270 OA
ATOM      5  N   UNL     1      34.371 -20.948 -19.906  0.00  0.00    -0.244 N 
ATOM      6  C   UNL     1      35.797 -20.806 -20.115  0.00  0.00    +0.247 C 
ATOM      7  C   UNL     1      35.899 -19.567 -20.995  0.00  0.00    +0.067 C 
ATOM      8  C   UNL     1      34.643 -19.669 -21.857  0.00  0.00    +0.027 C 
ATOM      9  C   UNL     1      33.597 -20.211 -20.888  0.00  0.00    +0.097 C 
ATOM     10  C   UNL     1      33.856 -21.752 -18.916  0.00  0.00    +0.254 C 
ATOM     11  C   UNL     1      34.887 -22.210 -17.956  0.00  0.00    +0.091 C 
ATOM     12  C   UNL     1      36.157 -21.614 -17.979  0.00  0.00    +0.148 C 
ATOM     13  C   UNL     1      34.579 -23.176 -16.996  0.00  0.00    +0.048 C 
ATOM     14  C   UNL     1      37.109 -21.959 -17.020  0.00  0.00    +0.077 C 
ATOM     15  C   UNL     1      35.548 -23.544 -16.060  0.00  0.00    +0.173 C 
ATOM     16  C   UNL     1      36.800 -22.919 -16.057  0.00  0.00    +0.175 C 
ATOM     17  C   UNL     1      36.344 -25.049 -14.482  0.00  0.00    +0.253 C 
ATOM     18  C   UNL     1      37.248 -23.926 -14.013  0.00  0.00    +0.253 C 
ENDROOT
TORSDOF 0
ENDMDL
MODEL 2
REMARK VINA RESULT:      -8.7      4.181      6.715
REMARK  Name = 5288002
REMARK  0 active torsions:
REMARK  status: ('A' for Active; 'I' for Inactive)
REMARK                            x       y       z     vdW  Elec       q    Type
REMARK                         _______ _______ _______ _____ _____    ______ ____
ROOT
ATOM      1  O   UNL     1      36.286 -24.470 -15.490  0.00  0.00    -0.460 OA
ATOM      2  O   UNL     1      31.123 -23.151 -14.000  0.00  0.00    -0.468 OA
ATOM      3  O   UNL     1      31.948 -23.108 -16.760  0.00  0.00    -0.468 OA
ATOM      4  O   UNL     1      35.159 -25.038 -11.611  0.00  0.00    -0.270 OA
ATOM      5  N   UNL     1      36.832 -24.803 -13.194  0.00  0.00    -0.244 N 
ATOM      6  C   UNL     1      37.234 -24.220 -14.458  0.00  0.00    +0.247 C 
ATOM      7  C   UNL     1      38.572 -24.892 -14.742  0.00  0.00    +0.067 C 
ATOM      8  C   UNL     1      39.162 -25.058 -13.344  0.00  0.00    +0.027 C 
ATOM      9  C   UNL     1      37.948 -25.408 -12.490  0.00  0.00    +0.097 C 
ATOM     10  C   UNL     1      35.543 -24.710 -12.727  0.00  0.00    +0.254 C 
ATOM     11  C   UNL     1      34.595 -24.215 -13.753  0.00  0.00    +0.091 C 
ATOM     12  C   UNL     1      35.012 -24.143 -15.091  0.00  0.00    +0.148 C 
ATOM     13  C   UNL     1      33.283 -23.887 -13.404  0.00  0.00    +0.048 C 
ATOM     14  C   UNL     1      34.107 -23.775 -16.086  0.00  0.00    +0.077 C 
ATOM     15  C   UNL     1      32.391 -23.486 -14.400  0.00  0.00    +0.173 C 
ATOM     16  C   UNL     1      32.795 -23.454 -15.739  0.00  0.00    +0.175 C 
ATOM     17  C   UNL     1      30.411 -22.444 -15.018  0.00  0.00    +0.253 C 
ATOM     18  C   UNL     1      30.577 -23.140 -16.354  0.00  0.00    +0.253 C 
ENDROOT
TORSDOF 0
ENDMDL
MODEL 3
REMARK VINA RESULT:      -8.7      1.775      5.766
REMARK  Name = 5288002
REMARK  0 active torsions:
REMARK  status: ('A' for Active; 'I' for Inactive)
REMARK                            x       y       z     vdW  Elec       q    Type
REMARK                         _______ _______ _______ _____ _____    ______ ____
ROOT
ATOM      1  O   UNL     1      36.845 -22.381 -17.473  0.00  0.00    -0.460 OA
ATOM      2  O   UNL     1      33.116 -20.246 -20.958  0.00  0.00    -0.468 OA
ATOM      3  O   UNL     1      35.930 -19.702 -21.250  0.00  0.00    -0.468 OA
ATOM      4  O   UNL     1      32.970 -23.626 -17.203  0.00  0.00    -0.270 OA
ATOM      5  N   UNL     1      35.074 -23.418 -16.260  0.00  0.00    -0.244 N 
ATOM      6  C   UNL     1      36.300 -22.650 -16.185  0.00  0.00    +0.247 C 
ATOM      7  C   UNL     1      37.218 -23.538 -15.355  0.00  0.00    +0.067 C 
ATOM      8  C   UNL     1      36.246 -24.198 -14.380  0.00  0.00    +0.027 C 
ATOM      9  C   UNL     1      35.006 -24.442 -15.233  0.00  0.00    +0.097 C 
ATOM     10  C   UNL     1      34.089 -23.130 -17.174  0.00  0.00    +0.254 C 
ATOM     11  C   UNL     1      34.531 -22.168 -18.210  0.00  0.00    +0.091 C 
ATOM     12  C   UNL     1      35.896 -21.861 -18.320  0.00  0.00    +0.148 C 
ATOM     13  C   UNL     1      33.612 -21.624 -19.110  0.00  0.00    +0.048 C 
ATOM     14  C   UNL     1      36.346 -21.036 -19.351  0.00  0.00    +0.077 C 
ATOM     15  C   UNL     1      34.063 -20.771 -20.118  0.00  0.00    +0.173 C 
ATOM     16  C   UNL     1      35.429 -20.498 -20.253  0.00  0.00    +0.175 C 
ATOM     17  C   UNL     1      33.625 -19.145 -21.717  0.00  0.00    +0.253 C 
ATOM     18  C   UNL     1      34.981 -19.494 -22.299  0.00  0.00    +0.253 C 
ENDROOT
TORSDOF 0
ENDMDL
MODEL 4
REMARK VINA RESULT:      -8.7      1.320      1.816
REMARK  Name = 5288002
REMARK  0 active torsions:
REMARK  status: ('A' for Active; 'I' for Inactive)
REMARK                            x       y       z     vdW  Elec       q    Type
REMARK                         _______ _______ _______ _____ _____    ______ ____
ROOT
ATOM      1  O   UNL     1      36.684 -21.525 -17.500  0.00  0.00    -0.460 OA
ATOM      2  O   UNL     1      35.738 -25.144 -13.424  0.00  0.00    -0.468 OA
ATOM      3  O   UNL     1      38.181 -23.620 -13.544  0.00  0.00    -0.468 OA
ATOM      4  O   UNL     1      32.995 -23.243 -17.219  0.00  0.00    -0.270 OA
ATOM      5  N   UNL     1      34.583 -22.106 -18.464  0.00  0.00    -0.244 N 
ATOM      6  C   UNL     1      35.990 -21.857 -18.699  0.00  0.00    +0.247 C 
ATOM      7  C   UNL     1      35.979 -20.697 -19.687  0.00  0.00    +0.067 C 
ATOM      8  C   UNL     1      34.735 -20.988 -20.524  0.00  0.00    +0.027 C 
ATOM      9  C   UNL     1      33.744 -21.532 -19.501  0.00  0.00    +0.097 C 
ATOM     10  C   UNL     1      34.144 -22.860 -17.402  0.00  0.00    +0.254 C 
ATOM     11  C   UNL     1      35.213 -23.137 -16.414  0.00  0.00    +0.091 C 
ATOM     12  C   UNL     1      36.424 -22.434 -16.503  0.00  0.00    +0.148 C 
ATOM     13  C   UNL     1      34.995 -24.037 -15.369  0.00  0.00    +0.048 C 
ATOM     14  C   UNL     1      37.405 -22.606 -15.527  0.00  0.00    +0.077 C 
ATOM     15  C   UNL     1      35.994 -24.231 -14.414  0.00  0.00    +0.173 C 
ATOM     16  C   UNL     1      37.185 -23.500 -14.479  0.00  0.00    +0.175 C 
ATOM     17  C   UNL     1      36.925 -25.512 -12.716  0.00  0.00    +0.253 C 
ATOM     18  C   UNL     1      37.726 -24.275 -12.357  0.00  0.00    +0.253 C 
ENDROOT
TORSDOF 0
ENDMDL
MODEL 5
REMARK VINA RESULT:      -8.6      3.671      6.550
REMARK  Name = 5288002
REMARK  0 active torsions:
REMARK  status: ('A' for Active; 'I' for Inactive)
REMARK                            x       y       z     vdW  Elec       q    Type
REMARK                         _______ _______ _______ _____ _____    ______ ____
ROOT
ATOM      1  O   UNL     1      34.734 -24.423 -13.223  0.00  0.00    -0.460 OA
ATOM      2  O   UNL     1      30.995 -22.707 -16.922  0.00  0.00    -0.468 OA
ATOM      3  O   UNL     1      30.226 -23.480 -14.255  0.00  0.00    -0.468 OA
ATOM      4  O   UNL     1      36.043 -22.924 -16.783  0.00  0.00    -0.270 OA
ATOM      5  N   UNL     1      36.438 -24.166 -14.869  0.00  0.00    -0.244 N 
ATOM      6  C   UNL     1      35.879 -25.009 -13.833  0.00  0.00    +0.247 C 
ATOM      7  C   UNL     1      37.031 -25.162 -12.848  0.00  0.00    +0.067 C 
ATOM      8  C   UNL     1      38.252 -25.170 -13.765  0.00  0.00    +0.027 C 
ATOM      9  C   UNL     1      37.890 -24.150 -14.839  0.00  0.00    +0.097 C 
ATOM     10  C   UNL     1      35.647 -23.525 -15.793  0.00  0.00    +0.254 C 
ATOM     11  C   UNL     1      34.207 -23.571 -15.444  0.00  0.00    +0.091 C 
ATOM     12  C   UNL     1      33.827 -23.998 -14.163  0.00  0.00    +0.148 C 
ATOM     13  C   UNL     1      33.245 -23.132 -16.356  0.00  0.00    +0.048 C 
ATOM     14  C   UNL     1      32.487 -23.954 -13.781  0.00  0.00    +0.077 C 
ATOM     15  C   UNL     1      31.900 -23.124 -15.980  0.00  0.00    +0.173 C 
ATOM     16  C   UNL     1      31.525 -23.510 -14.689  0.00  0.00    +0.175 C 
ATOM     17  C   UNL     1      29.654 -23.054 -16.564  0.00  0.00    +0.253 C 
ATOM     18  C   UNL     1      29.391 -22.699 -15.114  0.00  0.00    +0.253 C 
ENDROOT
TORSDOF 0
ENDMDL
MODEL 6
REMARK VINA RESULT:      -8.6      3.864      5.192
REMARK  Name = 5288002
REMARK  0 active torsions:
REMARK  status: ('A' for Active; 'I' for Inactive)
REMARK                            x       y       z     vdW  Elec       q    Type
REMARK                         _______ _______ _______ _____ _____    ______ ____
ROOT
ATOM      1  O   UNL     1      32.627 -24.080 -13.418  0.00  0.00    -0.460 OA
ATOM      2  O   UNL     1      38.025 -24.642 -14.490  0.00  0.00    -0.468 OA
ATOM      3  O   UNL     1      36.935 -25.268 -11.897  0.00  0.00    -0.468 OA
ATOM      4  O   UNL     1      33.924 -23.606 -17.256  0.00  0.00    -0.270 OA
ATOM      5  N   UNL     1      32.299 -23.280 -15.640  0.00  0.00    -0.244 N 
ATOM      6  C   UNL     1      32.007 -23.091 -14.233  0.00  0.00    +0.247 C 
ATOM      7  C   UNL     1      30.487 -23.181 -14.178  0.00  0.00    +0.067 C 
ATOM      8  C   UNL     1      30.070 -22.553 -15.505  0.00  0.00    +0.027 C 
ATOM      9  C   UNL     1      31.136 -23.046 -16.477  0.00  0.00    +0.097 C 
ATOM     10  C   UNL     1      33.564 -23.581 -16.086  0.00  0.00    +0.254 C 
ATOM     11  C   UNL     1      34.486 -23.952 -14.988  0.00  0.00    +0.091 C 
ATOM     12  C   UNL     1      33.964 -24.205 -13.711  0.00  0.00    +0.148 C 
ATOM     13  C   UNL     1      35.852 -24.111 -15.236  0.00  0.00    +0.048 C 
ATOM     14  C   UNL     1      34.800 -24.652 -12.689  0.00  0.00    +0.077 C 
ATOM     15  C   UNL     1      36.691 -24.525 -14.199  0.00  0.00    +0.173 C 
ATOM     16  C   UNL     1      36.163 -24.818 -12.937  0.00  0.00    +0.175 C 
ATOM     17  C   UNL     1      38.824 -24.734 -13.307  0.00  0.00    +0.253 C 
ATOM     18  C   UNL     1      38.214 -25.729 -12.339  0.00  0.00    +0.253 C 
ENDROOT
TORSDOF 0
ENDMDL
MODEL 7
REMARK VINA RESULT:      -8.5      2.169      6.106
REMARK  Name = 5288002
REMARK  0 active torsions:
REMARK  status: ('A' for Active; 'I' for Inactive)
REMARK                            x       y       z     vdW  Elec       q    Type
REMARK                         _______ _______ _______ _____ _____    ______ ____
ROOT
ATOM      1  O   UNL     1      37.460 -22.911 -14.562  0.00  0.00    -0.460 OA
ATOM      2  O   UNL     1      34.051 -22.183 -18.858  0.00  0.00    -0.468 OA
ATOM      3  O   UNL     1      36.779 -21.259 -18.931  0.00  0.00    -0.468 OA
ATOM      4  O   UNL     1      33.790 -24.689 -14.477  0.00  0.00    -0.270 OA
ATOM      5  N   UNL     1      35.680 -23.948 -13.363  0.00  0.00    -0.244 N 
ATOM      6  C   UNL     1      36.767 -22.991 -13.321  0.00  0.00    +0.247 C 
ATOM      7  C   UNL     1      37.659 -23.526 -12.207  0.00  0.00    +0.067 C 
ATOM      8  C   UNL     1      36.647 -24.120 -11.230  0.00  0.00    +0.027 C 
ATOM      9  C   UNL     1      35.594 -24.735 -12.146  0.00  0.00    +0.097 C 
ATOM     10  C   UNL     1      34.816 -24.021 -14.429  0.00  0.00    +0.254 C 
ATOM     11  C   UNL     1      35.278 -23.236 -15.597  0.00  0.00    +0.091 C 
ATOM     12  C   UNL     1      36.590 -22.739 -15.612  0.00  0.00    +0.148 C 
ATOM     13  C   UNL     1      34.440 -23.048 -16.699  0.00  0.00    +0.048 C 
ATOM     14  C   UNL     1      37.077 -22.084 -16.742  0.00  0.00    +0.077 C 
ATOM     15  C   UNL     1      34.922 -22.360 -17.815  0.00  0.00    +0.173 C 
ATOM     16  C   UNL     1      36.243 -21.902 -17.846  0.00  0.00    +0.175 C 
ATOM     17  C   UNL     1      34.517 -21.196 -19.782  0.00  0.00    +0.253 C 
ATOM     18  C   UNL     1      35.980 -21.431 -20.105  0.00  0.00    +0.253 C 
ENDROOT
TORSDOF 0
ENDMDL
MODEL 8
REMARK VINA RESULT:      -8.5      6.509     10.015
REMARK  Name = 5288002
REMARK  0 active torsions:
REMARK  status: ('A' for Active; 'I' for Inactive)
REMARK                            x       y       z     vdW  Elec       q    Type
REMARK                         _______ _______ _______ _____ _____    ______ ____
ROOT
ATOM      1  O   UNL     1      34.152 -16.291 -20.815  0.00  0.00    -0.460 OA
ATOM      2  O   UNL     1      31.505 -11.777 -22.614  0.00  0.00    -0.468 OA
ATOM      3  O   UNL     1      31.888 -12.275 -19.801  0.00  0.00    -0.468 OA
ATOM      4  O   UNL     1      34.112 -15.505 -24.818  0.00  0.00    -0.270 OA
ATOM      5  N   UNL     1      34.419 -16.999 -23.076  0.00  0.00    -0.244 N 
ATOM      6  C   UNL     1      34.056 -17.381 -21.726  0.00  0.00    +0.247 C 
ATOM      7  C   UNL     1      35.053 -18.485 -21.396  0.00  0.00    +0.067 C 
ATOM      8  C   UNL     1      35.242 -19.174 -22.746  0.00  0.00    +0.027 C 
ATOM      9  C   UNL     1      35.217 -18.015 -23.737  0.00  0.00    +0.097 C 
ATOM     10  C   UNL     1      33.980 -15.827 -23.644  0.00  0.00    +0.254 C 
ATOM     11  C   UNL     1      33.355 -14.912 -22.660  0.00  0.00    +0.091 C 
ATOM     12  C   UNL     1      33.494 -15.181 -21.290  0.00  0.00    +0.148 C 
ATOM     13  C   UNL     1      32.691 -13.760 -23.088  0.00  0.00    +0.048 C 
ATOM     14  C   UNL     1      33.001 -14.281 -20.347  0.00  0.00    +0.077 C 
ATOM     15  C   UNL     1      32.168 -12.879 -22.139  0.00  0.00    +0.173 C 
ATOM     16  C   UNL     1      32.344 -13.127 -20.774  0.00  0.00    +0.175 C 
ATOM     17  C   UNL     1      30.731 -11.140 -21.594  0.00  0.00    +0.253 C 
ATOM     18  C   UNL     1      31.554 -10.989 -20.329  0.00  0.00    +0.253 C 
ENDROOT
TORSDOF 0
ENDMDL
MODEL 9
REMARK VINA RESULT:      -8.5      3.756      6.491
REMARK  Name = 5288002
REMARK  0 active torsions:
REMARK  status: ('A' for Active; 'I' for Inactive)
REMARK                            x       y       z     vdW  Elec       q    Type
REMARK                         _______ _______ _______ _____ _____    ______ ____
ROOT
ATOM      1  O   UNL     1      34.462 -23.232 -16.398  0.00  0.00    -0.460 OA
ATOM      2  O   UNL     1      29.261 -23.123 -14.515  0.00  0.00    -0.468 OA
ATOM      3  O   UNL     1      29.873 -22.554 -17.273  0.00  0.00    -0.468 OA
ATOM      4  O   UNL     1      33.725 -24.518 -12.598  0.00  0.00    -0.270 OA
ATOM      5  N   UNL     1      35.216 -23.761 -14.200  0.00  0.00    -0.244 N 
ATOM      6  C   UNL     1      35.419 -22.948 -15.382  0.00  0.00    +0.247 C 
ATOM      7  C   UNL     1      36.833 -23.311 -15.817  0.00  0.00    +0.067 C 
ATOM      8  C   UNL     1      37.538 -23.549 -14.484  0.00  0.00    +0.027 C 
ATOM      9  C   UNL     1      36.469 -24.233 -13.639  0.00  0.00    +0.097 C 
ATOM     10  C   UNL     1      33.966 -23.977 -13.670  0.00  0.00    +0.254 C 
ATOM     11  C   UNL     1      32.877 -23.536 -14.572  0.00  0.00    +0.091 C 
ATOM     12  C   UNL     1      33.181 -23.207 -15.902  0.00  0.00    +0.148 C 
ATOM     13  C   UNL     1      31.554 -23.511 -14.125  0.00  0.00    +0.048 C 
ATOM     14  C   UNL     1      32.159 -22.886 -16.794  0.00  0.00    +0.077 C 
ATOM     15  C   UNL     1      30.538 -23.155 -15.013  0.00  0.00    +0.173 C 
ATOM     16  C   UNL     1      30.837 -22.868 -16.349  0.00  0.00    +0.175 C 
ATOM     17  C   UNL     1      28.364 -22.432 -15.389  0.00  0.00    +0.253 C 
ATOM     18  C   UNL     1      28.562 -22.899 -16.818  0.00  0.00    +0.253 C 
ENDROOT
TORSDOF 0
ENDMDL
