MODEL 1
REMARK VINA RESULT:     -12.3      0.000      0.000
REMARK  Name = 9976892
REMARK  4 active torsions:
REMARK  status: ('A' for Active; 'I' for Inactive)
REMARK    1  A    between atoms: N_1  and  C_13
REMARK    2  A    between atoms: C_10  and  O_17
REMARK    3  A    between atoms: O_17  and  C_20
REMARK    4  A    between atoms: C_19  and  N_25
REMARK                            x       y       z     vdW  Elec       q    Type
REMARK                         _______ _______ _______ _____ _____    ______ ____
ROOT
ATOM      1  N   UNL     1      36.655 -24.087 -14.348  0.00  0.00    +0.389 N 
ATOM      2  C   UNL     1      37.550 -23.497 -15.355  0.00  0.00    -0.073 C 
ATOM      3  C   UNL     1      35.387 -24.576 -14.911  0.00  0.00    -0.073 C 
ATOM      4  C   UNL     1      37.058 -22.148 -15.890  0.00  0.00    +0.003 C 
ATOM      5  C   UNL     1      34.443 -23.452 -15.351  0.00  0.00    +0.003 C 
ATOM      6  C   UNL     1      36.010 -22.276 -16.967  0.00  0.00    -0.025 C 
ATOM      7  C   UNL     1      34.773 -22.893 -16.712  0.00  0.00    -0.028 C 
ATOM      8  C   UNL     1      36.268 -21.757 -18.246  0.00  0.00    +0.033 C 
ATOM      9  C   UNL     1      33.821 -22.976 -17.742  0.00  0.00    -0.002 C 
ATOM     10  C   UNL     1      35.315 -21.850 -19.261  0.00  0.00    +0.147 C 
ATOM     11  C   UNL     1      34.092 -22.459 -19.008  0.00  0.00    +0.037 C 
ATOM     12  H   UNL     1      36.423 -23.353 -13.678  0.00  0.00    -0.080 HD
ENDROOT
BRANCH   1  13
ATOM     13  C   UNL     1      37.339 -25.193 -13.729  0.00  0.00    -0.058 C 
ATOM     14  C   UNL     1      38.491 -25.697 -14.621  0.00  0.00    -0.021 C 
ATOM     15  C   UNL     1      38.419 -24.692 -12.748  0.00  0.00    -0.021 C 
ATOM     16  C   UNL     1      39.348 -25.773 -13.339  0.00  0.00    -0.004 C 
ENDBRANCH   1  13
BRANCH  10  17
ATOM     17  O   UNL     1      35.583 -21.342 -20.494  0.00  0.00    -0.436 OA
BRANCH  17  20
ATOM     18  N   UNL     1      36.083 -19.093 -20.766  0.00  0.00    -0.209 NA
ATOM     19  C   UNL     1      34.321 -17.528 -21.308  0.00  0.00    +0.073 C 
ATOM     20  C   UNL     1      35.146 -20.057 -20.771  0.00  0.00    +0.230 C 
ATOM     21  C   UNL     1      33.392 -18.562 -21.301  0.00  0.00    +0.021 C 
ATOM     22  C   UNL     1      35.643 -17.843 -21.037  0.00  0.00    +0.117 C 
ATOM     23  C   UNL     1      33.805 -19.861 -21.026  0.00  0.00    +0.059 C 
BRANCH  19  25
ATOM     24  O   UNL     1      35.229 -15.602 -23.498  0.00  0.00    -0.275 OA
ATOM     25  N   UNL     1      33.926 -16.186 -21.586  0.00  0.00    -0.257 N 
ATOM     26  C   UNL     1      32.561 -14.290 -21.591  0.00  0.00    +0.031 C 
ATOM     27  C   UNL     1      33.002 -15.460 -20.736  0.00  0.00    +0.099 C 
ATOM     28  C   UNL     1      33.776 -14.004 -22.451  0.00  0.00    +0.087 C 
ATOM     29  C   UNL     1      34.410 -15.366 -22.623  0.00  0.00    +0.229 C 
ENDBRANCH  19  25
ENDBRANCH  17  20
ENDBRANCH  10  17
TORSDOF 4
ENDMDL
MODEL 2
REMARK VINA RESULT:     -12.0      3.938     12.036
REMARK  Name = 9976892
REMARK  4 active torsions:
REMARK  status: ('A' for Active; 'I' for Inactive)
REMARK    1  A    between atoms: N_1  and  C_13
REMARK    2  A    between atoms: C_10  and  O_17
REMARK    3  A    between atoms: O_17  and  C_20
REMARK    4  A    between atoms: C_19  and  N_25
REMARK                            x       y       z     vdW  Elec       q    Type
REMARK                         _______ _______ _______ _____ _____    ______ ____
ROOT
ATOM      1  N   UNL     1      32.392  -8.983 -22.541  0.00  0.00    +0.389 N 
ATOM      2  C   UNL     1      33.531  -9.491 -23.319  0.00  0.00    -0.073 C 
ATOM      3  C   UNL     1      31.946  -9.909 -21.488  0.00  0.00    -0.073 C 
ATOM      4  C   UNL     1      33.163 -10.654 -24.247  0.00  0.00    +0.003 C 
ATOM      5  C   UNL     1      31.245 -11.157 -22.033  0.00  0.00    +0.003 C 
ATOM      6  C   UNL     1      33.110 -11.988 -23.545  0.00  0.00    -0.025 C 
ATOM      7  C   UNL     1      32.202 -12.225 -22.497  0.00  0.00    -0.028 C 
ATOM      8  C   UNL     1      33.972 -13.018 -23.952  0.00  0.00    +0.033 C 
ATOM      9  C   UNL     1      32.178 -13.489 -21.882  0.00  0.00    -0.002 C 
ATOM     10  C   UNL     1      33.941 -14.266 -23.330  0.00  0.00    +0.147 C 
ATOM     11  C   UNL     1      33.043 -14.501 -22.296  0.00  0.00    +0.037 C 
ATOM     12  H   UNL     1      31.610  -8.862 -23.186  0.00  0.00    -0.080 HD
ENDROOT
BRANCH   1  13
ATOM     13  C   UNL     1      32.785  -7.742 -21.923  0.00  0.00    -0.058 C 
ATOM     14  C   UNL     1      31.706  -6.659 -22.128  0.00  0.00    -0.021 C 
ATOM     15  C   UNL     1      32.407  -7.728 -20.428  0.00  0.00    -0.021 C 
ATOM     16  C   UNL     1      31.912  -6.283 -20.646  0.00  0.00    -0.004 C 
ENDBRANCH   1  13
BRANCH  10  17
ATOM     17  O   UNL     1      34.785 -15.251 -23.738  0.00  0.00    -0.436 OA
BRANCH  17  20
ATOM     18  N   UNL     1      35.000 -16.283 -21.671  0.00  0.00    -0.209 NA
ATOM     19  C   UNL     1      34.881 -18.693 -21.514  0.00  0.00    +0.073 C 
ATOM     20  C   UNL     1      34.816 -16.421 -22.996  0.00  0.00    +0.230 C 
ATOM     21  C   UNL     1      34.693 -18.780 -22.889  0.00  0.00    +0.021 C 
ATOM     22  C   UNL     1      35.028 -17.433 -20.958  0.00  0.00    +0.117 C 
ATOM     23  C   UNL     1      34.659 -17.621 -23.656  0.00  0.00    +0.059 C 
BRANCH  19  25
ATOM     24  O   UNL     1      32.619 -20.408 -20.386  0.00  0.00    -0.275 OA
ATOM     25  N   UNL     1      34.921 -19.865 -20.702  0.00  0.00    -0.257 N 
ATOM     26  C   UNL     1      35.798 -21.815 -19.760  0.00  0.00    +0.031 C 
ATOM     27  C   UNL     1      36.165 -20.411 -20.192  0.00  0.00    +0.099 C 
ATOM     28  C   UNL     1      34.353 -21.684 -19.323  0.00  0.00    +0.087 C 
ATOM     29  C   UNL     1      33.816 -20.591 -20.219  0.00  0.00    +0.229 C 
ENDBRANCH  19  25
ENDBRANCH  17  20
ENDBRANCH  10  17
TORSDOF 4
ENDMDL
MODEL 3
REMARK VINA RESULT:     -11.8      3.966     12.075
REMARK  Name = 9976892
REMARK  4 active torsions:
REMARK  status: ('A' for Active; 'I' for Inactive)
REMARK    1  A    between atoms: N_1  and  C_13
REMARK    2  A    between atoms: C_10  and  O_17
REMARK    3  A    between atoms: O_17  and  C_20
REMARK    4  A    between atoms: C_19  and  N_25
REMARK                            x       y       z     vdW  Elec       q    Type
REMARK                         _______ _______ _______ _____ _____    ______ ____
ROOT
ATOM      1  N   UNL     1      32.433  -8.863 -22.750  0.00  0.00    +0.389 N 
ATOM      2  C   UNL     1      33.615  -9.392 -23.446  0.00  0.00    -0.073 C 
ATOM      3  C   UNL     1      31.938  -9.751 -21.686  0.00  0.00    -0.073 C 
ATOM      4  C   UNL     1      33.305 -10.595 -24.345  0.00  0.00    +0.003 C 
ATOM      5  C   UNL     1      31.277 -11.026 -22.217  0.00  0.00    +0.003 C 
ATOM      6  C   UNL     1      33.225 -11.900 -23.593  0.00  0.00    -0.025 C 
ATOM      7  C   UNL     1      32.264 -12.104 -22.586  0.00  0.00    -0.028 C 
ATOM      8  C   UNL     1      34.115 -12.937 -23.913  0.00  0.00    +0.033 C 
ATOM      9  C   UNL     1      32.217 -13.342 -21.923  0.00  0.00    -0.002 C 
ATOM     10  C   UNL     1      34.059 -14.159 -23.244  0.00  0.00    +0.147 C 
ATOM     11  C   UNL     1      33.109 -14.361 -22.250  0.00  0.00    +0.037 C 
ATOM     12  H   UNL     1      31.686  -8.776 -23.440  0.00  0.00    -0.080 HD
ENDROOT
BRANCH   1  13
ATOM     13  C   UNL     1      32.784  -7.596 -22.164  0.00  0.00    -0.058 C 
ATOM     14  C   UNL     1      31.562  -6.657 -22.109  0.00  0.00    -0.021 C 
ATOM     15  C   UNL     1      32.706  -7.661 -20.624  0.00  0.00    -0.021 C 
ATOM     16  C   UNL     1      32.005  -6.288 -20.678  0.00  0.00    -0.004 C 
ENDBRANCH   1  13
BRANCH  10  17
ATOM     17  O   UNL     1      34.931 -15.153 -23.567  0.00  0.00    -0.436 OA
BRANCH  17  20
ATOM     18  N   UNL     1      34.946 -16.274 -21.536  0.00  0.00    -0.209 NA
ATOM     19  C   UNL     1      34.639 -18.673 -21.487  0.00  0.00    +0.073 C 
ATOM     20  C   UNL     1      34.831 -16.348 -22.874  0.00  0.00    +0.230 C 
ATOM     21  C   UNL     1      34.526 -18.693 -22.873  0.00  0.00    +0.021 C 
ATOM     22  C   UNL     1      34.846 -17.449 -20.872  0.00  0.00    +0.117 C 
ATOM     23  C   UNL     1      34.624 -17.507 -23.591  0.00  0.00    +0.059 C 
BRANCH  19  25
ATOM     24  O   UNL     1      36.815 -20.386 -20.199  0.00  0.00    -0.275 OA
ATOM     25  N   UNL     1      34.544 -19.873 -20.723  0.00  0.00    -0.257 N 
ATOM     26  C   UNL     1      33.569 -21.488 -19.344  0.00  0.00    +0.031 C 
ATOM     27  C   UNL     1      33.280 -20.547 -20.494  0.00  0.00    +0.099 C 
ATOM     28  C   UNL     1      35.028 -21.848 -19.542  0.00  0.00    +0.087 C 
ATOM     29  C   UNL     1      35.613 -20.604 -20.170  0.00  0.00    +0.229 C 
ENDBRANCH  19  25
ENDBRANCH  17  20
ENDBRANCH  10  17
TORSDOF 4
ENDMDL
MODEL 4
REMARK VINA RESULT:     -11.1      5.787     13.902
REMARK  Name = 9976892
REMARK  4 active torsions:
REMARK  status: ('A' for Active; 'I' for Inactive)
REMARK    1  A    between atoms: N_1  and  C_13
REMARK    2  A    between atoms: C_10  and  O_17
REMARK    3  A    between atoms: O_17  and  C_20
REMARK    4  A    between atoms: C_19  and  N_25
REMARK                            x       y       z     vdW  Elec       q    Type
REMARK                         _______ _______ _______ _____ _____    ______ ____
ROOT
ATOM      1  N   UNL     1      32.821  -6.791 -22.904  0.00  0.00    +0.389 N 
ATOM      2  C   UNL     1      31.890  -7.925 -22.999  0.00  0.00    -0.073 C 
ATOM      3  C   UNL     1      33.891  -6.830 -23.913  0.00  0.00    -0.073 C 
ATOM      4  C   UNL     1      32.506  -9.257 -22.557  0.00  0.00    +0.003 C 
ATOM      5  C   UNL     1      34.926  -7.931 -23.660  0.00  0.00    +0.003 C 
ATOM      6  C   UNL     1      33.341  -9.916 -23.627  0.00  0.00    -0.025 C 
ATOM      7  C   UNL     1      34.486  -9.288 -24.148  0.00  0.00    -0.028 C 
ATOM      8  C   UNL     1      32.978 -11.186 -24.101  0.00  0.00    +0.033 C 
ATOM      9  C   UNL     1      35.243  -9.946 -25.133  0.00  0.00    -0.002 C 
ATOM     10  C   UNL     1      33.736 -11.826 -25.082  0.00  0.00    +0.147 C 
ATOM     11  C   UNL     1      34.868 -11.206 -25.597  0.00  0.00    +0.037 C 
ATOM     12  H   UNL     1      33.269  -6.840 -21.988  0.00  0.00    -0.080 HD
ENDROOT
BRANCH   1  13
ATOM     13  C   UNL     1      32.070  -5.575 -23.078  0.00  0.00    -0.058 C 
ATOM     14  C   UNL     1      32.285  -4.992 -24.489  0.00  0.00    -0.021 C 
ATOM     15  C   UNL     1      30.620  -5.880 -23.507  0.00  0.00    -0.021 C 
ATOM     16  C   UNL     1      30.764  -4.734 -24.531  0.00  0.00    -0.004 C 
ENDBRANCH   1  13
BRANCH  10  17
ATOM     17  O   UNL     1      33.368 -13.057 -25.531  0.00  0.00    -0.436 OA
BRANCH  17  20
ATOM     18  N   UNL     1      33.744 -15.343 -25.402  0.00  0.00    -0.209 NA
ATOM     19  C   UNL     1      34.442 -16.328 -23.307  0.00  0.00    +0.073 C 
ATOM     20  C   UNL     1      33.732 -14.155 -24.770  0.00  0.00    +0.230 C 
ATOM     21  C   UNL     1      34.415 -15.077 -22.702  0.00  0.00    +0.021 C 
ATOM     22  C   UNL     1      34.101 -16.407 -24.648  0.00  0.00    +0.117 C 
ATOM     23  C   UNL     1      34.052 -13.958 -23.444  0.00  0.00    +0.059 C 
BRANCH  19  25
ATOM     24  O   UNL     1      35.303 -16.649 -20.394  0.00  0.00    -0.275 OA
ATOM     25  N   UNL     1      34.810 -17.493 -22.572  0.00  0.00    -0.257 N 
ATOM     26  C   UNL     1      34.905 -19.761 -22.018  0.00  0.00    +0.031 C 
ATOM     27  C   UNL     1      34.902 -18.802 -23.190  0.00  0.00    +0.099 C 
ATOM     28  C   UNL     1      35.592 -18.974 -20.921  0.00  0.00    +0.087 C 
ATOM     29  C   UNL     1      35.203 -17.544 -21.220  0.00  0.00    +0.229 C 
ENDBRANCH  19  25
ENDBRANCH  17  20
ENDBRANCH  10  17
TORSDOF 4
ENDMDL
MODEL 5
REMARK VINA RESULT:     -11.0      2.191     10.152
REMARK  Name = 9976892
REMARK  4 active torsions:
REMARK  status: ('A' for Active; 'I' for Inactive)
REMARK    1  A    between atoms: N_1  and  C_13
REMARK    2  A    between atoms: C_10  and  O_17
REMARK    3  A    between atoms: O_17  and  C_20
REMARK    4  A    between atoms: C_19  and  N_25
REMARK                            x       y       z     vdW  Elec       q    Type
REMARK                         _______ _______ _______ _____ _____    ______ ____
ROOT
ATOM      1  N   UNL     1      32.796 -13.387 -21.226  0.00  0.00    +0.389 N 
ATOM      2  C   UNL     1      32.557 -14.647 -20.507  0.00  0.00    -0.073 C 
ATOM      3  C   UNL     1      33.094 -13.579 -22.654  0.00  0.00    -0.073 C 
ATOM      4  C   UNL     1      33.824 -15.487 -20.314  0.00  0.00    +0.003 C 
ATOM      5  C   UNL     1      34.474 -14.194 -22.909  0.00  0.00    +0.003 C 
ATOM      6  C   UNL     1      34.190 -16.306 -21.526  0.00  0.00    -0.025 C 
ATOM      7  C   UNL     1      34.498 -15.694 -22.754  0.00  0.00    -0.028 C 
ATOM      8  C   UNL     1      34.240 -17.705 -21.425  0.00  0.00    +0.033 C 
ATOM      9  C   UNL     1      34.849 -16.497 -23.853  0.00  0.00    -0.002 C 
ATOM     10  C   UNL     1      34.585 -18.490 -22.525  0.00  0.00    +0.147 C 
ATOM     11  C   UNL     1      34.891 -17.885 -23.738  0.00  0.00    +0.037 C 
ATOM     12  H   UNL     1      33.614 -12.945 -20.805  0.00  0.00    -0.080 HD
ENDROOT
BRANCH   1  13
ATOM     13  C   UNL     1      31.615 -12.570 -21.110  0.00  0.00    -0.058 C 
ATOM     14  C   UNL     1      31.697 -11.657 -19.870  0.00  0.00    -0.021 C 
ATOM     15  C   UNL     1      31.745 -11.292 -21.965  0.00  0.00    -0.021 C 
ATOM     16  C   UNL     1      31.156 -10.522 -20.764  0.00  0.00    -0.004 C 
ENDBRANCH   1  13
BRANCH  10  17
ATOM     17  O   UNL     1      34.627 -19.845 -22.408  0.00  0.00    -0.436 OA
BRANCH  17  20
ATOM     18  N   UNL     1      34.048 -20.988 -20.474  0.00  0.00    -0.209 NA
ATOM     19  C   UNL     1      35.727 -21.424 -18.789  0.00  0.00    +0.073 C 
ATOM     20  C   UNL     1      35.010 -20.375 -21.187  0.00  0.00    +0.230 C 
ATOM     21  C   UNL     1      36.684 -20.780 -19.566  0.00  0.00    +0.021 C 
ATOM     22  C   UNL     1      34.435 -21.500 -19.283  0.00  0.00    +0.117 C 
ATOM     23  C   UNL     1      36.325 -20.240 -20.796  0.00  0.00    +0.059 C 
BRANCH  19  25
ATOM     24  O   UNL     1      34.279 -23.511 -17.092  0.00  0.00    -0.275 OA
ATOM     25  N   UNL     1      36.066 -21.987 -17.523  0.00  0.00    -0.257 N 
ATOM     26  C   UNL     1      37.429 -22.647 -15.744  0.00  0.00    +0.031 C 
ATOM     27  C   UNL     1      37.221 -21.548 -16.764  0.00  0.00    +0.099 C 
ATOM     28  C   UNL     1      36.025 -23.155 -15.482  0.00  0.00    +0.087 C 
ATOM     29  C   UNL     1      35.326 -22.948 -16.807  0.00  0.00    +0.229 C 
ENDBRANCH  19  25
ENDBRANCH  17  20
ENDBRANCH  10  17
TORSDOF 4
ENDMDL
MODEL 6
REMARK VINA RESULT:     -11.0      1.966      3.436
REMARK  Name = 9976892
REMARK  4 active torsions:
REMARK  status: ('A' for Active; 'I' for Inactive)
REMARK    1  A    between atoms: N_1  and  C_13
REMARK    2  A    between atoms: C_10  and  O_17
REMARK    3  A    between atoms: O_17  and  C_20
REMARK    4  A    between atoms: C_19  and  N_25
REMARK                            x       y       z     vdW  Elec       q    Type
REMARK                         _______ _______ _______ _____ _____    ______ ____
ROOT
ATOM      1  N   UNL     1      33.228 -23.555 -15.292  0.00  0.00    +0.389 N 
ATOM      2  C   UNL     1      32.650 -23.210 -16.599  0.00  0.00    -0.073 C 
ATOM      3  C   UNL     1      34.447 -22.795 -14.974  0.00  0.00    -0.073 C 
ATOM      4  C   UNL     1      33.486 -23.707 -17.784  0.00  0.00    +0.003 C 
ATOM      5  C   UNL     1      35.657 -23.207 -15.818  0.00  0.00    +0.003 C 
ATOM      6  C   UNL     1      34.650 -22.808 -18.116  0.00  0.00    -0.025 C 
ATOM      7  C   UNL     1      35.678 -22.572 -17.185  0.00  0.00    -0.028 C 
ATOM      8  C   UNL     1      34.719 -22.206 -19.382  0.00  0.00    +0.033 C 
ATOM      9  C   UNL     1      36.752 -21.739 -17.544  0.00  0.00    -0.002 C 
ATOM     10  C   UNL     1      35.788 -21.378 -19.723  0.00  0.00    +0.147 C 
ATOM     11  C   UNL     1      36.804 -21.145 -18.804  0.00  0.00    +0.037 C 
ATOM     12  H   UNL     1      33.489 -24.541 -15.324  0.00  0.00    -0.080 HD
ENDROOT
BRANCH   1  13
ATOM     13  C   UNL     1      32.242 -23.285 -14.277  0.00  0.00    -0.058 C 
ATOM     14  C   UNL     1      30.881 -22.934 -14.911  0.00  0.00    -0.021 C 
ATOM     15  C   UNL     1      31.589 -24.593 -13.784  0.00  0.00    -0.021 C 
ATOM     16  C   UNL     1      30.236 -23.852 -13.852  0.00  0.00    -0.004 C 
ENDBRANCH   1  13
BRANCH  10  17
ATOM     17  O   UNL     1      35.837 -20.802 -20.955  0.00  0.00    -0.436 OA
BRANCH  17  20
ATOM     18  N   UNL     1      36.093 -18.524 -21.317  0.00  0.00    -0.209 NA
ATOM     19  C   UNL     1      34.144 -17.096 -21.405  0.00  0.00    +0.073 C 
ATOM     20  C   UNL     1      35.254 -19.554 -21.106  0.00  0.00    +0.230 C 
ATOM     21  C   UNL     1      33.321 -18.195 -21.185  0.00  0.00    +0.021 C 
ATOM     22  C   UNL     1      35.511 -17.312 -21.462  0.00  0.00    +0.117 C 
ATOM     23  C   UNL     1      33.881 -19.457 -21.030  0.00  0.00    +0.059 C 
BRANCH  19  25
ATOM     24  O   UNL     1      33.571 -15.481 -23.934  0.00  0.00    -0.275 OA
ATOM     25  N   UNL     1      33.598 -15.788 -21.567  0.00  0.00    -0.257 N 
ATOM     26  C   UNL     1      32.377 -13.871 -21.025  0.00  0.00    +0.031 C 
ATOM     27  C   UNL     1      33.278 -14.938 -20.437  0.00  0.00    +0.099 C 
ATOM     28  C   UNL     1      32.884 -13.727 -22.446  0.00  0.00    +0.087 C 
ATOM     29  C   UNL     1      33.375 -15.116 -22.784  0.00  0.00    +0.229 C 
ENDBRANCH  19  25
ENDBRANCH  17  20
ENDBRANCH  10  17
TORSDOF 4
ENDMDL
MODEL 7
REMARK VINA RESULT:     -10.9      3.149      9.917
REMARK  Name = 9976892
REMARK  4 active torsions:
REMARK  status: ('A' for Active; 'I' for Inactive)
REMARK    1  A    between atoms: N_1  and  C_13
REMARK    2  A    between atoms: C_10  and  O_17
REMARK    3  A    between atoms: O_17  and  C_20
REMARK    4  A    between atoms: C_19  and  N_25
REMARK                            x       y       z     vdW  Elec       q    Type
REMARK                         _______ _______ _______ _____ _____    ______ ____
ROOT
ATOM      1  N   UNL     1      32.918 -13.575 -21.314  0.00  0.00    +0.389 N 
ATOM      2  C   UNL     1      33.196 -14.667 -20.370  0.00  0.00    -0.073 C 
ATOM      3  C   UNL     1      32.827 -14.023 -22.713  0.00  0.00    -0.073 C 
ATOM      4  C   UNL     1      34.623 -15.215 -20.477  0.00  0.00    +0.003 C 
ATOM      5  C   UNL     1      34.176 -14.435 -23.309  0.00  0.00    +0.003 C 
ATOM      6  C   UNL     1      34.802 -16.206 -21.599  0.00  0.00    -0.025 C 
ATOM      7  C   UNL     1      34.590 -15.836 -22.939  0.00  0.00    -0.028 C 
ATOM      8  C   UNL     1      35.201 -17.519 -21.304  0.00  0.00    +0.033 C 
ATOM      9  C   UNL     1      34.784 -16.790 -23.954  0.00  0.00    -0.002 C 
ATOM     10  C   UNL     1      35.385 -18.457 -22.320  0.00  0.00    +0.147 C 
ATOM     11  C   UNL     1      35.178 -18.091 -23.645  0.00  0.00    +0.037 C 
ATOM     12  H   UNL     1      33.698 -12.918 -21.260  0.00  0.00    -0.080 HD
ENDROOT
BRANCH   1  13
ATOM     13  C   UNL     1      31.666 -12.965 -20.945  0.00  0.00    -0.058 C 
ATOM     14  C   UNL     1      31.862 -11.960 -19.792  0.00  0.00    -0.021 C 
ATOM     15  C   UNL     1      31.357 -11.754 -21.848  0.00  0.00    -0.021 C 
ATOM     16  C   UNL     1      30.929 -11.007 -20.568  0.00  0.00    -0.004 C 
ENDBRANCH   1  13
BRANCH  10  17
ATOM     17  O   UNL     1      35.771 -19.725 -22.015  0.00  0.00    -0.436 OA
BRANCH  17  20
ATOM     18  N   UNL     1      35.834 -21.185 -20.213  0.00  0.00    -0.209 NA
ATOM     19  C   UNL     1      33.808 -21.662 -18.982  0.00  0.00    +0.073 C 
ATOM     20  C   UNL     1      35.097 -20.375 -20.993  0.00  0.00    +0.230 C 
ATOM     21  C   UNL     1      33.093 -20.812 -19.818  0.00  0.00    +0.021 C 
ATOM     22  C   UNL     1      35.165 -21.814 -19.219  0.00  0.00    +0.117 C 
ATOM     23  C   UNL     1      33.745 -20.148 -20.851  0.00  0.00    +0.059 C 
BRANCH  19  25
ATOM     24  O   UNL     1      34.968 -23.444 -16.789  0.00  0.00    -0.275 OA
ATOM     25  N   UNL     1      33.166 -22.356 -17.915  0.00  0.00    -0.257 N 
ATOM     26  C   UNL     1      31.517 -22.841 -16.332  0.00  0.00    +0.031 C 
ATOM     27  C   UNL     1      31.724 -22.368 -17.755  0.00  0.00    +0.099 C 
ATOM     28  C   UNL     1      32.692 -23.767 -16.094  0.00  0.00    +0.087 C 
ATOM     29  C   UNL     1      33.788 -23.168 -16.947  0.00  0.00    +0.229 C 
ENDBRANCH  19  25
ENDBRANCH  17  20
ENDBRANCH  10  17
TORSDOF 4
ENDMDL
MODEL 8
REMARK VINA RESULT:     -10.8      6.703     14.744
REMARK  Name = 9976892
REMARK  4 active torsions:
REMARK  status: ('A' for Active; 'I' for Inactive)
REMARK    1  A    between atoms: N_1  and  C_13
REMARK    2  A    between atoms: C_10  and  O_17
REMARK    3  A    between atoms: O_17  and  C_20
REMARK    4  A    between atoms: C_19  and  N_25
REMARK                            x       y       z     vdW  Elec       q    Type
REMARK                         _______ _______ _______ _____ _____    ______ ____
ROOT
ATOM      1  N   UNL     1      32.008  -5.414 -23.621  0.00  0.00    +0.389 N 
ATOM      2  C   UNL     1      31.022  -6.193 -22.858  0.00  0.00    -0.073 C 
ATOM      3  C   UNL     1      32.797  -6.231 -24.557  0.00  0.00    -0.073 C 
ATOM      4  C   UNL     1      31.653  -7.112 -21.807  0.00  0.00    +0.003 C 
ATOM      5  C   UNL     1      33.800  -7.156 -23.861  0.00  0.00    +0.003 C 
ATOM      6  C   UNL     1      32.165  -8.411 -22.377  0.00  0.00    -0.025 C 
ATOM      7  C   UNL     1      33.181  -8.432 -23.349  0.00  0.00    -0.028 C 
ATOM      8  C   UNL     1      31.628  -9.625 -21.918  0.00  0.00    +0.033 C 
ATOM      9  C   UNL     1      33.637  -9.667 -23.839  0.00  0.00    -0.002 C 
ATOM     10  C   UNL     1      32.088 -10.844 -22.418  0.00  0.00    +0.147 C 
ATOM     11  C   UNL     1      33.093 -10.864 -23.377  0.00  0.00    +0.037 C 
ATOM     12  H   UNL     1      32.663  -5.010 -22.951  0.00  0.00    -0.080 HD
ENDROOT
BRANCH   1  13
ATOM     13  C   UNL     1      31.305  -4.406 -24.372  0.00  0.00    -0.058 C 
ATOM     14  C   UNL     1      31.693  -2.992 -23.893  0.00  0.00    -0.021 C 
ATOM     15  C   UNL     1      32.046  -4.082 -25.685  0.00  0.00    -0.021 C 
ATOM     16  C   UNL     1      31.774  -2.594 -25.381  0.00  0.00    -0.004 C 
ENDBRANCH   1  13
BRANCH  10  17
ATOM     17  O   UNL     1      31.555 -12.010 -21.963  0.00  0.00    -0.436 OA
BRANCH  17  20
ATOM     18  N   UNL     1      32.536 -13.568 -23.374  0.00  0.00    -0.209 NA
ATOM     19  C   UNL     1      33.779 -15.420 -22.440  0.00  0.00    +0.073 C 
ATOM     20  C   UNL     1      32.307 -13.163 -22.112  0.00  0.00    +0.230 C 
ATOM     21  C   UNL     1      33.515 -14.958 -21.155  0.00  0.00    +0.021 C 
ATOM     22  C   UNL     1      33.271 -14.696 -23.507  0.00  0.00    +0.117 C 
ATOM     23  C   UNL     1      32.761 -13.803 -20.978  0.00  0.00    +0.059 C 
BRANCH  19  25
ATOM     24  O   UNL     1      35.378 -17.131 -20.478  0.00  0.00    -0.275 OA
ATOM     25  N   UNL     1      34.548 -16.602 -22.653  0.00  0.00    -0.257 N 
ATOM     26  C   UNL     1      35.242 -18.572 -23.701  0.00  0.00    +0.031 C 
ATOM     27  C   UNL     1      34.753 -17.165 -23.973  0.00  0.00    +0.099 C 
ATOM     28  C   UNL     1      36.001 -18.434 -22.396  0.00  0.00    +0.087 C 
ATOM     29  C   UNL     1      35.264 -17.325 -21.679  0.00  0.00    +0.229 C 
ENDBRANCH  19  25
ENDBRANCH  17  20
ENDBRANCH  10  17
TORSDOF 4
ENDMDL
MODEL 9
REMARK VINA RESULT:     -10.7      6.359     11.460
REMARK  Name = 9976892
REMARK  4 active torsions:
REMARK  status: ('A' for Active; 'I' for Inactive)
REMARK    1  A    between atoms: N_1  and  C_13
REMARK    2  A    between atoms: C_10  and  O_17
REMARK    3  A    between atoms: O_17  and  C_20
REMARK    4  A    between atoms: C_19  and  N_25
REMARK                            x       y       z     vdW  Elec       q    Type
REMARK                         _______ _______ _______ _____ _____    ______ ____
ROOT
ATOM      1  N   UNL     1      34.173 -16.514 -22.092  0.00  0.00    +0.389 N 
ATOM      2  C   UNL     1      33.558 -15.721 -21.018  0.00  0.00    -0.073 C 
ATOM      3  C   UNL     1      34.815 -15.691 -23.129  0.00  0.00    -0.073 C 
ATOM      4  C   UNL     1      32.295 -14.973 -21.461  0.00  0.00    +0.003 C 
ATOM      5  C   UNL     1      33.816 -14.939 -24.013  0.00  0.00    +0.003 C 
ATOM      6  C   UNL     1      32.586 -13.680 -22.182  0.00  0.00    -0.025 C 
ATOM      7  C   UNL     1      33.306 -13.665 -23.390  0.00  0.00    -0.028 C 
ATOM      8  C   UNL     1      32.118 -12.470 -21.646  0.00  0.00    +0.033 C 
ATOM      9  C   UNL     1      33.540 -12.438 -24.034  0.00  0.00    -0.002 C 
ATOM     10  C   UNL     1      32.362 -11.259 -22.293  0.00  0.00    +0.147 C 
ATOM     11  C   UNL     1      33.072 -11.244 -23.488  0.00  0.00    +0.037 C 
ATOM     12  H   UNL     1      33.428 -17.043 -22.547  0.00  0.00    -0.080 HD
ENDROOT
BRANCH   1  13
ATOM     13  C   UNL     1      35.170 -17.372 -21.505  0.00  0.00    -0.058 C 
ATOM     14  C   UNL     1      34.538 -18.686 -21.002  0.00  0.00    -0.021 C 
ATOM     15  C   UNL     1      35.876 -18.215 -22.587  0.00  0.00    -0.021 C 
ATOM     16  C   UNL     1      35.745 -19.416 -21.627  0.00  0.00    -0.004 C 
ENDBRANCH   1  13
BRANCH  10  17
ATOM     17  O   UNL     1      31.902 -10.096 -21.758  0.00  0.00    -0.436 OA
BRANCH  17  20
ATOM     18  N   UNL     1      31.007  -8.734 -23.409  0.00  0.00    -0.209 NA
ATOM     19  C   UNL     1      32.165  -6.711 -24.054  0.00  0.00    +0.073 C 
ATOM     20  C   UNL     1      32.001  -8.949 -22.529  0.00  0.00    +0.230 C 
ATOM     21  C   UNL     1      33.166  -6.980 -23.127  0.00  0.00    +0.021 C 
ATOM     22  C   UNL     1      31.116  -7.611 -24.156  0.00  0.00    +0.117 C 
ATOM     23  C   UNL     1      33.090  -8.125 -22.342  0.00  0.00    +0.059 C 
BRANCH  19  25
ATOM     24  O   UNL     1      30.554  -4.118 -23.925  0.00  0.00    -0.275 OA
ATOM     25  N   UNL     1      32.216  -5.545 -24.874  0.00  0.00    -0.257 N 
ATOM     26  C   UNL     1      33.124  -3.973 -26.344  0.00  0.00    +0.031 C 
ATOM     27  C   UNL     1      33.075  -5.455 -26.039  0.00  0.00    +0.099 C 
ATOM     28  C   UNL     1      31.765  -3.476 -25.896  0.00  0.00    +0.087 C 
ATOM     29  C   UNL     1      31.421  -4.390 -24.742  0.00  0.00    +0.229 C 
ENDBRANCH  19  25
ENDBRANCH  17  20
ENDBRANCH  10  17
TORSDOF 4
ENDMDL
