MODEL 1
REMARK VINA RESULT:      -8.8      0.000      0.000
REMARK  Name = 3634
REMARK  8 active torsions:
REMARK  status: ('A' for Active; 'I' for Inactive)
REMARK    1  A    between atoms: C_3  and  N_16
REMARK    2  A    between atoms: C_6  and  C_26
REMARK    3  A    between atoms: N_16  and  C_18
REMARK    4  A    between atoms: C_18  and  C_19
REMARK    5  A    between atoms: C_19  and  N_20
REMARK    6  A    between atoms: N_20  and  C_22
REMARK    7  A    between atoms: N_20  and  C_24
REMARK    8  A    between atoms: C_26  and  O_27
REMARK                            x       y       z     vdW  Elec       q    Type
REMARK                         _______ _______ _______ _____ _____    ______ ____
ROOT
ATOM      1  S   UNL     1      33.210 -23.112 -17.131  0.00  0.00    -0.087 S 
ATOM      2  O   UNL     1      33.994 -24.365 -12.968  0.00  0.00    -0.286 OA
ATOM      3  C   UNL     1      36.127 -23.229 -14.261  0.00  0.00    +0.048 C 
ATOM      4  C   UNL     1      34.875 -23.360 -14.887  0.00  0.00    +0.058 A 
ATOM      5  C   UNL     1      34.725 -22.977 -16.221  0.00  0.00    +0.032 A 
ATOM      6  C   UNL     1      35.836 -22.463 -16.912  0.00  0.00    +0.013 C 
ATOM      7  C   UNL     1      33.757 -23.911 -14.084  0.00  0.00    +0.198 A 
ATOM      8  C   UNL     1      37.222 -22.717 -14.958  0.00  0.00    +0.014 C 
ATOM      9  C   UNL     1      32.362 -23.921 -14.582  0.00  0.00    +0.045 A 
ATOM     10  C   UNL     1      37.076 -22.334 -16.284  0.00  0.00    -0.000 C 
ATOM     11  C   UNL     1      32.029 -23.577 -15.895  0.00  0.00    +0.033 A 
ATOM     12  C   UNL     1      31.348 -24.295 -13.682  0.00  0.00    +0.004 C 
ATOM     13  C   UNL     1      30.680 -23.613 -16.286  0.00  0.00    +0.007 C 
ATOM     14  C   UNL     1      30.014 -24.324 -14.084  0.00  0.00    +0.000 C 
ATOM     15  C   UNL     1      29.679 -23.983 -15.388  0.00  0.00    +0.001 C 
ENDROOT
BRANCH   3  16
ATOM     16  N   UNL     1      36.364 -23.576 -12.908  0.00  0.00    -0.334 N 
ATOM     17  H   UNL     1      35.725 -23.272 -12.224  0.00  0.00    +0.147 HD
BRANCH  16  18
ATOM     18  C   UNL     1      37.492 -24.348 -12.497  0.00  0.00    +0.064 C 
BRANCH  18  19
ATOM     19  C   UNL     1      37.276 -25.818 -12.837  0.00  0.00    -0.056 C 
BRANCH  19  20
ATOM     20  N   UNL     1      38.366 -26.307 -13.676  0.00  0.00    +0.388 N 
ATOM     21  H   UNL     1      38.626 -27.238 -13.348  0.00  0.00    -0.080 HD
BRANCH  20  22
ATOM     22  C   UNL     1      39.532 -25.432 -13.566  0.00  0.00    -0.077 C 
ATOM     23  C   UNL     1      40.240 -25.289 -14.903  0.00  0.00    -0.025 C 
ENDBRANCH  20  22
BRANCH  20  24
ATOM     24  C   UNL     1      37.935 -26.410 -15.071  0.00  0.00    -0.077 C 
ATOM     25  C   UNL     1      36.450 -26.721 -15.165  0.00  0.00    -0.025 C 
ENDBRANCH  20  24
ENDBRANCH  19  20
ENDBRANCH  18  19
ENDBRANCH  16  18
ENDBRANCH   3  16
BRANCH   6  26
ATOM     26  C   UNL     1      35.764 -22.029 -18.345  0.00  0.00    +0.164 C 
BRANCH  26  27
ATOM     27  O   UNL     1      36.660 -20.947 -18.547  0.00  0.00    -0.377 OA
ATOM     28  H   UNL     1      36.392 -20.450 -19.337  0.00  0.00    +0.211 HD
ENDBRANCH  26  27
ENDBRANCH   6  26
TORSDOF 8
ENDMDL
MODEL 2
REMARK VINA RESULT:      -8.7      8.652     11.149
REMARK  Name = 3634
REMARK  8 active torsions:
REMARK  status: ('A' for Active; 'I' for Inactive)
REMARK    1  A    between atoms: C_3  and  N_16
REMARK    2  A    between atoms: C_6  and  C_26
REMARK    3  A    between atoms: N_16  and  C_18
REMARK    4  A    between atoms: C_18  and  C_19
REMARK    5  A    between atoms: C_19  and  N_20
REMARK    6  A    between atoms: N_20  and  C_22
REMARK    7  A    between atoms: N_20  and  C_24
REMARK    8  A    between atoms: C_26  and  O_27
REMARK                            x       y       z     vdW  Elec       q    Type
REMARK                         _______ _______ _______ _____ _____    ______ ____
ROOT
ATOM      1  S   UNL     1      32.291 -13.405 -23.976  0.00  0.00    -0.087 S 
ATOM      2  O   UNL     1      33.476 -15.404 -20.219  0.00  0.00    -0.286 OA
ATOM      3  C   UNL     1      34.484 -16.532 -22.504  0.00  0.00    +0.048 C 
ATOM      4  C   UNL     1      33.680 -15.380 -22.548  0.00  0.00    +0.058 A 
ATOM      5  C   UNL     1      33.318 -14.837 -23.783  0.00  0.00    +0.032 A 
ATOM      6  C   UNL     1      33.770 -15.457 -24.960  0.00  0.00    +0.013 C 
ATOM      7  C   UNL     1      33.247 -14.792 -21.258  0.00  0.00    +0.198 A 
ATOM      8  C   UNL     1      34.928 -17.137 -23.680  0.00  0.00    +0.014 C 
ATOM      9  C   UNL     1      32.556 -13.484 -21.184  0.00  0.00    +0.045 A 
ATOM     10  C   UNL     1      34.571 -16.598 -24.909  0.00  0.00    -0.000 C 
ATOM     11  C   UNL     1      32.112 -12.801 -22.320  0.00  0.00    +0.033 A 
ATOM     12  C   UNL     1      32.347 -12.924 -19.911  0.00  0.00    +0.004 C 
ATOM     13  C   UNL     1      31.464 -11.564 -22.161  0.00  0.00    +0.007 C 
ATOM     14  C   UNL     1      31.705 -11.695 -19.769  0.00  0.00    +0.000 C 
ATOM     15  C   UNL     1      31.263 -11.014 -20.895  0.00  0.00    +0.001 C 
ENDROOT
BRANCH   3  16
ATOM     16  N   UNL     1      34.913 -17.139 -21.298  0.00  0.00    -0.334 N 
ATOM     17  H   UNL     1      34.529 -16.824 -20.448  0.00  0.00    +0.147 HD
BRANCH  16  18
ATOM     18  C   UNL     1      35.880 -18.189 -21.264  0.00  0.00    +0.064 C 
BRANCH  18  19
ATOM     19  C   UNL     1      35.188 -19.544 -21.359  0.00  0.00    -0.056 C 
BRANCH  19  20
ATOM     20  N   UNL     1      35.185 -20.201 -20.055  0.00  0.00    +0.388 N 
ATOM     21  H   UNL     1      35.249 -19.479 -19.335  0.00  0.00    -0.080 HD
BRANCH  20  22
ATOM     22  C   UNL     1      36.339 -21.091 -19.925  0.00  0.00    -0.077 C 
ATOM     23  C   UNL     1      36.454 -21.637 -18.512  0.00  0.00    -0.025 C 
ENDBRANCH  20  22
BRANCH  20  24
ATOM     24  C   UNL     1      33.941 -20.946 -19.857  0.00  0.00    -0.077 C 
ATOM     25  C   UNL     1      32.761 -20.216 -20.476  0.00  0.00    -0.025 C 
ENDBRANCH  20  24
ENDBRANCH  19  20
ENDBRANCH  18  19
ENDBRANCH  16  18
ENDBRANCH   3  16
BRANCH   6  26
ATOM     26  C   UNL     1      33.428 -14.941 -26.325  0.00  0.00    +0.164 C 
BRANCH  26  27
ATOM     27  O   UNL     1      32.336 -15.685 -26.842  0.00  0.00    -0.377 OA
ATOM     28  H   UNL     1      32.203 -15.458 -27.776  0.00  0.00    +0.211 HD
ENDBRANCH  26  27
ENDBRANCH   6  26
TORSDOF 8
ENDMDL
MODEL 3
REMARK VINA RESULT:      -8.5      3.111      6.838
REMARK  Name = 3634
REMARK  8 active torsions:
REMARK  status: ('A' for Active; 'I' for Inactive)
REMARK    1  A    between atoms: C_3  and  N_16
REMARK    2  A    between atoms: C_6  and  C_26
REMARK    3  A    between atoms: N_16  and  C_18
REMARK    4  A    between atoms: C_18  and  C_19
REMARK    5  A    between atoms: C_19  and  N_20
REMARK    6  A    between atoms: N_20  and  C_22
REMARK    7  A    between atoms: N_20  and  C_24
REMARK    8  A    between atoms: C_26  and  O_27
REMARK                            x       y       z     vdW  Elec       q    Type
REMARK                         _______ _______ _______ _____ _____    ______ ____
ROOT
ATOM      1  S   UNL     1      36.631 -21.616 -18.548  0.00  0.00    -0.087 S 
ATOM      2  O   UNL     1      32.303 -22.484 -18.394  0.00  0.00    -0.286 OA
ATOM      3  C   UNL     1      33.735 -23.326 -16.215  0.00  0.00    +0.048 C 
ATOM      4  C   UNL     1      34.350 -22.639 -17.276  0.00  0.00    +0.058 A 
ATOM      5  C   UNL     1      35.733 -22.444 -17.264  0.00  0.00    +0.032 A 
ATOM      6  C   UNL     1      36.483 -22.941 -16.184  0.00  0.00    +0.013 C 
ATOM      7  C   UNL     1      33.484 -22.149 -18.374  0.00  0.00    +0.198 A 
ATOM      8  C   UNL     1      34.491 -23.814 -15.148  0.00  0.00    +0.014 C 
ATOM      9  C   UNL     1      33.997 -21.260 -19.442  0.00  0.00    +0.045 A 
ATOM     10  C   UNL     1      35.865 -23.620 -15.133  0.00  0.00    -0.000 C 
ATOM     11  C   UNL     1      35.354 -20.963 -19.588  0.00  0.00    +0.033 A 
ATOM     12  C   UNL     1      33.063 -20.702 -20.335  0.00  0.00    +0.004 C 
ATOM     13  C   UNL     1      35.757 -20.110 -20.629  0.00  0.00    +0.007 C 
ATOM     14  C   UNL     1      33.477 -19.856 -21.362  0.00  0.00    +0.000 C 
ATOM     15  C   UNL     1      34.826 -19.559 -21.509  0.00  0.00    +0.001 C 
ENDROOT
BRANCH   3  16
ATOM     16  N   UNL     1      32.339 -23.553 -16.137  0.00  0.00    -0.334 N 
ATOM     17  H   UNL     1      31.914 -24.123 -16.819  0.00  0.00    +0.147 HD
BRANCH  16  18
ATOM     18  C   UNL     1      31.522 -22.990 -15.111  0.00  0.00    +0.064 C 
BRANCH  18  19
ATOM     19  C   UNL     1      30.175 -22.564 -15.686  0.00  0.00    -0.056 C 
BRANCH  19  20
ATOM     20  N   UNL     1      29.443 -23.730 -16.172  0.00  0.00    +0.388 N 
ATOM     21  H   UNL     1      30.076 -24.286 -16.748  0.00  0.00    -0.080 HD
BRANCH  20  22
ATOM     22  C   UNL     1      28.306 -23.318 -16.994  0.00  0.00    -0.077 C 
ATOM     23  C   UNL     1      27.393 -22.370 -16.234  0.00  0.00    -0.025 C 
ENDBRANCH  20  22
BRANCH  20  24
ATOM     24  C   UNL     1      28.990 -24.555 -15.051  0.00  0.00    -0.077 C 
ATOM     25  C   UNL     1      29.691 -25.904 -15.045  0.00  0.00    -0.025 C 
ENDBRANCH  20  24
ENDBRANCH  19  20
ENDBRANCH  18  19
ENDBRANCH  16  18
ENDBRANCH   3  16
BRANCH   6  26
ATOM     26  C   UNL     1      37.969 -22.777 -16.092  0.00  0.00    +0.164 C 
BRANCH  26  27
ATOM     27  O   UNL     1      38.521 -23.907 -15.433  0.00  0.00    -0.377 OA
ATOM     28  H   UNL     1      39.450 -23.731 -15.213  0.00  0.00    +0.211 HD
ENDBRANCH  26  27
ENDBRANCH   6  26
TORSDOF 8
ENDMDL
MODEL 4
REMARK VINA RESULT:      -7.9      3.407      6.822
REMARK  Name = 3634
REMARK  8 active torsions:
REMARK  status: ('A' for Active; 'I' for Inactive)
REMARK    1  A    between atoms: C_3  and  N_16
REMARK    2  A    between atoms: C_6  and  C_26
REMARK    3  A    between atoms: N_16  and  C_18
REMARK    4  A    between atoms: C_18  and  C_19
REMARK    5  A    between atoms: C_19  and  N_20
REMARK    6  A    between atoms: N_20  and  C_22
REMARK    7  A    between atoms: N_20  and  C_24
REMARK    8  A    between atoms: C_26  and  O_27
REMARK                            x       y       z     vdW  Elec       q    Type
REMARK                         _______ _______ _______ _____ _____    ______ ____
ROOT
ATOM      1  S   UNL     1      36.982 -20.952 -19.028  0.00  0.00    -0.087 S 
ATOM      2  O   UNL     1      32.703 -21.688 -19.844  0.00  0.00    -0.286 OA
ATOM      3  C   UNL     1      33.643 -22.768 -17.506  0.00  0.00    +0.048 C 
ATOM      4  C   UNL     1      34.473 -22.009 -18.350  0.00  0.00    +0.058 A 
ATOM      5  C   UNL     1      35.826 -21.861 -18.037  0.00  0.00    +0.032 A 
ATOM      6  C   UNL     1      36.330 -22.476 -16.878  0.00  0.00    +0.013 C 
ATOM      7  C   UNL     1      33.859 -21.396 -19.552  0.00  0.00    +0.198 A 
ATOM      8  C   UNL     1      34.156 -23.372 -16.358  0.00  0.00    +0.014 C 
ATOM      9  C   UNL     1      34.594 -20.432 -20.404  0.00  0.00    +0.045 A 
ATOM     10  C   UNL     1      35.500 -23.225 -16.044  0.00  0.00    -0.000 C 
ATOM     11  C   UNL     1      35.956 -20.168 -20.241  0.00  0.00    +0.033 A 
ATOM     12  C   UNL     1      33.872 -19.767 -21.412  0.00  0.00    +0.004 C 
ATOM     13  C   UNL     1      36.577 -19.239 -21.093  0.00  0.00    +0.007 C 
ATOM     14  C   UNL     1      34.501 -18.847 -22.249  0.00  0.00    +0.000 C 
ATOM     15  C   UNL     1      35.855 -18.582 -22.089  0.00  0.00    +0.001 C 
ENDROOT
BRANCH   3  16
ATOM     16  N   UNL     1      32.258 -22.955 -17.737  0.00  0.00    -0.334 N 
ATOM     17  H   UNL     1      31.849 -22.531 -18.526  0.00  0.00    +0.147 HD
BRANCH  16  18
ATOM     18  C   UNL     1      31.431 -23.732 -16.872  0.00  0.00    +0.064 C 
BRANCH  18  19
ATOM     19  C   UNL     1      30.658 -22.821 -15.924  0.00  0.00    -0.056 C 
BRANCH  19  20
ATOM     20  N   UNL     1      30.520 -23.455 -14.617  0.00  0.00    +0.388 N 
ATOM     21  H   UNL     1      29.719 -23.035 -14.143  0.00  0.00    -0.080 HD
BRANCH  20  22
ATOM     22  C   UNL     1      31.714 -23.226 -13.804  0.00  0.00    -0.077 C 
ATOM     23  C   UNL     1      32.405 -24.535 -13.462  0.00  0.00    -0.025 C 
ENDBRANCH  20  22
BRANCH  20  24
ATOM     24  C   UNL     1      30.272 -24.890 -14.765  0.00  0.00    -0.077 C 
ATOM     25  C   UNL     1      28.782 -25.190 -14.784  0.00  0.00    -0.025 C 
ENDBRANCH  20  24
ENDBRANCH  19  20
ENDBRANCH  18  19
ENDBRANCH  16  18
ENDBRANCH   3  16
BRANCH   6  26
ATOM     26  C   UNL     1      37.768 -22.369 -16.470  0.00  0.00    +0.164 C 
BRANCH  26  27
ATOM     27  O   UNL     1      37.941 -23.004 -15.212  0.00  0.00    -0.377 OA
ATOM     28  H   UNL     1      37.927 -23.967 -15.331  0.00  0.00    +0.211 HD
ENDBRANCH  26  27
ENDBRANCH   6  26
TORSDOF 8
ENDMDL
MODEL 5
REMARK VINA RESULT:      -7.6     10.343     12.824
REMARK  Name = 3634
REMARK  8 active torsions:
REMARK  status: ('A' for Active; 'I' for Inactive)
REMARK    1  A    between atoms: C_3  and  N_16
REMARK    2  A    between atoms: C_6  and  C_26
REMARK    3  A    between atoms: N_16  and  C_18
REMARK    4  A    between atoms: C_18  and  C_19
REMARK    5  A    between atoms: C_19  and  N_20
REMARK    6  A    between atoms: N_20  and  C_22
REMARK    7  A    between atoms: N_20  and  C_24
REMARK    8  A    between atoms: C_26  and  O_27
REMARK                            x       y       z     vdW  Elec       q    Type
REMARK                         _______ _______ _______ _____ _____    ______ ____
ROOT
ATOM      1  S   UNL     1      32.550 -10.725 -23.370  0.00  0.00    -0.087 S 
ATOM      2  O   UNL     1      32.056 -13.889 -20.327  0.00  0.00    -0.286 OA
ATOM      3  C   UNL     1      33.195 -14.709 -22.681  0.00  0.00    +0.048 C 
ATOM      4  C   UNL     1      32.835 -13.366 -22.469  0.00  0.00    +0.058 A 
ATOM      5  C   UNL     1      32.987 -12.438 -23.501  0.00  0.00    +0.032 A 
ATOM      6  C   UNL     1      33.501 -12.870 -24.736  0.00  0.00    +0.013 C 
ATOM      7  C   UNL     1      32.301 -12.998 -21.136  0.00  0.00    +0.198 A 
ATOM      8  C   UNL     1      33.705 -15.124 -23.912  0.00  0.00    +0.014 C 
ATOM      9  C   UNL     1      32.065 -11.589 -20.746  0.00  0.00    +0.045 A 
ATOM     10  C   UNL     1      33.858 -14.203 -24.939  0.00  0.00    -0.000 C 
ATOM     11  C   UNL     1      32.161 -10.530 -21.653  0.00  0.00    +0.033 A 
ATOM     12  C   UNL     1      31.731 -11.327 -19.405  0.00  0.00    +0.004 C 
ATOM     13  C   UNL     1      31.921  -9.222 -21.201  0.00  0.00    +0.007 C 
ATOM     14  C   UNL     1      31.497 -10.024 -18.970  0.00  0.00    +0.000 C 
ATOM     15  C   UNL     1      31.592  -8.970 -19.869  0.00  0.00    +0.001 C 
ENDROOT
BRANCH   3  16
ATOM     16  N   UNL     1      33.091 -15.712 -21.686  0.00  0.00    -0.334 N 
ATOM     17  H   UNL     1      32.196 -15.969 -21.368  0.00  0.00    +0.147 HD
BRANCH  16  18
ATOM     18  C   UNL     1      34.231 -16.363 -21.126  0.00  0.00    +0.064 C 
BRANCH  18  19
ATOM     19  C   UNL     1      34.016 -17.873 -21.105  0.00  0.00    -0.056 C 
BRANCH  19  20
ATOM     20  N   UNL     1      35.288 -18.565 -21.286  0.00  0.00    +0.388 N 
ATOM     21  H   UNL     1      35.943 -18.217 -20.584  0.00  0.00    -0.080 HD
BRANCH  20  22
ATOM     22  C   UNL     1      35.840 -18.292 -22.613  0.00  0.00    -0.077 C 
ATOM     23  C   UNL     1      35.051 -19.012 -23.694  0.00  0.00    -0.025 C 
ENDBRANCH  20  22
BRANCH  20  24
ATOM     24  C   UNL     1      35.122 -20.006 -21.089  0.00  0.00    -0.077 C 
ATOM     25  C   UNL     1      33.801 -20.317 -20.405  0.00  0.00    -0.025 C 
ENDBRANCH  20  24
ENDBRANCH  19  20
ENDBRANCH  18  19
ENDBRANCH  16  18
ENDBRANCH   3  16
BRANCH   6  26
ATOM     26  C   UNL     1      33.695 -11.941 -25.897  0.00  0.00    +0.164 C 
BRANCH  26  27
ATOM     27  O   UNL     1      33.691 -12.695 -27.099  0.00  0.00    -0.377 OA
ATOM     28  H   UNL     1      33.359 -12.143 -27.826  0.00  0.00    +0.211 HD
ENDBRANCH  26  27
ENDBRANCH   6  26
TORSDOF 8
ENDMDL
MODEL 6
REMARK VINA RESULT:      -7.5      1.283      2.113
REMARK  Name = 3634
REMARK  8 active torsions:
REMARK  status: ('A' for Active; 'I' for Inactive)
REMARK    1  A    between atoms: C_3  and  N_16
REMARK    2  A    between atoms: C_6  and  C_26
REMARK    3  A    between atoms: N_16  and  C_18
REMARK    4  A    between atoms: C_18  and  C_19
REMARK    5  A    between atoms: C_19  and  N_20
REMARK    6  A    between atoms: N_20  and  C_22
REMARK    7  A    between atoms: N_20  and  C_24
REMARK    8  A    between atoms: C_26  and  O_27
REMARK                            x       y       z     vdW  Elec       q    Type
REMARK                         _______ _______ _______ _____ _____    ______ ____
ROOT
ATOM      1  S   UNL     1      32.333 -23.000 -17.598  0.00  0.00    -0.087 S 
ATOM      2  O   UNL     1      34.899 -23.850 -14.105  0.00  0.00    -0.286 OA
ATOM      3  C   UNL     1      36.164 -22.626 -16.206  0.00  0.00    +0.048 C 
ATOM      4  C   UNL     1      34.790 -22.920 -16.247  0.00  0.00    +0.058 A 
ATOM      5  C   UNL     1      34.062 -22.656 -17.409  0.00  0.00    +0.032 A 
ATOM      6  C   UNL     1      34.723 -22.098 -18.516  0.00  0.00    +0.013 C 
ATOM      7  C   UNL     1      34.174 -23.508 -15.034  0.00  0.00    +0.198 A 
ATOM      8  C   UNL     1      36.808 -22.071 -17.312  0.00  0.00    +0.014 C 
ATOM      9  C   UNL     1      32.709 -23.684 -14.904  0.00  0.00    +0.045 A 
ATOM     10  C   UNL     1      36.086 -21.806 -18.467  0.00  0.00    -0.000 C 
ATOM     11  C   UNL     1      31.827 -23.475 -15.968  0.00  0.00    +0.033 A 
ATOM     12  C   UNL     1      32.205 -24.079 -13.651  0.00  0.00    +0.004 C 
ATOM     13  C   UNL     1      30.451 -23.666 -15.760  0.00  0.00    +0.007 C 
ATOM     14  C   UNL     1      30.837 -24.262 -13.459  0.00  0.00    +0.000 C 
ATOM     15  C   UNL     1      29.958 -24.055 -14.514  0.00  0.00    +0.001 C 
ENDROOT
BRANCH   3  16
ATOM     16  N   UNL     1      36.975 -22.845 -15.065  0.00  0.00    -0.334 N 
ATOM     17  H   UNL     1      36.726 -22.408 -14.218  0.00  0.00    +0.147 HD
BRANCH  16  18
ATOM     18  C   UNL     1      38.139 -23.671 -15.092  0.00  0.00    +0.064 C 
BRANCH  18  19
ATOM     19  C   UNL     1      37.738 -25.142 -15.115  0.00  0.00    -0.056 C 
BRANCH  19  20
ATOM     20  N   UNL     1      38.673 -25.931 -14.318  0.00  0.00    +0.388 N 
ATOM     21  H   UNL     1      38.462 -26.919 -14.464  0.00  0.00    -0.080 HD
BRANCH  20  22
ATOM     22  C   UNL     1      38.520 -25.628 -12.895  0.00  0.00    -0.077 C 
ATOM     23  C   UNL     1      37.150 -26.046 -12.389  0.00  0.00    -0.025 C 
ENDBRANCH  20  22
BRANCH  20  24
ATOM     24  C   UNL     1      40.050 -25.683 -14.746  0.00  0.00    -0.077 C 
ATOM     25  C   UNL     1      41.015 -26.646 -14.075  0.00  0.00    -0.025 C 
ENDBRANCH  20  24
ENDBRANCH  19  20
ENDBRANCH  18  19
ENDBRANCH  16  18
ENDBRANCH   3  16
BRANCH   6  26
ATOM     26  C   UNL     1      34.018 -21.784 -19.801  0.00  0.00    +0.164 C 
BRANCH  26  27
ATOM     27  O   UNL     1      34.019 -20.379 -20.000  0.00  0.00    -0.377 OA
ATOM     28  H   UNL     1      34.104 -19.931 -19.143  0.00  0.00    +0.211 HD
ENDBRANCH  26  27
ENDBRANCH   6  26
TORSDOF 8
ENDMDL
MODEL 7
REMARK VINA RESULT:      -7.2     12.354     15.377
REMARK  Name = 3634
REMARK  8 active torsions:
REMARK  status: ('A' for Active; 'I' for Inactive)
REMARK    1  A    between atoms: C_3  and  N_16
REMARK    2  A    between atoms: C_6  and  C_26
REMARK    3  A    between atoms: N_16  and  C_18
REMARK    4  A    between atoms: C_18  and  C_19
REMARK    5  A    between atoms: C_19  and  N_20
REMARK    6  A    between atoms: N_20  and  C_22
REMARK    7  A    between atoms: N_20  and  C_24
REMARK    8  A    between atoms: C_26  and  O_27
REMARK                            x       y       z     vdW  Elec       q    Type
REMARK                         _______ _______ _______ _____ _____    ______ ____
ROOT
ATOM      1  S   UNL     1      32.157  -8.919 -21.549  0.00  0.00    -0.087 S 
ATOM      2  O   UNL     1      34.514 -11.052 -24.617  0.00  0.00    -0.286 OA
ATOM      3  C   UNL     1      32.981 -12.655 -23.007  0.00  0.00    +0.048 C 
ATOM      4  C   UNL     1      32.974 -11.256 -22.870  0.00  0.00    +0.058 A 
ATOM      5  C   UNL     1      32.232 -10.666 -21.844  0.00  0.00    +0.032 A 
ATOM      6  C   UNL     1      31.503 -11.489 -20.968  0.00  0.00    +0.013 C 
ATOM      7  C   UNL     1      33.771 -10.464 -23.837  0.00  0.00    +0.198 A 
ATOM      8  C   UNL     1      32.253 -13.461 -22.132  0.00  0.00    +0.014 C 
ATOM      9  C   UNL     1      33.688  -8.986 -23.898  0.00  0.00    +0.045 A 
ATOM     10  C   UNL     1      31.513 -12.877 -21.112  0.00  0.00    -0.000 C 
ATOM     11  C   UNL     1      32.997  -8.230 -22.948  0.00  0.00    +0.033 A 
ATOM     12  C   UNL     1      34.339  -8.337 -24.963  0.00  0.00    +0.004 C 
ATOM     13  C   UNL     1      32.970  -6.831 -23.080  0.00  0.00    +0.007 C 
ATOM     14  C   UNL     1      34.301  -6.950 -25.083  0.00  0.00    +0.000 C 
ATOM     15  C   UNL     1      33.615  -6.195 -24.140  0.00  0.00    +0.001 C 
ENDROOT
BRANCH   3  16
ATOM     16  N   UNL     1      33.690 -13.336 -24.027  0.00  0.00    -0.334 N 
ATOM     17  H   UNL     1      34.183 -12.804 -24.694  0.00  0.00    +0.147 HD
BRANCH  16  18
ATOM     18  C   UNL     1      33.719 -14.759 -24.129  0.00  0.00    +0.064 C 
BRANCH  18  19
ATOM     19  C   UNL     1      34.821 -15.327 -23.241  0.00  0.00    -0.056 C 
BRANCH  19  20
ATOM     20  N   UNL     1      35.329 -16.574 -23.804  0.00  0.00    +0.388 N 
ATOM     21  H   UNL     1      36.253 -16.392 -24.199  0.00  0.00    -0.080 HD
BRANCH  20  22
ATOM     22  C   UNL     1      34.452 -17.051 -24.873  0.00  0.00    -0.077 C 
ATOM     23  C   UNL     1      34.430 -18.569 -24.929  0.00  0.00    -0.025 C 
ENDBRANCH  20  22
BRANCH  20  24
ATOM     24  C   UNL     1      35.463 -17.592 -22.762  0.00  0.00    -0.077 C 
ATOM     25  C   UNL     1      34.990 -17.066 -21.417  0.00  0.00    -0.025 C 
ENDBRANCH  20  24
ENDBRANCH  19  20
ENDBRANCH  18  19
ENDBRANCH  16  18
ENDBRANCH   3  16
BRANCH   6  26
ATOM     26  C   UNL     1      30.682 -10.939 -19.842  0.00  0.00    +0.164 C 
BRANCH  26  27
ATOM     27  O   UNL     1      31.436 -11.012 -18.641  0.00  0.00    -0.377 OA
ATOM     28  H   UNL     1      31.555 -11.942 -18.390  0.00  0.00    +0.211 HD
ENDBRANCH  26  27
ENDBRANCH   6  26
TORSDOF 8
ENDMDL
MODEL 8
REMARK VINA RESULT:      -7.2     13.156     15.992
REMARK  Name = 3634
REMARK  8 active torsions:
REMARK  status: ('A' for Active; 'I' for Inactive)
REMARK    1  A    between atoms: C_3  and  N_16
REMARK    2  A    between atoms: C_6  and  C_26
REMARK    3  A    between atoms: N_16  and  C_18
REMARK    4  A    between atoms: C_18  and  C_19
REMARK    5  A    between atoms: C_19  and  N_20
REMARK    6  A    between atoms: N_20  and  C_22
REMARK    7  A    between atoms: N_20  and  C_24
REMARK    8  A    between atoms: C_26  and  O_27
REMARK                            x       y       z     vdW  Elec       q    Type
REMARK                         _______ _______ _______ _____ _____    ______ ____
ROOT
ATOM      1  S   UNL     1      31.703  -8.265 -20.572  0.00  0.00    -0.087 S 
ATOM      2  O   UNL     1      33.267  -9.755 -24.426  0.00  0.00    -0.286 OA
ATOM      3  C   UNL     1      32.470 -11.699 -22.665  0.00  0.00    +0.048 C 
ATOM      4  C   UNL     1      32.347 -10.333 -22.355  0.00  0.00    +0.058 A 
ATOM      5  C   UNL     1      31.882  -9.949 -21.096  0.00  0.00    +0.032 A 
ATOM      6  C   UNL     1      31.544 -10.943 -20.161  0.00  0.00    +0.013 C 
ATOM      7  C   UNL     1      32.727  -9.352 -23.399  0.00  0.00    +0.198 A 
ATOM      8  C   UNL     1      32.130 -12.675 -21.729  0.00  0.00    +0.014 C 
ATOM      9  C   UNL     1      32.465  -7.902 -23.247  0.00  0.00    +0.045 A 
ATOM     10  C   UNL     1      31.666 -12.297 -20.477  0.00  0.00    -0.000 C 
ATOM     11  C   UNL     1      32.007  -7.340 -22.052  0.00  0.00    +0.033 A 
ATOM     12  C   UNL     1      32.694  -7.074 -24.362  0.00  0.00    +0.004 C 
ATOM     13  C   UNL     1      31.785  -5.954 -21.993  0.00  0.00    +0.007 C 
ATOM     14  C   UNL     1      32.467  -5.702 -24.289  0.00  0.00    +0.000 C 
ATOM     15  C   UNL     1      32.011  -5.140 -23.103  0.00  0.00    +0.001 C 
ENDROOT
BRANCH   3  16
ATOM     16  N   UNL     1      32.917 -12.177 -23.922  0.00  0.00    -0.334 N 
ATOM     17  H   UNL     1      32.540 -11.777 -24.739  0.00  0.00    +0.147 HD
BRANCH  16  18
ATOM     18  C   UNL     1      33.888 -13.214 -24.051  0.00  0.00    +0.064 C 
BRANCH  18  19
ATOM     19  C   UNL     1      33.253 -14.456 -24.668  0.00  0.00    -0.056 C 
BRANCH  19  20
ATOM     20  N   UNL     1      33.811 -15.661 -24.063  0.00  0.00    +0.388 N 
ATOM     21  H   UNL     1      33.037 -16.247 -23.747  0.00  0.00    -0.080 HD
BRANCH  20  22
ATOM     22  C   UNL     1      34.638 -15.320 -22.905  0.00  0.00    -0.077 C 
ATOM     23  C   UNL     1      34.103 -15.964 -21.638  0.00  0.00    -0.025 C 
ENDBRANCH  20  22
BRANCH  20  24
ATOM     24  C   UNL     1      34.593 -16.414 -25.044  0.00  0.00    -0.077 C 
ATOM     25  C   UNL     1      34.621 -17.895 -24.704  0.00  0.00    -0.025 C 
ENDBRANCH  20  24
ENDBRANCH  19  20
ENDBRANCH  18  19
ENDBRANCH  16  18
ENDBRANCH   3  16
BRANCH   6  26
ATOM     26  C   UNL     1      31.038 -10.619 -18.788  0.00  0.00    +0.164 C 
BRANCH  26  27
ATOM     27  O   UNL     1      32.142 -10.337 -17.942  0.00  0.00    -0.377 OA
ATOM     28  H   UNL     1      32.640 -11.153 -17.777  0.00  0.00    +0.211 HD
ENDBRANCH  26  27
ENDBRANCH   6  26
TORSDOF 8
ENDMDL
MODEL 9
REMARK VINA RESULT:      -7.1     10.620     13.966
REMARK  Name = 3634
REMARK  8 active torsions:
REMARK  status: ('A' for Active; 'I' for Inactive)
REMARK    1  A    between atoms: C_3  and  N_16
REMARK    2  A    between atoms: C_6  and  C_26
REMARK    3  A    between atoms: N_16  and  C_18
REMARK    4  A    between atoms: C_18  and  C_19
REMARK    5  A    between atoms: C_19  and  N_20
REMARK    6  A    between atoms: N_20  and  C_22
REMARK    7  A    between atoms: N_20  and  C_24
REMARK    8  A    between atoms: C_26  and  O_27
REMARK                            x       y       z     vdW  Elec       q    Type
REMARK                         _______ _______ _______ _____ _____    ______ ____
ROOT
ATOM      1  S   UNL     1      34.376 -16.754 -24.971  0.00  0.00    -0.087 S 
ATOM      2  O   UNL     1      34.227 -15.046 -20.900  0.00  0.00    -0.286 OA
ATOM      3  C   UNL     1      33.246 -13.422 -22.879  0.00  0.00    +0.048 C 
ATOM      4  C   UNL     1      33.724 -14.714 -23.159  0.00  0.00    +0.058 A 
ATOM      5  C   UNL     1      33.775 -15.159 -24.482  0.00  0.00    +0.032 A 
ATOM      6  C   UNL     1      33.343 -14.301 -25.508  0.00  0.00    +0.013 C 
ATOM      7  C   UNL     1      34.159 -15.552 -22.017  0.00  0.00    +0.198 A 
ATOM      8  C   UNL     1      32.820 -12.580 -23.906  0.00  0.00    +0.014 C 
ATOM      9  C   UNL     1      34.504 -16.983 -22.179  0.00  0.00    +0.045 A 
ATOM     10  C   UNL     1      32.868 -13.021 -25.221  0.00  0.00    -0.000 C 
ATOM     11  C   UNL     1      34.611 -17.595 -23.431  0.00  0.00    +0.033 A 
ATOM     12  C   UNL     1      34.729 -17.739 -21.014  0.00  0.00    +0.004 C 
ATOM     13  C   UNL     1      34.943 -18.959 -23.496  0.00  0.00    +0.007 C 
ATOM     14  C   UNL     1      35.055 -19.091 -21.094  0.00  0.00    +0.000 C 
ATOM     15  C   UNL     1      35.162 -19.703 -22.336  0.00  0.00    +0.001 C 
ENDROOT
BRANCH   3  16
ATOM     16  N   UNL     1      33.144 -12.895 -21.567  0.00  0.00    -0.334 N 
ATOM     17  H   UNL     1      33.972 -12.674 -21.081  0.00  0.00    +0.147 HD
BRANCH  16  18
ATOM     18  C   UNL     1      31.891 -12.673 -20.921  0.00  0.00    +0.064 C 
BRANCH  18  19
ATOM     19  C   UNL     1      31.195 -11.458 -21.526  0.00  0.00    -0.056 C 
BRANCH  19  20
ATOM     20  N   UNL     1      32.004 -10.261 -21.321  0.00  0.00    +0.388 N 
ATOM     21  H   UNL     1      32.988 -10.523 -21.403  0.00  0.00    -0.080 HD
BRANCH  20  22
ATOM     22  C   UNL     1      31.779  -9.711 -19.984  0.00  0.00    -0.077 C 
ATOM     23  C   UNL     1      32.247  -8.268 -19.898  0.00  0.00    -0.025 C 
ENDBRANCH  20  22
BRANCH  20  24
ATOM     24  C   UNL     1      31.705  -9.256 -22.342  0.00  0.00    -0.077 C 
ATOM     25  C   UNL     1      32.837  -9.146 -23.351  0.00  0.00    -0.025 C 
ENDBRANCH  20  24
ENDBRANCH  19  20
ENDBRANCH  18  19
ENDBRANCH  16  18
ENDBRANCH   3  16
BRANCH   6  26
ATOM     26  C   UNL     1      33.365 -14.699 -26.953  0.00  0.00    +0.164 C 
BRANCH  26  27
ATOM     27  O   UNL     1      33.786 -13.590 -27.733  0.00  0.00    -0.377 OA
ATOM     28  H   UNL     1      33.478 -12.768 -27.319  0.00  0.00    +0.211 HD
ENDBRANCH  26  27
ENDBRANCH   6  26
TORSDOF 8
ENDMDL
