MODEL 1
REMARK VINA RESULT:      -9.7      0.000      0.000
REMARK  Name = 66451
REMARK  7 active torsions:
REMARK  status: ('A' for Active; 'I' for Inactive)
REMARK    1  A    between atoms: C_1  and  S_7
REMARK    2  A    between atoms: C_4  and  N_19
REMARK    3  A    between atoms: S_7  and  C_10
REMARK    4  A    between atoms: C_15  and  N_16
REMARK    5  A    between atoms: N_19  and  C_21
REMARK    6  A    between atoms: C_21  and  C_23
REMARK    7  A    between atoms: C_23  and  O_24
REMARK                            x       y       z     vdW  Elec       q    Type
REMARK                         _______ _______ _______ _____ _____    ______ ____
ROOT
ATOM      1  C   UNL     1      34.742 -22.740 -17.341  0.00  0.00    +0.110 C 
ATOM      2  C   UNL     1      34.199 -23.350 -16.227  0.00  0.00    +0.020 C 
ATOM      3  C   UNL     1      36.030 -22.239 -17.346  0.00  0.00    +0.020 C 
ATOM      4  C   UNL     1      36.275 -22.963 -15.053  0.00  0.00    +0.045 C 
ATOM      5  C   UNL     1      34.972 -23.462 -15.071  0.00  0.00    +0.016 C 
ATOM      6  C   UNL     1      36.804 -22.351 -16.190  0.00  0.00    +0.016 C 
ENDROOT
BRANCH   1   7
ATOM      7  S   UNL     1      33.759 -22.598 -18.809  0.00  0.00    +0.027 S 
ATOM      8  O   UNL     1      32.396 -22.282 -18.402  0.00  0.00    -0.164 OA
ATOM      9  O   UNL     1      34.025 -23.818 -19.560  0.00  0.00    -0.164 OA
BRANCH   7  10
ATOM     10  C   UNL     1      34.327 -21.226 -19.727  0.00  0.00    +0.110 C 
ATOM     11  C   UNL     1      33.413 -20.329 -20.279  0.00  0.00    +0.020 C 
ATOM     12  C   UNL     1      35.696 -21.027 -19.908  0.00  0.00    +0.020 C 
ATOM     13  C   UNL     1      33.866 -19.233 -21.013  0.00  0.00    +0.015 C 
ATOM     14  C   UNL     1      36.150 -19.931 -20.642  0.00  0.00    +0.015 C 
ATOM     15  C   UNL     1      35.235 -19.034 -21.194  0.00  0.00    +0.042 C 
BRANCH  15  16
ATOM     16  N   UNL     1      35.694 -17.925 -21.935  0.00  0.00    -0.357 N 
ATOM     17  H   UNL     1      35.156 -17.102 -21.973  0.00  0.00    +0.142 HD
ATOM     18  H   UNL     1      36.552 -17.975 -22.415  0.00  0.00    +0.142 HD
ENDBRANCH  15  16
ENDBRANCH   7  10
ENDBRANCH   1   7
BRANCH   4  19
ATOM     19  N   UNL     1      37.058 -23.078 -13.886  0.00  0.00    -0.324 N 
ATOM     20  H   UNL     1      37.796 -22.440 -13.749  0.00  0.00    +0.147 HD
BRANCH  19  21
ATOM     21  C   UNL     1      36.828 -24.079 -12.891  0.00  0.00    +0.198 C 
BRANCH  21  23
ATOM     22  O   UNL     1      36.703 -23.859 -10.494  0.00  0.00    -0.248 OA
ATOM     23  C   UNL     1      37.241 -23.547 -11.549  0.00  0.00    +0.334 C 
BRANCH  23  24
ATOM     24  O   UNL     1      38.291 -22.691 -11.625  0.00  0.00    -0.479 OA
ATOM     25  H   UNL     1      38.146 -21.788 -11.831  0.00  0.00    +0.295 HD
ENDBRANCH  23  24
ENDBRANCH  21  23
ENDBRANCH  19  21
ENDBRANCH   4  19
TORSDOF 7
ENDMDL
MODEL 2
REMARK VINA RESULT:      -9.6      4.079      5.925
REMARK  Name = 66451
REMARK  7 active torsions:
REMARK  status: ('A' for Active; 'I' for Inactive)
REMARK    1  A    between atoms: C_1  and  S_7
REMARK    2  A    between atoms: C_4  and  N_19
REMARK    3  A    between atoms: S_7  and  C_10
REMARK    4  A    between atoms: C_15  and  N_16
REMARK    5  A    between atoms: N_19  and  C_21
REMARK    6  A    between atoms: C_21  and  C_23
REMARK    7  A    between atoms: C_23  and  O_24
REMARK                            x       y       z     vdW  Elec       q    Type
REMARK                         _______ _______ _______ _____ _____    ______ ____
ROOT
ATOM      1  C   UNL     1      34.831 -19.574 -21.321  0.00  0.00    +0.110 C 
ATOM      2  C   UNL     1      33.451 -19.519 -21.289  0.00  0.00    +0.020 C 
ATOM      3  C   UNL     1      35.546 -20.452 -20.529  0.00  0.00    +0.020 C 
ATOM      4  C   UNL     1      33.460 -21.268 -19.622  0.00  0.00    +0.045 C 
ATOM      5  C   UNL     1      32.759 -20.373 -20.431  0.00  0.00    +0.016 C 
ATOM      6  C   UNL     1      34.854 -21.307 -19.671  0.00  0.00    +0.016 C 
ENDROOT
BRANCH   1   7
ATOM      7  S   UNL     1      35.710 -18.488 -22.411  0.00  0.00    +0.027 S 
ATOM      8  O   UNL     1      35.546 -18.992 -23.768  0.00  0.00    -0.164 OA
ATOM      9  O   UNL     1      37.044 -18.378 -21.837  0.00  0.00    -0.164 OA
BRANCH   7  10
ATOM     10  C   UNL     1      34.941 -16.921 -22.373  0.00  0.00    +0.110 C 
ATOM     11  C   UNL     1      34.796 -16.245 -21.162  0.00  0.00    +0.020 C 
ATOM     12  C   UNL     1      34.471 -16.346 -23.553  0.00  0.00    +0.020 C 
ATOM     13  C   UNL     1      34.181 -14.994 -21.130  0.00  0.00    +0.015 C 
ATOM     14  C   UNL     1      33.855 -15.095 -23.523  0.00  0.00    +0.015 C 
ATOM     15  C   UNL     1      33.711 -14.419 -22.311  0.00  0.00    +0.042 C 
BRANCH  15  16
ATOM     16  N   UNL     1      33.089 -13.152 -22.279  0.00  0.00    -0.357 N 
ATOM     17  H   UNL     1      32.188 -13.036 -22.657  0.00  0.00    +0.142 HD
ATOM     18  H   UNL     1      33.557 -12.385 -21.878  0.00  0.00    +0.142 HD
ENDBRANCH  15  16
ENDBRANCH   7  10
ENDBRANCH   1   7
BRANCH   4  19
ATOM     19  N   UNL     1      32.760 -22.133 -18.756  0.00  0.00    -0.324 N 
ATOM     20  H   UNL     1      31.776 -22.151 -18.801  0.00  0.00    +0.147 HD
BRANCH  19  21
ATOM     21  C   UNL     1      33.415 -22.988 -17.816  0.00  0.00    +0.198 C 
BRANCH  21  23
ATOM     22  O   UNL     1      32.875 -23.710 -15.580  0.00  0.00    -0.248 OA
ATOM     23  C   UNL     1      32.509 -23.220 -16.641  0.00  0.00    +0.334 C 
BRANCH  23  24
ATOM     24  O   UNL     1      31.236 -22.811 -16.874  0.00  0.00    -0.479 OA
ATOM     25  H   UNL     1      30.998 -22.474 -17.716  0.00  0.00    +0.295 HD
ENDBRANCH  23  24
ENDBRANCH  21  23
ENDBRANCH  19  21
ENDBRANCH   4  19
TORSDOF 7
ENDMDL
MODEL 3
REMARK VINA RESULT:      -9.6      5.795     10.110
REMARK  Name = 66451
REMARK  7 active torsions:
REMARK  status: ('A' for Active; 'I' for Inactive)
REMARK    1  A    between atoms: C_1  and  S_7
REMARK    2  A    between atoms: C_4  and  N_19
REMARK    3  A    between atoms: S_7  and  C_10
REMARK    4  A    between atoms: C_15  and  N_16
REMARK    5  A    between atoms: N_19  and  C_21
REMARK    6  A    between atoms: C_21  and  C_23
REMARK    7  A    between atoms: C_23  and  O_24
REMARK                            x       y       z     vdW  Elec       q    Type
REMARK                         _______ _______ _______ _____ _____    ______ ____
ROOT
ATOM      1  C   UNL     1      34.958 -17.012 -22.222  0.00  0.00    +0.110 C 
ATOM      2  C   UNL     1      34.816 -16.409 -20.988  0.00  0.00    +0.020 C 
ATOM      3  C   UNL     1      34.522 -16.408 -23.386  0.00  0.00    +0.020 C 
ATOM      4  C   UNL     1      33.767 -14.523 -22.075  0.00  0.00    +0.045 C 
ATOM      5  C   UNL     1      34.215 -15.152 -20.913  0.00  0.00    +0.016 C 
ATOM      6  C   UNL     1      33.921 -15.151 -23.312  0.00  0.00    +0.016 C 
ENDROOT
BRANCH   1   7
ATOM      7  S   UNL     1      35.722 -18.609 -22.316  0.00  0.00    +0.027 S 
ATOM      8  O   UNL     1      37.079 -18.482 -21.801  0.00  0.00    -0.164 OA
ATOM      9  O   UNL     1      35.507 -19.049 -23.688  0.00  0.00    -0.164 OA
BRANCH   7  10
ATOM     10  C   UNL     1      34.884 -19.690 -21.231  0.00  0.00    +0.110 C 
ATOM     11  C   UNL     1      35.606 -20.597 -20.456  0.00  0.00    +0.020 C 
ATOM     12  C   UNL     1      33.493 -19.646 -21.138  0.00  0.00    +0.020 C 
ATOM     13  C   UNL     1      34.938 -21.462 -19.589  0.00  0.00    +0.015 C 
ATOM     14  C   UNL     1      32.824 -20.510 -20.273  0.00  0.00    +0.015 C 
ATOM     15  C   UNL     1      33.546 -21.418 -19.497  0.00  0.00    +0.042 C 
BRANCH  15  16
ATOM     16  N   UNL     1      32.870 -22.292 -18.620  0.00  0.00    -0.357 N 
ATOM     17  H   UNL     1      32.183 -22.904 -18.968  0.00  0.00    +0.142 HD
ATOM     18  H   UNL     1      33.087 -22.289 -17.660  0.00  0.00    +0.142 HD
ENDBRANCH  15  16
ENDBRANCH   7  10
ENDBRANCH   1   7
BRANCH   4  19
ATOM     19  N   UNL     1      33.161 -13.252 -22.001  0.00  0.00    -0.324 N 
ATOM     20  H   UNL     1      33.201 -12.760 -21.148  0.00  0.00    +0.147 HD
BRANCH  19  21
ATOM     21  C   UNL     1      32.491 -12.645 -23.109  0.00  0.00    +0.198 C 
BRANCH  21  23
ATOM     22  O   UNL     1      32.983 -10.291 -23.266  0.00  0.00    -0.248 OA
ATOM     23  C   UNL     1      33.270 -11.443 -23.561  0.00  0.00    +0.334 C 
BRANCH  23  24
ATOM     24  O   UNL     1      34.345 -11.772 -24.322  0.00  0.00    -0.479 OA
ATOM     25  H   UNL     1      35.112 -11.233 -24.308  0.00  0.00    +0.295 HD
ENDBRANCH  23  24
ENDBRANCH  21  23
ENDBRANCH  19  21
ENDBRANCH   4  19
TORSDOF 7
ENDMDL
MODEL 4
REMARK VINA RESULT:      -9.6      5.757      9.923
REMARK  Name = 66451
REMARK  7 active torsions:
REMARK  status: ('A' for Active; 'I' for Inactive)
REMARK    1  A    between atoms: C_1  and  S_7
REMARK    2  A    between atoms: C_4  and  N_19
REMARK    3  A    between atoms: S_7  and  C_10
REMARK    4  A    between atoms: C_15  and  N_16
REMARK    5  A    between atoms: N_19  and  C_21
REMARK    6  A    between atoms: C_21  and  C_23
REMARK    7  A    between atoms: C_23  and  O_24
REMARK                            x       y       z     vdW  Elec       q    Type
REMARK                         _______ _______ _______ _____ _____    ______ ____
ROOT
ATOM      1  C   UNL     1      34.796 -16.966 -22.075  0.00  0.00    +0.110 C 
ATOM      2  C   UNL     1      34.744 -16.389 -20.822  0.00  0.00    +0.020 C 
ATOM      3  C   UNL     1      34.241 -16.357 -23.184  0.00  0.00    +0.020 C 
ATOM      4  C   UNL     1      33.544 -14.520 -21.776  0.00  0.00    +0.045 C 
ATOM      5  C   UNL     1      34.112 -15.154 -20.670  0.00  0.00    +0.016 C 
ATOM      6  C   UNL     1      33.609 -15.122 -23.033  0.00  0.00    +0.016 C 
ENDROOT
BRANCH   1   7
ATOM      7  S   UNL     1      35.599 -18.534 -22.267  0.00  0.00    +0.027 S 
ATOM      8  O   UNL     1      36.973 -18.389 -21.805  0.00  0.00    -0.164 OA
ATOM      9  O   UNL     1      35.337 -18.924 -23.646  0.00  0.00    -0.164 OA
BRANCH   7  10
ATOM     10  C   UNL     1      34.839 -19.682 -21.194  0.00  0.00    +0.110 C 
ATOM     11  C   UNL     1      33.449 -19.719 -21.084  0.00  0.00    +0.020 C 
ATOM     12  C   UNL     1      35.621 -20.563 -20.447  0.00  0.00    +0.020 C 
ATOM     13  C   UNL     1      32.840 -20.635 -20.226  0.00  0.00    +0.015 C 
ATOM     14  C   UNL     1      35.013 -21.479 -19.589  0.00  0.00    +0.015 C 
ATOM     15  C   UNL     1      33.623 -21.516 -19.479  0.00  0.00    +0.042 C 
BRANCH  15  16
ATOM     16  N   UNL     1      33.008 -22.443 -18.612  0.00  0.00    -0.357 N 
ATOM     17  H   UNL     1      32.423 -22.127 -17.887  0.00  0.00    +0.142 HD
ATOM     18  H   UNL     1      33.164 -23.408 -18.733  0.00  0.00    +0.142 HD
ENDBRANCH  15  16
ENDBRANCH   7  10
ENDBRANCH   1   7
BRANCH   4  19
ATOM     19  N   UNL     1      32.907 -13.272 -21.623  0.00  0.00    -0.324 N 
ATOM     20  H   UNL     1      32.822 -12.894 -20.717  0.00  0.00    +0.147 HD
BRANCH  19  21
ATOM     21  C   UNL     1      32.379 -12.529 -22.725  0.00  0.00    +0.198 C 
BRANCH  21  23
ATOM     22  O   UNL     1      32.059 -10.168 -22.365  0.00  0.00    -0.248 OA
ATOM     23  C   UNL     1      31.663 -11.315 -22.207  0.00  0.00    +0.334 C 
BRANCH  23  24
ATOM     24  O   UNL     1      30.514 -11.624 -21.555  0.00  0.00    -0.479 OA
ATOM     25  H   UNL     1      30.494 -11.634 -20.617  0.00  0.00    +0.295 HD
ENDBRANCH  23  24
ENDBRANCH  21  23
ENDBRANCH  19  21
ENDBRANCH   4  19
TORSDOF 7
ENDMDL
MODEL 5
REMARK VINA RESULT:      -9.5      1.608      2.122
REMARK  Name = 66451
REMARK  7 active torsions:
REMARK  status: ('A' for Active; 'I' for Inactive)
REMARK    1  A    between atoms: C_1  and  S_7
REMARK    2  A    between atoms: C_4  and  N_19
REMARK    3  A    between atoms: S_7  and  C_10
REMARK    4  A    between atoms: C_15  and  N_16
REMARK    5  A    between atoms: N_19  and  C_21
REMARK    6  A    between atoms: C_21  and  C_23
REMARK    7  A    between atoms: C_23  and  O_24
REMARK                            x       y       z     vdW  Elec       q    Type
REMARK                         _______ _______ _______ _____ _____    ______ ____
ROOT
ATOM      1  C   UNL     1      34.794 -22.758 -17.418  0.00  0.00    +0.110 C 
ATOM      2  C   UNL     1      34.318 -23.459 -16.328  0.00  0.00    +0.020 C 
ATOM      3  C   UNL     1      36.054 -22.190 -17.429  0.00  0.00    +0.020 C 
ATOM      4  C   UNL     1      36.408 -23.034 -15.192  0.00  0.00    +0.045 C 
ATOM      5  C   UNL     1      35.132 -23.598 -15.204  0.00  0.00    +0.016 C 
ATOM      6  C   UNL     1      36.869 -22.329 -16.305  0.00  0.00    +0.016 C 
ENDROOT
BRANCH   1   7
ATOM      7  S   UNL     1      33.760 -22.581 -18.847  0.00  0.00    +0.027 S 
ATOM      8  O   UNL     1      32.416 -22.262 -18.385  0.00  0.00    -0.164 OA
ATOM      9  O   UNL     1      33.988 -23.789 -19.628  0.00  0.00    -0.164 OA
BRANCH   7  10
ATOM     10  C   UNL     1      34.307 -21.197 -19.760  0.00  0.00    +0.110 C 
ATOM     11  C   UNL     1      35.671 -20.985 -19.954  0.00  0.00    +0.020 C 
ATOM     12  C   UNL     1      33.379 -20.304 -20.296  0.00  0.00    +0.020 C 
ATOM     13  C   UNL     1      36.109 -19.880 -20.683  0.00  0.00    +0.015 C 
ATOM     14  C   UNL     1      33.816 -19.198 -21.025  0.00  0.00    +0.015 C 
ATOM     15  C   UNL     1      35.181 -18.987 -21.219  0.00  0.00    +0.042 C 
BRANCH  15  16
ATOM     16  N   UNL     1      35.624 -17.869 -21.957  0.00  0.00    -0.357 N 
ATOM     17  H   UNL     1      36.267 -17.987 -22.692  0.00  0.00    +0.142 HD
ATOM     18  H   UNL     1      35.288 -16.970 -21.737  0.00  0.00    +0.142 HD
ENDBRANCH  15  16
ENDBRANCH   7  10
ENDBRANCH   1   7
BRANCH   4  19
ATOM     19  N   UNL     1      37.231 -23.176 -14.057  0.00  0.00    -0.324 N 
ATOM     20  H   UNL     1      37.445 -22.374 -13.526  0.00  0.00    +0.147 HD
BRANCH  19  21
ATOM     21  C   UNL     1      37.771 -24.433 -13.640  0.00  0.00    +0.198 C 
BRANCH  21  23
ATOM     22  O   UNL     1      39.742 -24.471 -15.027  0.00  0.00    -0.248 OA
ATOM     23  C   UNL     1      38.667 -24.970 -14.718  0.00  0.00    +0.334 C 
BRANCH  23  24
ATOM     24  O   UNL     1      38.165 -26.084 -15.309  0.00  0.00    -0.479 OA
ATOM     25  H   UNL     1      37.610 -26.663 -14.823  0.00  0.00    +0.295 HD
ENDBRANCH  23  24
ENDBRANCH  21  23
ENDBRANCH  19  21
ENDBRANCH   4  19
TORSDOF 7
ENDMDL
MODEL 6
REMARK VINA RESULT:      -9.5      3.785      5.643
REMARK  Name = 66451
REMARK  7 active torsions:
REMARK  status: ('A' for Active; 'I' for Inactive)
REMARK    1  A    between atoms: C_1  and  S_7
REMARK    2  A    between atoms: C_4  and  N_19
REMARK    3  A    between atoms: S_7  and  C_10
REMARK    4  A    between atoms: C_15  and  N_16
REMARK    5  A    between atoms: N_19  and  C_21
REMARK    6  A    between atoms: C_21  and  C_23
REMARK    7  A    between atoms: C_23  and  O_24
REMARK                            x       y       z     vdW  Elec       q    Type
REMARK                         _______ _______ _______ _____ _____    ______ ____
ROOT
ATOM      1  C   UNL     1      34.812 -19.637 -21.276  0.00  0.00    +0.110 C 
ATOM      2  C   UNL     1      35.594 -20.487 -20.520  0.00  0.00    +0.020 C 
ATOM      3  C   UNL     1      33.434 -19.619 -21.167  0.00  0.00    +0.020 C 
ATOM      4  C   UNL     1      33.586 -21.354 -19.492  0.00  0.00    +0.045 C 
ATOM      5  C   UNL     1      34.975 -21.355 -19.619  0.00  0.00    +0.016 C 
ATOM      6  C   UNL     1      32.815 -20.486 -20.267  0.00  0.00    +0.016 C 
ENDROOT
BRANCH   1   7
ATOM      7  S   UNL     1      35.598 -18.534 -22.420  0.00  0.00    +0.027 S 
ATOM      8  O   UNL     1      35.342 -19.032 -23.765  0.00  0.00    -0.164 OA
ATOM      9  O   UNL     1      36.969 -18.412 -21.943  0.00  0.00    -0.164 OA
BRANCH   7  10
ATOM     10  C   UNL     1      34.816 -16.977 -22.316  0.00  0.00    +0.110 C 
ATOM     11  C   UNL     1      34.375 -16.340 -23.476  0.00  0.00    +0.020 C 
ATOM     12  C   UNL     1      34.632 -16.370 -21.074  0.00  0.00    +0.020 C 
ATOM     13  C   UNL     1      33.751 -15.095 -23.394  0.00  0.00    +0.015 C 
ATOM     14  C   UNL     1      34.008 -15.125 -20.991  0.00  0.00    +0.015 C 
ATOM     15  C   UNL     1      33.567 -14.488 -22.151  0.00  0.00    +0.042 C 
BRANCH  15  16
ATOM     16  N   UNL     1      32.935 -13.230 -22.068  0.00  0.00    -0.357 N 
ATOM     17  H   UNL     1      32.980 -12.709 -21.235  0.00  0.00    +0.142 HD
ATOM     18  H   UNL     1      32.448 -12.872 -22.846  0.00  0.00    +0.142 HD
ENDBRANCH  15  16
ENDBRANCH   7  10
ENDBRANCH   1   7
BRANCH   4  19
ATOM     19  N   UNL     1      32.961 -22.230 -18.581  0.00  0.00    -0.324 N 
ATOM     20  H   UNL     1      32.073 -21.987 -18.228  0.00  0.00    +0.147 HD
BRANCH  19  21
ATOM     21  C   UNL     1      33.556 -23.455 -18.146  0.00  0.00    +0.198 C 
BRANCH  21  23
ATOM     22  O   UNL     1      33.054 -23.314 -15.794  0.00  0.00    -0.248 OA
ATOM     23  C   UNL     1      33.890 -23.353 -16.686  0.00  0.00    +0.334 C 
BRANCH  23  24
ATOM     24  O   UNL     1      35.227 -23.325 -16.456  0.00  0.00    -0.479 OA
ATOM     25  H   UNL     1      35.825 -23.231 -17.172  0.00  0.00    +0.295 HD
ENDBRANCH  23  24
ENDBRANCH  21  23
ENDBRANCH  19  21
ENDBRANCH   4  19
TORSDOF 7
ENDMDL
MODEL 7
REMARK VINA RESULT:      -9.3      2.953      7.979
REMARK  Name = 66451
REMARK  7 active torsions:
REMARK  status: ('A' for Active; 'I' for Inactive)
REMARK    1  A    between atoms: C_1  and  S_7
REMARK    2  A    between atoms: C_4  and  N_19
REMARK    3  A    between atoms: S_7  and  C_10
REMARK    4  A    between atoms: C_15  and  N_16
REMARK    5  A    between atoms: N_19  and  C_21
REMARK    6  A    between atoms: C_21  and  C_23
REMARK    7  A    between atoms: C_23  and  O_24
REMARK                            x       y       z     vdW  Elec       q    Type
REMARK                         _______ _______ _______ _____ _____    ______ ____
ROOT
ATOM      1  C   UNL     1      34.209 -21.262 -19.675  0.00  0.00    +0.110 C 
ATOM      2  C   UNL     1      35.557 -21.022 -19.852  0.00  0.00    +0.020 C 
ATOM      3  C   UNL     1      33.241 -20.432 -20.209  0.00  0.00    +0.020 C 
ATOM      4  C   UNL     1      34.996 -19.055 -21.139  0.00  0.00    +0.045 C 
ATOM      5  C   UNL     1      35.955 -19.907 -20.590  0.00  0.00    +0.016 C 
ATOM      6  C   UNL     1      33.639 -19.317 -20.948  0.00  0.00    +0.016 C 
ENDROOT
BRANCH   1   7
ATOM      7  S   UNL     1      33.703 -22.679 -18.737  0.00  0.00    +0.027 S 
ATOM      8  O   UNL     1      33.990 -23.864 -19.533  0.00  0.00    -0.164 OA
ATOM      9  O   UNL     1      32.333 -22.392 -18.332  0.00  0.00    -0.164 OA
BRANCH   7  10
ATOM     10  C   UNL     1      34.709 -22.789 -17.313  0.00  0.00    +0.110 C 
ATOM     11  C   UNL     1      34.212 -23.385 -16.154  0.00  0.00    +0.020 C 
ATOM     12  C   UNL     1      36.007 -22.281 -17.336  0.00  0.00    +0.020 C 
ATOM     13  C   UNL     1      35.014 -23.473 -15.017  0.00  0.00    +0.015 C 
ATOM     14  C   UNL     1      36.810 -22.368 -16.198  0.00  0.00    +0.015 C 
ATOM     15  C   UNL     1      36.314 -22.964 -15.039  0.00  0.00    +0.042 C 
BRANCH  15  16
ATOM     16  N   UNL     1      37.125 -23.054 -13.889  0.00  0.00    -0.357 N 
ATOM     17  H   UNL     1      36.886 -23.676 -13.164  0.00  0.00    +0.142 HD
ATOM     18  H   UNL     1      37.932 -22.495 -13.811  0.00  0.00    +0.142 HD
ENDBRANCH  15  16
ENDBRANCH   7  10
ENDBRANCH   1   7
BRANCH   4  19
ATOM     19  N   UNL     1      35.398 -17.929 -21.887  0.00  0.00    -0.324 N 
ATOM     20  H   UNL     1      36.014 -18.062 -22.644  0.00  0.00    +0.147 HD
BRANCH  19  21
ATOM     21  C   UNL     1      34.951 -16.603 -21.596  0.00  0.00    +0.198 C 
BRANCH  21  23
ATOM     22  O   UNL     1      33.808 -15.093 -23.086  0.00  0.00    -0.248 OA
ATOM     23  C   UNL     1      34.743 -15.856 -22.882  0.00  0.00    +0.334 C 
BRANCH  23  24
ATOM     24  O   UNL     1      35.715 -16.105 -23.795  0.00  0.00    -0.479 OA
ATOM     25  H   UNL     1      36.334 -15.435 -24.015  0.00  0.00    +0.295 HD
ENDBRANCH  23  24
ENDBRANCH  21  23
ENDBRANCH  19  21
ENDBRANCH   4  19
TORSDOF 7
ENDMDL
MODEL 8
REMARK VINA RESULT:      -8.9      5.929     10.835
REMARK  Name = 66451
REMARK  7 active torsions:
REMARK  status: ('A' for Active; 'I' for Inactive)
REMARK    1  A    between atoms: C_1  and  S_7
REMARK    2  A    between atoms: C_4  and  N_19
REMARK    3  A    between atoms: S_7  and  C_10
REMARK    4  A    between atoms: C_15  and  N_16
REMARK    5  A    between atoms: N_19  and  C_21
REMARK    6  A    between atoms: C_21  and  C_23
REMARK    7  A    between atoms: C_23  and  O_24
REMARK                            x       y       z     vdW  Elec       q    Type
REMARK                         _______ _______ _______ _____ _____    ______ ____
ROOT
ATOM      1  C   UNL     1      35.048 -17.198 -22.902  0.00  0.00    +0.110 C 
ATOM      2  C   UNL     1      35.010 -17.976 -24.042  0.00  0.00    +0.020 C 
ATOM      3  C   UNL     1      34.470 -15.944 -22.854  0.00  0.00    +0.020 C 
ATOM      4  C   UNL     1      33.781 -16.218 -25.154  0.00  0.00    +0.045 C 
ATOM      5  C   UNL     1      34.371 -17.482 -25.180  0.00  0.00    +0.016 C 
ATOM      6  C   UNL     1      33.831 -15.449 -23.991  0.00  0.00    +0.016 C 
ENDROOT
BRANCH   1   7
ATOM      7  S   UNL     1      35.860 -17.827 -21.458  0.00  0.00    +0.027 S 
ATOM      8  O   UNL     1      35.775 -16.807 -20.421  0.00  0.00    -0.164 OA
ATOM      9  O   UNL     1      37.164 -18.276 -21.925  0.00  0.00    -0.164 OA
BRANCH   7  10
ATOM     10  C   UNL     1      34.959 -19.202 -20.869  0.00  0.00    +0.110 C 
ATOM     11  C   UNL     1      35.633 -20.298 -20.331  0.00  0.00    +0.020 C 
ATOM     12  C   UNL     1      33.566 -19.204 -20.937  0.00  0.00    +0.020 C 
ATOM     13  C   UNL     1      34.914 -21.397 -19.862  0.00  0.00    +0.015 C 
ATOM     14  C   UNL     1      32.846 -20.303 -20.468  0.00  0.00    +0.015 C 
ATOM     15  C   UNL     1      33.520 -21.399 -19.930  0.00  0.00    +0.042 C 
BRANCH  15  16
ATOM     16  N   UNL     1      32.793 -22.510 -19.454  0.00  0.00    -0.357 N 
ATOM     17  H   UNL     1      32.076 -22.383 -18.791  0.00  0.00    +0.142 HD
ATOM     18  H   UNL     1      33.002 -23.413 -19.785  0.00  0.00    +0.142 HD
ENDBRANCH  15  16
ENDBRANCH   7  10
ENDBRANCH   1   7
BRANCH   4  19
ATOM     19  N   UNL     1      33.134 -15.719 -26.302  0.00  0.00    -0.324 N 
ATOM     20  H   UNL     1      33.156 -16.256 -27.128  0.00  0.00    +0.147 HD
BRANCH  19  21
ATOM     21  C   UNL     1      32.445 -14.466 -26.323  0.00  0.00    +0.198 C 
BRANCH  21  23
ATOM     22  O   UNL     1      33.560 -12.331 -26.228  0.00  0.00    -0.248 OA
ATOM     23  C   UNL     1      33.379 -13.394 -26.807  0.00  0.00    +0.334 C 
BRANCH  23  24
ATOM     24  O   UNL     1      34.021 -13.737 -27.953  0.00  0.00    -0.479 OA
ATOM     25  H   UNL     1      34.898 -13.442 -28.106  0.00  0.00    +0.295 HD
ENDBRANCH  23  24
ENDBRANCH  21  23
ENDBRANCH  19  21
ENDBRANCH   4  19
TORSDOF 7
ENDMDL
MODEL 9
REMARK VINA RESULT:      -8.8      4.212      5.912
REMARK  Name = 66451
REMARK  7 active torsions:
REMARK  status: ('A' for Active; 'I' for Inactive)
REMARK    1  A    between atoms: C_1  and  S_7
REMARK    2  A    between atoms: C_4  and  N_19
REMARK    3  A    between atoms: S_7  and  C_10
REMARK    4  A    between atoms: C_15  and  N_16
REMARK    5  A    between atoms: N_19  and  C_21
REMARK    6  A    between atoms: C_21  and  C_23
REMARK    7  A    between atoms: C_23  and  O_24
REMARK                            x       y       z     vdW  Elec       q    Type
REMARK                         _______ _______ _______ _____ _____    ______ ____
ROOT
ATOM      1  C   UNL     1      35.052 -19.477 -20.696  0.00  0.00    +0.110 C 
ATOM      2  C   UNL     1      35.781 -20.507 -20.137  0.00  0.00    +0.020 C 
ATOM      3  C   UNL     1      33.670 -19.493 -20.729  0.00  0.00    +0.020 C 
ATOM      4  C   UNL     1      33.711 -21.636 -19.612  0.00  0.00    +0.045 C 
ATOM      5  C   UNL     1      35.105 -21.598 -19.590  0.00  0.00    +0.016 C 
ATOM      6  C   UNL     1      32.993 -20.584 -20.182  0.00  0.00    +0.016 C 
ENDROOT
BRANCH   1   7
ATOM      7  S   UNL     1      35.912 -18.091 -21.391  0.00  0.00    +0.027 S 
ATOM      8  O   UNL     1      37.233 -18.548 -21.798  0.00  0.00    -0.164 OA
ATOM      9  O   UNL     1      35.787 -17.034 -20.396  0.00  0.00    -0.164 OA
BRANCH   7  10
ATOM     10  C   UNL     1      35.089 -17.603 -22.851  0.00  0.00    +0.110 C 
ATOM     11  C   UNL     1      34.947 -18.505 -23.906  0.00  0.00    +0.020 C 
ATOM     12  C   UNL     1      34.574 -16.312 -22.963  0.00  0.00    +0.020 C 
ATOM     13  C   UNL     1      34.290 -18.115 -25.073  0.00  0.00    +0.015 C 
ATOM     14  C   UNL     1      33.918 -15.921 -24.130  0.00  0.00    +0.015 C 
ATOM     15  C   UNL     1      33.775 -16.823 -25.185  0.00  0.00    +0.042 C 
BRANCH  15  16
ATOM     16  N   UNL     1      33.111 -16.429 -26.365  0.00  0.00    -0.357 N 
ATOM     17  H   UNL     1      33.506 -15.742 -26.947  0.00  0.00    +0.142 HD
ATOM     18  H   UNL     1      32.250 -16.844 -26.606  0.00  0.00    +0.142 HD
ENDBRANCH  15  16
ENDBRANCH   7  10
ENDBRANCH   1   7
BRANCH   4  19
ATOM     19  N   UNL     1      33.026 -22.737 -19.058  0.00  0.00    -0.324 N 
ATOM     20  H   UNL     1      32.294 -23.146 -19.576  0.00  0.00    +0.147 HD
BRANCH  19  21
ATOM     21  C   UNL     1      33.347 -23.288 -17.778  0.00  0.00    +0.198 C 
BRANCH  21  23
ATOM     22  O   UNL     1      32.081 -23.671 -15.763  0.00  0.00    -0.248 OA
ATOM     23  C   UNL     1      32.163 -23.145 -16.866  0.00  0.00    +0.334 C 
BRANCH  23  24
ATOM     24  O   UNL     1      31.193 -22.353 -17.388  0.00  0.00    -0.479 OA
ATOM     25  H   UNL     1      30.308 -22.437 -17.089  0.00  0.00    +0.295 HD
ENDBRANCH  23  24
ENDBRANCH  21  23
ENDBRANCH  19  21
ENDBRANCH   4  19
TORSDOF 7
ENDMDL
