MODEL 1
REMARK VINA RESULT:     -10.0      0.000      0.000
REMARK  Name = 9878913
REMARK  3 active torsions:
REMARK  status: ('A' for Active; 'I' for Inactive)
REMARK    1  A    between atoms: C_1  and  C_8
REMARK    2  A    between atoms: C_2  and  S_15
REMARK    3  A    between atoms: S_15  and  C_16
REMARK                            x       y       z     vdW  Elec       q    Type
REMARK                         _______ _______ _______ _____ _____    ______ ____
ROOT
ATOM      1  C   UNL     1      34.571 -18.651 -22.364  0.00  0.00    -0.017 C 
ATOM      2  C   UNL     1      34.770 -17.270 -22.415  0.00  0.00    +0.025 C 
ATOM      3  C   UNL     1      34.479 -19.385 -23.547  0.00  0.00    -0.004 C 
ATOM      4  C   UNL     1      34.877 -16.625 -23.647  0.00  0.00    +0.006 C 
ATOM      5  C   UNL     1      34.585 -18.739 -24.779  0.00  0.00    -0.000 C 
ATOM      6  C   UNL     1      34.785 -17.360 -24.829  0.00  0.00    +0.000 C 
ENDROOT
BRANCH   1   8
ATOM      7  N   UNL     1      34.120 -21.847 -19.476  0.00  0.00    +0.384 N 
ATOM      8  C   UNL     1      34.449 -19.401 -21.047  0.00  0.00    +0.019 C 
ATOM      9  C   UNL     1      35.594 -20.405 -20.841  0.00  0.00    -0.019 C 
ATOM     10  C   UNL     1      33.092 -20.108 -20.905  0.00  0.00    -0.019 C 
ATOM     11  C   UNL     1      35.418 -21.176 -19.533  0.00  0.00    -0.081 C 
ATOM     12  C   UNL     1      33.017 -20.892 -19.594  0.00  0.00    -0.081 C 
ATOM     13  H   UNL     1      34.038 -22.338 -18.586  0.00  0.00    -0.085 HD
ATOM     14  H   UNL     1      34.061 -22.500 -20.258  0.00  0.00    -0.085 HD
ENDBRANCH   1   8
BRANCH   2  15
ATOM     15  S   UNL     1      34.896 -16.285 -20.928  0.00  0.00    -0.087 S 
BRANCH  15  16
ATOM     16  C   UNL     1      33.886 -14.878 -21.363  0.00  0.00    +0.029 C 
ATOM     17  C   UNL     1      34.153 -14.166 -22.530  0.00  0.00    +0.006 C 
ATOM     18  C   UNL     1      32.833 -14.496 -20.534  0.00  0.00    +0.006 C 
ATOM     19  C   UNL     1      32.311 -12.683 -22.042  0.00  0.00    -0.022 C 
ATOM     20  C   UNL     1      33.365 -13.066 -22.870  0.00  0.00    -0.004 C 
ATOM     21  C   UNL     1      32.045 -13.398 -20.874  0.00  0.00    -0.004 C 
ATOM     22  C   UNL     1      31.467 -11.507 -22.405  0.00  0.00    +0.031 C 
ENDBRANCH  15  16
ENDBRANCH   2  15
TORSDOF 3
ENDMDL
MODEL 2
REMARK VINA RESULT:     -10.0      3.154      7.194
REMARK  Name = 9878913
REMARK  3 active torsions:
REMARK  status: ('A' for Active; 'I' for Inactive)
REMARK    1  A    between atoms: C_1  and  C_8
REMARK    2  A    between atoms: C_2  and  S_15
REMARK    3  A    between atoms: S_15  and  C_16
REMARK                            x       y       z     vdW  Elec       q    Type
REMARK                         _______ _______ _______ _____ _____    ______ ____
ROOT
ATOM      1  C   UNL     1      33.495 -14.380 -22.872  0.00  0.00    -0.017 C 
ATOM      2  C   UNL     1      33.972 -15.579 -22.339  0.00  0.00    +0.025 C 
ATOM      3  C   UNL     1      32.709 -13.534 -22.088  0.00  0.00    -0.004 C 
ATOM      4  C   UNL     1      33.662 -15.932 -21.026  0.00  0.00    +0.006 C 
ATOM      5  C   UNL     1      32.399 -13.888 -20.774  0.00  0.00    -0.000 C 
ATOM      6  C   UNL     1      32.876 -15.086 -20.244  0.00  0.00    +0.000 C 
ENDROOT
BRANCH   1   8
ATOM      7  N   UNL     1      33.080 -12.723 -26.852  0.00  0.00    +0.384 N 
ATOM      8  C   UNL     1      33.805 -13.949 -24.296  0.00  0.00    +0.019 C 
ATOM      9  C   UNL     1      33.709 -12.426 -24.478  0.00  0.00    -0.019 C 
ATOM     10  C   UNL     1      32.915 -14.663 -25.326  0.00  0.00    -0.019 C 
ATOM     11  C   UNL     1      33.979 -12.029 -25.930  0.00  0.00    -0.081 C 
ATOM     12  C   UNL     1      33.218 -14.176 -26.744  0.00  0.00    -0.081 C 
ATOM     13  H   UNL     1      33.301 -12.440 -27.807  0.00  0.00    -0.085 HD
ATOM     14  H   UNL     1      32.120 -12.475 -26.612  0.00  0.00    -0.085 HD
ENDBRANCH   1   8
BRANCH   2  15
ATOM     15  S   UNL     1      34.983 -16.697 -23.302  0.00  0.00    -0.087 S 
BRANCH  15  16
ATOM     16  C   UNL     1      35.119 -18.083 -22.185  0.00  0.00    +0.029 C 
ATOM     17  C   UNL     1      36.345 -18.381 -21.594  0.00  0.00    +0.006 C 
ATOM     18  C   UNL     1      33.999 -18.864 -21.908  0.00  0.00    +0.006 C 
ATOM     19  C   UNL     1      35.332 -20.247 -20.443  0.00  0.00    -0.022 C 
ATOM     20  C   UNL     1      36.452 -19.464 -20.721  0.00  0.00    -0.004 C 
ATOM     21  C   UNL     1      34.105 -19.947 -21.036  0.00  0.00    -0.004 C 
ATOM     22  C   UNL     1      35.446 -21.405 -19.510  0.00  0.00    +0.031 C 
ENDBRANCH  15  16
ENDBRANCH   2  15
TORSDOF 3
ENDMDL
MODEL 3
REMARK VINA RESULT:      -9.9      2.482      6.463
REMARK  Name = 9878913
REMARK  3 active torsions:
REMARK  status: ('A' for Active; 'I' for Inactive)
REMARK    1  A    between atoms: C_1  and  C_8
REMARK    2  A    between atoms: C_2  and  S_15
REMARK    3  A    between atoms: S_15  and  C_16
REMARK                            x       y       z     vdW  Elec       q    Type
REMARK                         _______ _______ _______ _____ _____    ______ ____
ROOT
ATOM      1  C   UNL     1      34.189 -16.136 -23.754  0.00  0.00    -0.017 C 
ATOM      2  C   UNL     1      34.759 -17.216 -23.078  0.00  0.00    +0.025 C 
ATOM      3  C   UNL     1      33.839 -16.263 -25.100  0.00  0.00    -0.004 C 
ATOM      4  C   UNL     1      34.980 -18.421 -23.747  0.00  0.00    +0.006 C 
ATOM      5  C   UNL     1      34.060 -17.468 -25.767  0.00  0.00    -0.000 C 
ATOM      6  C   UNL     1      34.630 -18.546 -25.091  0.00  0.00    +0.000 C 
ENDROOT
BRANCH   1   8
ATOM      7  N   UNL     1      32.268 -12.464 -22.497  0.00  0.00    +0.384 N 
ATOM      8  C   UNL     1      33.928 -14.803 -23.071  0.00  0.00    +0.019 C 
ATOM      9  C   UNL     1      32.725 -14.864 -22.116  0.00  0.00    -0.019 C 
ATOM     10  C   UNL     1      33.746 -13.659 -24.081  0.00  0.00    -0.019 C 
ATOM     11  C   UNL     1      32.459 -13.498 -21.482  0.00  0.00    -0.081 C 
ATOM     12  C   UNL     1      33.439 -12.342 -23.367  0.00  0.00    -0.081 C 
ATOM     13  H   UNL     1      32.105 -11.569 -22.034  0.00  0.00    -0.085 HD
ATOM     14  H   UNL     1      31.468 -12.724 -23.074  0.00  0.00    -0.085 HD
ENDBRANCH   1   8
BRANCH   2  15
ATOM     15  S   UNL     1      35.224 -17.105 -21.355  0.00  0.00    -0.087 S 
BRANCH  15  16
ATOM     16  C   UNL     1      34.863 -18.762 -20.796  0.00  0.00    +0.029 C 
ATOM     17  C   UNL     1      35.904 -19.621 -20.453  0.00  0.00    +0.006 C 
ATOM     18  C   UNL     1      33.541 -19.191 -20.703  0.00  0.00    +0.006 C 
ATOM     19  C   UNL     1      34.300 -21.347 -19.922  0.00  0.00    -0.022 C 
ATOM     20  C   UNL     1      35.623 -20.916 -20.015  0.00  0.00    -0.004 C 
ATOM     21  C   UNL     1      33.258 -20.484 -20.266  0.00  0.00    -0.004 C 
ATOM     22  C   UNL     1      33.998 -22.731 -19.455  0.00  0.00    +0.031 C 
ENDBRANCH  15  16
ENDBRANCH   2  15
TORSDOF 3
ENDMDL
MODEL 4
REMARK VINA RESULT:      -9.4      4.966      9.314
REMARK  Name = 9878913
REMARK  3 active torsions:
REMARK  status: ('A' for Active; 'I' for Inactive)
REMARK    1  A    between atoms: C_1  and  C_8
REMARK    2  A    between atoms: C_2  and  S_15
REMARK    3  A    between atoms: S_15  and  C_16
REMARK                            x       y       z     vdW  Elec       q    Type
REMARK                         _______ _______ _______ _____ _____    ______ ____
ROOT
ATOM      1  C   UNL     1      33.181  -9.097 -23.220  0.00  0.00    -0.017 C 
ATOM      2  C   UNL     1      32.922 -10.464 -23.341  0.00  0.00    +0.025 C 
ATOM      3  C   UNL     1      34.259  -8.530 -23.902  0.00  0.00    -0.004 C 
ATOM      4  C   UNL     1      33.740 -11.261 -24.142  0.00  0.00    +0.006 C 
ATOM      5  C   UNL     1      35.077  -9.329 -24.702  0.00  0.00    -0.000 C 
ATOM      6  C   UNL     1      34.817 -10.694 -24.822  0.00  0.00    +0.000 C 
ENDROOT
BRANCH   1   8
ATOM      7  N   UNL     1      31.779  -5.650 -21.004  0.00  0.00    +0.384 N 
ATOM      8  C   UNL     1      32.320  -8.185 -22.362  0.00  0.00    +0.019 C 
ATOM      9  C   UNL     1      31.870  -6.926 -23.121  0.00  0.00    -0.019 C 
ATOM     10  C   UNL     1      33.017  -7.792 -21.051  0.00  0.00    -0.019 C 
ATOM     11  C   UNL     1      31.046  -6.007 -22.218  0.00  0.00    -0.081 C 
ATOM     12  C   UNL     1      32.147  -6.838 -20.231  0.00  0.00    -0.081 C 
ATOM     13  H   UNL     1      31.192  -5.048 -20.426  0.00  0.00    -0.085 HD
ATOM     14  H   UNL     1      32.636  -5.169 -21.276  0.00  0.00    -0.085 HD
ENDBRANCH   1   8
BRANCH   2  15
ATOM     15  S   UNL     1      31.553 -11.238 -22.490  0.00  0.00    -0.087 S 
BRANCH  15  16
ATOM     16  C   UNL     1      32.244 -12.841 -22.117  0.00  0.00    +0.029 C 
ATOM     17  C   UNL     1      32.653 -13.679 -23.152  0.00  0.00    +0.006 C 
ATOM     18  C   UNL     1      32.374 -13.250 -20.792  0.00  0.00    +0.006 C 
ATOM     19  C   UNL     1      33.323 -15.343 -21.536  0.00  0.00    -0.022 C 
ATOM     20  C   UNL     1      33.193 -14.932 -22.862  0.00  0.00    -0.004 C 
ATOM     21  C   UNL     1      32.914 -14.502 -20.501  0.00  0.00    -0.004 C 
ATOM     22  C   UNL     1      33.901 -16.683 -21.224  0.00  0.00    +0.031 C 
ENDBRANCH  15  16
ENDBRANCH   2  15
TORSDOF 3
ENDMDL
MODEL 5
REMARK VINA RESULT:      -9.3      4.515      8.065
REMARK  Name = 9878913
REMARK  3 active torsions:
REMARK  status: ('A' for Active; 'I' for Inactive)
REMARK    1  A    between atoms: C_1  and  C_8
REMARK    2  A    between atoms: C_2  and  S_15
REMARK    3  A    between atoms: S_15  and  C_16
REMARK                            x       y       z     vdW  Elec       q    Type
REMARK                         _______ _______ _______ _____ _____    ______ ____
ROOT
ATOM      1  C   UNL     1      34.344 -23.220 -15.600  0.00  0.00    -0.017 C 
ATOM      2  C   UNL     1      34.672 -22.863 -16.909  0.00  0.00    +0.025 C 
ATOM      3  C   UNL     1      35.300 -23.110 -14.588  0.00  0.00    -0.004 C 
ATOM      4  C   UNL     1      35.953 -22.398 -17.206  0.00  0.00    +0.006 C 
ATOM      5  C   UNL     1      36.581 -22.645 -14.887  0.00  0.00    -0.000 C 
ATOM      6  C   UNL     1      36.907 -22.289 -16.195  0.00  0.00    +0.000 C 
ENDROOT
BRANCH   1   8
ATOM      7  N   UNL     1      30.710 -24.000 -13.377  0.00  0.00    +0.384 N 
ATOM      8  C   UNL     1      32.963 -23.732 -15.224  0.00  0.00    +0.019 C 
ATOM      9  C   UNL     1      31.968 -22.588 -14.972  0.00  0.00    -0.019 C 
ATOM     10  C   UNL     1      33.003 -24.677 -14.013  0.00  0.00    -0.019 C 
ATOM     11  C   UNL     1      30.602 -23.133 -14.550  0.00  0.00    -0.081 C 
ATOM     12  C   UNL     1      31.596 -25.138 -13.630  0.00  0.00    -0.081 C 
ATOM     13  H   UNL     1      29.783 -24.351 -13.137  0.00  0.00    -0.085 HD
ATOM     14  H   UNL     1      31.102 -23.455 -12.610  0.00  0.00    -0.085 HD
ENDBRANCH   1   8
BRANCH   2  15
ATOM     15  S   UNL     1      33.484 -22.985 -18.240  0.00  0.00    -0.087 S 
BRANCH  15  16
ATOM     16  C   UNL     1      34.059 -21.695 -19.332  0.00  0.00    +0.029 C 
ATOM     17  C   UNL     1      35.410 -21.614 -19.660  0.00  0.00    +0.006 C 
ATOM     18  C   UNL     1      33.155 -20.772 -19.853  0.00  0.00    +0.006 C 
ATOM     19  C   UNL     1      34.956 -19.682 -21.036  0.00  0.00    -0.022 C 
ATOM     20  C   UNL     1      35.860 -20.606 -20.513  0.00  0.00    -0.004 C 
ATOM     21  C   UNL     1      33.603 -19.765 -20.706  0.00  0.00    -0.004 C 
ATOM     22  C   UNL     1      35.437 -18.603 -21.948  0.00  0.00    +0.031 C 
ENDBRANCH  15  16
ENDBRANCH   2  15
TORSDOF 3
ENDMDL
MODEL 6
REMARK VINA RESULT:      -9.2      4.153      7.806
REMARK  Name = 9878913
REMARK  3 active torsions:
REMARK  status: ('A' for Active; 'I' for Inactive)
REMARK    1  A    between atoms: C_1  and  C_8
REMARK    2  A    between atoms: C_2  and  S_15
REMARK    3  A    between atoms: S_15  and  C_16
REMARK                            x       y       z     vdW  Elec       q    Type
REMARK                         _______ _______ _______ _____ _____    ______ ____
ROOT
ATOM      1  C   UNL     1      33.590 -12.207 -24.892  0.00  0.00    -0.017 C 
ATOM      2  C   UNL     1      33.209 -13.419 -24.312  0.00  0.00    +0.025 C 
ATOM      3  C   UNL     1      33.715 -12.109 -26.279  0.00  0.00    -0.004 C 
ATOM      4  C   UNL     1      32.953 -14.529 -25.117  0.00  0.00    +0.006 C 
ATOM      5  C   UNL     1      33.459 -13.221 -27.083  0.00  0.00    -0.000 C 
ATOM      6  C   UNL     1      33.078 -14.429 -26.502  0.00  0.00    +0.000 C 
ENDROOT
BRANCH   1   8
ATOM      7  N   UNL     1      33.745  -8.089 -23.561  0.00  0.00    +0.384 N 
ATOM      8  C   UNL     1      33.880 -10.969 -24.060  0.00  0.00    +0.019 C 
ATOM      9  C   UNL     1      32.594 -10.278 -23.578  0.00  0.00    -0.019 C 
ATOM     10  C   UNL     1      34.773  -9.965 -24.805  0.00  0.00    -0.019 C 
ATOM     11  C   UNL     1      32.917  -9.011 -22.785  0.00  0.00    -0.081 C 
ATOM     12  C   UNL     1      35.009  -8.710 -23.962  0.00  0.00    -0.081 C 
ATOM     13  H   UNL     1      33.947  -7.265 -22.994  0.00  0.00    -0.085 HD
ATOM     14  H   UNL     1      33.234  -7.832 -24.406  0.00  0.00    -0.085 HD
ENDBRANCH   1   8
BRANCH   2  15
ATOM     15  S   UNL     1      33.035 -13.596 -22.541  0.00  0.00    -0.087 S 
BRANCH  15  16
ATOM     16  C   UNL     1      33.796 -15.190 -22.280  0.00  0.00    +0.029 C 
ATOM     17  C   UNL     1      34.831 -15.610 -23.112  0.00  0.00    +0.006 C 
ATOM     18  C   UNL     1      33.352 -16.010 -21.244  0.00  0.00    +0.006 C 
ATOM     19  C   UNL     1      34.983 -17.677 -21.873  0.00  0.00    -0.022 C 
ATOM     20  C   UNL     1      35.425 -16.855 -22.909  0.00  0.00    -0.004 C 
ATOM     21  C   UNL     1      33.947 -17.255 -21.040  0.00  0.00    -0.004 C 
ATOM     22  C   UNL     1      35.619 -19.009 -21.655  0.00  0.00    +0.031 C 
ENDBRANCH  15  16
ENDBRANCH   2  15
TORSDOF 3
ENDMDL
MODEL 7
REMARK VINA RESULT:      -9.1      3.147      6.909
REMARK  Name = 9878913
REMARK  3 active torsions:
REMARK  status: ('A' for Active; 'I' for Inactive)
REMARK    1  A    between atoms: C_1  and  C_8
REMARK    2  A    between atoms: C_2  and  S_15
REMARK    3  A    between atoms: S_15  and  C_16
REMARK                            x       y       z     vdW  Elec       q    Type
REMARK                         _______ _______ _______ _____ _____    ______ ____
ROOT
ATOM      1  C   UNL     1      33.532 -14.006 -24.057  0.00  0.00    -0.017 C 
ATOM      2  C   UNL     1      34.146 -15.137 -23.516  0.00  0.00    +0.025 C 
ATOM      3  C   UNL     1      33.084 -14.023 -25.379  0.00  0.00    -0.004 C 
ATOM      4  C   UNL     1      34.311 -16.282 -24.295  0.00  0.00    +0.006 C 
ATOM      5  C   UNL     1      33.250 -15.169 -26.158  0.00  0.00    -0.000 C 
ATOM      6  C   UNL     1      33.863 -16.298 -25.615  0.00  0.00    +0.000 C 
ENDROOT
BRANCH   1   8
ATOM      7  N   UNL     1      31.902 -10.254 -22.633  0.00  0.00    +0.384 N 
ATOM      8  C   UNL     1      33.328 -12.734 -23.251  0.00  0.00    +0.019 C 
ATOM      9  C   UNL     1      31.980 -12.724 -22.512  0.00  0.00    -0.019 C 
ATOM     10  C   UNL     1      33.468 -11.470 -24.113  0.00  0.00    -0.019 C 
ATOM     11  C   UNL     1      31.783 -11.413 -21.749  0.00  0.00    -0.081 C 
ATOM     12  C   UNL     1      33.212 -10.209 -23.286  0.00  0.00    -0.081 C 
ATOM     13  H   UNL     1      31.776  -9.403 -22.085  0.00  0.00    -0.085 HD
ATOM     14  H   UNL     1      31.187 -10.329 -23.358  0.00  0.00    -0.085 HD
ENDBRANCH   1   8
BRANCH   2  15
ATOM     15  S   UNL     1      34.737 -15.166 -21.828  0.00  0.00    -0.087 S 
BRANCH  15  16
ATOM     16  C   UNL     1      34.461 -16.876 -21.398  0.00  0.00    +0.029 C 
ATOM     17  C   UNL     1      33.174 -17.319 -21.101  0.00  0.00    +0.006 C 
ATOM     18  C   UNL     1      35.533 -17.765 -21.361  0.00  0.00    +0.006 C 
ATOM     19  C   UNL     1      34.030 -19.546 -20.727  0.00  0.00    -0.022 C 
ATOM     20  C   UNL     1      32.957 -18.655 -20.764  0.00  0.00    -0.004 C 
ATOM     21  C   UNL     1      35.318 -19.101 -21.026  0.00  0.00    -0.004 C 
ATOM     22  C   UNL     1      33.799 -20.975 -20.368  0.00  0.00    +0.031 C 
ENDBRANCH  15  16
ENDBRANCH   2  15
TORSDOF 3
ENDMDL
MODEL 8
REMARK VINA RESULT:      -8.9      4.703      9.404
REMARK  Name = 9878913
REMARK  3 active torsions:
REMARK  status: ('A' for Active; 'I' for Inactive)
REMARK    1  A    between atoms: C_1  and  C_8
REMARK    2  A    between atoms: C_2  and  S_15
REMARK    3  A    between atoms: S_15  and  C_16
REMARK                            x       y       z     vdW  Elec       q    Type
REMARK                         _______ _______ _______ _____ _____    ______ ____
ROOT
ATOM      1  C   UNL     1      32.064  -9.538 -21.465  0.00  0.00    -0.017 C 
ATOM      2  C   UNL     1      31.836 -10.915 -21.455  0.00  0.00    +0.025 C 
ATOM      3  C   UNL     1      32.009  -8.815 -20.272  0.00  0.00    -0.004 C 
ATOM      4  C   UNL     1      31.553 -11.568 -20.256  0.00  0.00    +0.006 C 
ATOM      5  C   UNL     1      31.725  -9.469 -19.072  0.00  0.00    -0.000 C 
ATOM      6  C   UNL     1      31.498 -10.845 -19.065  0.00  0.00    +0.000 C 
ENDROOT
BRANCH   1   8
ATOM      7  N   UNL     1      32.899  -6.321 -24.241  0.00  0.00    +0.384 N 
ATOM      8  C   UNL     1      32.378  -8.780 -22.744  0.00  0.00    +0.019 C 
ATOM      9  C   UNL     1      33.724  -8.042 -22.669  0.00  0.00    -0.019 C 
ATOM     10  C   UNL     1      31.258  -7.800 -23.128  0.00  0.00    -0.019 C 
ATOM     11  C   UNL     1      33.988  -7.252 -23.952  0.00  0.00    -0.081 C 
ATOM     12  C   UNL     1      31.621  -7.019 -24.392  0.00  0.00    -0.081 C 
ATOM     13  H   UNL     1      33.108  -5.824 -25.107  0.00  0.00    -0.085 HD
ATOM     14  H   UNL     1      32.816  -5.670 -23.460  0.00  0.00    -0.085 HD
ENDBRANCH   1   8
BRANCH   2  15
ATOM     15  S   UNL     1      31.896 -11.886 -22.956  0.00  0.00    -0.087 S 
BRANCH  15  16
ATOM     16  C   UNL     1      32.771 -13.336 -22.391  0.00  0.00    +0.029 C 
ATOM     17  C   UNL     1      33.936 -13.741 -23.039  0.00  0.00    +0.006 C 
ATOM     18  C   UNL     1      32.287 -14.059 -21.303  0.00  0.00    +0.006 C 
ATOM     19  C   UNL     1      34.137 -15.599 -21.509  0.00  0.00    -0.022 C 
ATOM     20  C   UNL     1      34.620 -14.874 -22.599  0.00  0.00    -0.004 C 
ATOM     21  C   UNL     1      32.971 -15.191 -20.861  0.00  0.00    -0.004 C 
ATOM     22  C   UNL     1      34.868 -16.810 -21.037  0.00  0.00    +0.031 C 
ENDBRANCH  15  16
ENDBRANCH   2  15
TORSDOF 3
ENDMDL
MODEL 9
REMARK VINA RESULT:      -8.9      8.544     10.543
REMARK  Name = 9878913
REMARK  3 active torsions:
REMARK  status: ('A' for Active; 'I' for Inactive)
REMARK    1  A    between atoms: C_1  and  C_8
REMARK    2  A    between atoms: C_2  and  S_15
REMARK    3  A    between atoms: S_15  and  C_16
REMARK                            x       y       z     vdW  Elec       q    Type
REMARK                         _______ _______ _______ _____ _____    ______ ____
ROOT
ATOM      1  C   UNL     1      35.186 -23.791 -14.909  0.00  0.00    -0.017 C 
ATOM      2  C   UNL     1      33.829 -23.908 -15.218  0.00  0.00    +0.025 C 
ATOM      3  C   UNL     1      36.055 -23.178 -15.815  0.00  0.00    -0.004 C 
ATOM      4  C   UNL     1      33.343 -23.414 -16.428  0.00  0.00    +0.006 C 
ATOM      5  C   UNL     1      35.567 -22.685 -17.025  0.00  0.00    -0.000 C 
ATOM      6  C   UNL     1      34.212 -22.802 -17.331  0.00  0.00    +0.000 C 
ENDROOT
BRANCH   1   8
ATOM      7  N   UNL     1      37.966 -24.700 -11.715  0.00  0.00    +0.384 N 
ATOM      8  C   UNL     1      35.766 -24.311 -13.605  0.00  0.00    +0.019 C 
ATOM      9  C   UNL     1      36.286 -23.178 -12.706  0.00  0.00    -0.019 C 
ATOM     10  C   UNL     1      36.870 -25.354 -13.835  0.00  0.00    -0.019 C 
ATOM     11  C   UNL     1      36.905 -23.736 -11.423  0.00  0.00    -0.081 C 
ATOM     12  C   UNL     1      37.466 -25.825 -12.507  0.00  0.00    -0.081 C 
ATOM     13  H   UNL     1      38.343 -25.055 -10.837  0.00  0.00    -0.085 HD
ATOM     14  H   UNL     1      38.690 -24.226 -12.256  0.00  0.00    -0.085 HD
ENDBRANCH   1   8
BRANCH   2  15
ATOM     15  S   UNL     1      32.676 -24.683 -14.093  0.00  0.00    -0.087 S 
BRANCH  15  16
ATOM     16  C   UNL     1      31.121 -24.067 -14.717  0.00  0.00    +0.029 C 
ATOM     17  C   UNL     1      30.234 -24.934 -15.350  0.00  0.00    +0.006 C 
ATOM     18  C   UNL     1      30.799 -22.719 -14.569  0.00  0.00    +0.006 C 
ATOM     19  C   UNL     1      28.695 -23.104 -15.691  0.00  0.00    -0.022 C 
ATOM     20  C   UNL     1      29.019 -24.453 -15.839  0.00  0.00    -0.004 C 
ATOM     21  C   UNL     1      29.585 -22.237 -15.057  0.00  0.00    -0.004 C 
ATOM     22  C   UNL     1      27.396 -22.589 -16.213  0.00  0.00    +0.031 C 
ENDBRANCH  15  16
ENDBRANCH   2  15
TORSDOF 3
ENDMDL
