MODEL 1
REMARK VINA RESULT:      -8.7      0.000      0.000
REMARK  Name = 1234
REMARK  15 active torsions:
REMARK  status: ('A' for Active; 'I' for Inactive)
REMARK    1  A    between atoms: C_1  and  C_2
REMARK    2  A    between atoms: C_1  and  C_14
REMARK    3  A    between atoms: C_1  and  C_18
REMARK    4  A    between atoms: C_1  and  C_19
REMARK    5  A    between atoms: C_5  and  O_8
REMARK    6  A    between atoms: C_6  and  O_10
REMARK    7  A    between atoms: C_7  and  O_12
REMARK    8  A    between atoms: C_19  and  C_20
REMARK    9  A    between atoms: C_20  and  C_21
REMARK   10  A    between atoms: C_21  and  N_22
REMARK   11  A    between atoms: N_22  and  C_25
REMARK   12  A    between atoms: C_25  and  C_26
REMARK   13  A    between atoms: C_26  and  C_27
REMARK   14  A    between atoms: C_30  and  O_33
REMARK   15  A    between atoms: C_32  and  O_35
REMARK                            x       y       z     vdW  Elec       q    Type
REMARK                         _______ _______ _______ _____ _____    ______ ____
ROOT
ATOM      1  C   UNL     1      33.342 -14.043 -23.621  0.00  0.00    +0.098 C 
ENDROOT
BRANCH   1   2
ATOM      2  C   UNL     1      33.341 -12.496 -23.622  0.00  0.00    -0.003 C 
ATOM      3  C   UNL     1      34.261 -11.798 -24.405  0.00  0.00    +0.037 C 
ATOM      4  C   UNL     1      32.421 -11.799 -22.839  0.00  0.00    +0.037 C 
ATOM      5  C   UNL     1      32.421 -10.403 -22.840  0.00  0.00    +0.175 C 
ATOM      6  C   UNL     1      34.261 -10.404 -24.405  0.00  0.00    +0.175 C 
ATOM      7  C   UNL     1      33.341  -9.706 -23.623  0.00  0.00    +0.206 C 
BRANCH   5   8
ATOM      8  O   UNL     1      31.517  -9.734 -22.071  0.00  0.00    -0.468 OA
ATOM      9  C   UNL     1      31.952  -9.310 -20.780  0.00  0.00    +0.253 C 
ENDBRANCH   5   8
BRANCH   6  10
ATOM     10  O   UNL     1      35.164  -9.735 -25.175  0.00  0.00    -0.468 OA
ATOM     11  C   UNL     1      35.688 -10.425 -26.307  0.00  0.00    +0.253 C 
ENDBRANCH   6  10
BRANCH   7  12
ATOM     12  O   UNL     1      33.340  -8.343 -23.624  0.00  0.00    -0.465 OA
ATOM     13  C   UNL     1      34.398  -7.695 -22.922  0.00  0.00    +0.253 C 
ENDBRANCH   7  12
ENDBRANCH   1   2
BRANCH   1  14
ATOM     14  C   UNL     1      32.716 -14.561 -24.986  0.00  0.00    +0.017 C 
ATOM     15  C   UNL     1      33.435 -15.779 -25.589  0.00  0.00    +0.001 C 
ATOM     16  C   UNL     1      32.626 -13.466 -26.067  0.00  0.00    +0.001 C 
ENDBRANCH   1  14
BRANCH   1  18
ATOM     17  N   UNL     1      31.942 -15.066 -21.614  0.00  0.00    -0.196 NA
ATOM     18  C   UNL     1      32.559 -14.626 -22.494  0.00  0.00    +0.075 C 
ENDBRANCH   1  18
BRANCH   1  19
ATOM     19  C   UNL     1      34.815 -14.568 -23.477  0.00  0.00    +0.016 C 
BRANCH  19  20
ATOM     20  C   UNL     1      35.038 -15.587 -22.339  0.00  0.00    -0.021 C 
BRANCH  20  21
ATOM     21  C   UNL     1      35.561 -16.935 -22.846  0.00  0.00    -0.077 C 
BRANCH  21  22
ATOM     22  N   UNL     1      34.488 -17.906 -23.019  0.00  0.00    +0.386 N 
ATOM     23  C   UNL     1      34.836 -18.881 -24.055  0.00  0.00    -0.101 C 
ATOM     24  H   UNL     1      33.650 -17.405 -23.315  0.00  0.00    -0.080 HD
BRANCH  22  25
ATOM     25  C   UNL     1      34.200 -18.588 -21.756  0.00  0.00    -0.073 C 
BRANCH  25  26
ATOM     26  C   UNL     1      35.467 -19.209 -21.168  0.00  0.00    +0.004 C 
BRANCH  26  27
ATOM     27  C   UNL     1      35.144 -20.344 -20.229  0.00  0.00    -0.021 C 
ATOM     28  C   UNL     1      36.138 -20.874 -19.407  0.00  0.00    +0.036 C 
ATOM     29  C   UNL     1      33.850 -20.862 -20.180  0.00  0.00    -0.001 C 
ATOM     30  C   UNL     1      35.839 -21.923 -18.539  0.00  0.00    +0.172 C 
ATOM     31  C   UNL     1      33.550 -21.910 -19.311  0.00  0.00    +0.040 C 
ATOM     32  C   UNL     1      34.545 -22.441 -18.490  0.00  0.00    +0.172 C 
BRANCH  30  33
ATOM     33  O   UNL     1      36.820 -22.433 -17.741  0.00  0.00    -0.468 OA
ATOM     34  C   UNL     1      37.175 -21.676 -16.586  0.00  0.00    +0.253 C 
ENDBRANCH  30  33
BRANCH  32  35
ATOM     35  O   UNL     1      34.240 -23.465 -17.644  0.00  0.00    -0.468 OA
ATOM     36  C   UNL     1      33.481 -23.140 -16.480  0.00  0.00    +0.253 C 
ENDBRANCH  32  35
ENDBRANCH  26  27
ENDBRANCH  25  26
ENDBRANCH  22  25
ENDBRANCH  21  22
ENDBRANCH  20  21
ENDBRANCH  19  20
ENDBRANCH   1  19
TORSDOF 15
ENDMDL
MODEL 2
REMARK VINA RESULT:      -8.7      0.153      2.143
REMARK  Name = 1234
REMARK  15 active torsions:
REMARK  status: ('A' for Active; 'I' for Inactive)
REMARK    1  A    between atoms: C_1  and  C_2
REMARK    2  A    between atoms: C_1  and  C_14
REMARK    3  A    between atoms: C_1  and  C_18
REMARK    4  A    between atoms: C_1  and  C_19
REMARK    5  A    between atoms: C_5  and  O_8
REMARK    6  A    between atoms: C_6  and  O_10
REMARK    7  A    between atoms: C_7  and  O_12
REMARK    8  A    between atoms: C_19  and  C_20
REMARK    9  A    between atoms: C_20  and  C_21
REMARK   10  A    between atoms: C_21  and  N_22
REMARK   11  A    between atoms: N_22  and  C_25
REMARK   12  A    between atoms: C_25  and  C_26
REMARK   13  A    between atoms: C_26  and  C_27
REMARK   14  A    between atoms: C_30  and  O_33
REMARK   15  A    between atoms: C_32  and  O_35
REMARK                            x       y       z     vdW  Elec       q    Type
REMARK                         _______ _______ _______ _____ _____    ______ ____
ROOT
ATOM      1  C   UNL     1      33.329 -14.037 -23.565  0.00  0.00    +0.098 C 
ENDROOT
BRANCH   1   2
ATOM      2  C   UNL     1      33.330 -12.490 -23.552  0.00  0.00    -0.003 C 
ATOM      3  C   UNL     1      32.410 -11.798 -22.763  0.00  0.00    +0.037 C 
ATOM      4  C   UNL     1      34.250 -11.786 -24.330  0.00  0.00    +0.037 C 
ATOM      5  C   UNL     1      34.250 -10.391 -24.317  0.00  0.00    +0.175 C 
ATOM      6  C   UNL     1      32.410 -10.404 -22.752  0.00  0.00    +0.175 C 
ATOM      7  C   UNL     1      33.331  -9.700 -23.529  0.00  0.00    +0.206 C 
BRANCH   5   8
ATOM      8  O   UNL     1      35.154  -9.716 -25.081  0.00  0.00    -0.468 OA
ATOM      9  C   UNL     1      35.688 -10.402 -26.212  0.00  0.00    +0.253 C 
ENDBRANCH   5   8
BRANCH   6  10
ATOM     10  O   UNL     1      31.508  -9.741 -21.977  0.00  0.00    -0.468 OA
ATOM     11  C   UNL     1      31.986  -9.189 -20.753  0.00  0.00    +0.253 C 
ENDBRANCH   6  10
BRANCH   7  12
ATOM     12  O   UNL     1      33.332  -8.337 -23.517  0.00  0.00    -0.465 OA
ATOM     13  C   UNL     1      34.517  -7.695 -23.055  0.00  0.00    +0.253 C 
ENDBRANCH   7  12
ENDBRANCH   1   2
BRANCH   1  14
ATOM     14  C   UNL     1      32.736 -14.541 -24.950  0.00  0.00    +0.017 C 
ATOM     15  C   UNL     1      33.436 -15.786 -25.521  0.00  0.00    +0.001 C 
ATOM     16  C   UNL     1      32.722 -13.450 -26.038  0.00  0.00    +0.001 C 
ENDBRANCH   1  14
BRANCH   1  18
ATOM     17  N   UNL     1      31.899 -15.088 -21.594  0.00  0.00    -0.196 NA
ATOM     18  C   UNL     1      32.518 -14.629 -22.463  0.00  0.00    +0.075 C 
ENDBRANCH   1  18
BRANCH   1  19
ATOM     19  C   UNL     1      34.797 -14.565 -23.389  0.00  0.00    +0.016 C 
BRANCH  19  20
ATOM     20  C   UNL     1      34.994 -15.582 -22.244  0.00  0.00    -0.021 C 
BRANCH  20  21
ATOM     21  C   UNL     1      35.556 -16.922 -22.732  0.00  0.00    -0.077 C 
BRANCH  21  22
ATOM     22  N   UNL     1      34.505 -17.911 -22.936  0.00  0.00    +0.386 N 
ATOM     23  C   UNL     1      34.889 -18.864 -23.980  0.00  0.00    -0.101 C 
ATOM     24  H   UNL     1      33.662 -17.423 -23.238  0.00  0.00    -0.080 HD
BRANCH  22  25
ATOM     25  C   UNL     1      34.212 -18.617 -21.687  0.00  0.00    -0.073 C 
BRANCH  25  26
ATOM     26  C   UNL     1      35.458 -19.320 -21.150  0.00  0.00    +0.004 C 
BRANCH  26  27
ATOM     27  C   UNL     1      35.100 -20.429 -20.191  0.00  0.00    -0.021 C 
ATOM     28  C   UNL     1      36.070 -20.953 -19.338  0.00  0.00    +0.036 C 
ATOM     29  C   UNL     1      33.798 -20.926 -20.156  0.00  0.00    -0.001 C 
ATOM     30  C   UNL     1      35.738 -21.977 -18.451  0.00  0.00    +0.172 C 
ATOM     31  C   UNL     1      33.465 -21.950 -19.270  0.00  0.00    +0.040 C 
ATOM     32  C   UNL     1      34.436 -22.475 -18.416  0.00  0.00    +0.172 C 
BRANCH  30  33
ATOM     33  O   UNL     1      36.695 -22.482 -17.623  0.00  0.00    -0.468 OA
ATOM     34  C   UNL     1      37.269 -21.586 -16.673  0.00  0.00    +0.253 C 
ENDBRANCH  30  33
BRANCH  32  35
ATOM     35  O   UNL     1      34.100 -23.474 -17.553  0.00  0.00    -0.468 OA
ATOM     36  C   UNL     1      32.916 -23.289 -16.777  0.00  0.00    +0.253 C 
ENDBRANCH  32  35
ENDBRANCH  26  27
ENDBRANCH  25  26
ENDBRANCH  22  25
ENDBRANCH  21  22
ENDBRANCH  20  21
ENDBRANCH  19  20
ENDBRANCH   1  19
TORSDOF 15
ENDMDL
MODEL 3
REMARK VINA RESULT:      -8.6      0.870      1.733
REMARK  Name = 1234
REMARK  15 active torsions:
REMARK  status: ('A' for Active; 'I' for Inactive)
REMARK    1  A    between atoms: C_1  and  C_2
REMARK    2  A    between atoms: C_1  and  C_14
REMARK    3  A    between atoms: C_1  and  C_18
REMARK    4  A    between atoms: C_1  and  C_19
REMARK    5  A    between atoms: C_5  and  O_8
REMARK    6  A    between atoms: C_6  and  O_10
REMARK    7  A    between atoms: C_7  and  O_12
REMARK    8  A    between atoms: C_19  and  C_20
REMARK    9  A    between atoms: C_20  and  C_21
REMARK   10  A    between atoms: C_21  and  N_22
REMARK   11  A    between atoms: N_22  and  C_25
REMARK   12  A    between atoms: C_25  and  C_26
REMARK   13  A    between atoms: C_26  and  C_27
REMARK   14  A    between atoms: C_30  and  O_33
REMARK   15  A    between atoms: C_32  and  O_35
REMARK                            x       y       z     vdW  Elec       q    Type
REMARK                         _______ _______ _______ _____ _____    ______ ____
ROOT
ATOM      1  C   UNL     1      33.459 -14.502 -23.118  0.00  0.00    +0.098 C 
ENDROOT
BRANCH   1   2
ATOM      2  C   UNL     1      33.279 -12.969 -23.214  0.00  0.00    -0.003 C 
ATOM      3  C   UNL     1      34.127 -12.216 -24.027  0.00  0.00    +0.037 C 
ATOM      4  C   UNL     1      32.269 -12.338 -22.486  0.00  0.00    +0.037 C 
ATOM      5  C   UNL     1      32.107 -10.955 -22.574  0.00  0.00    +0.175 C 
ATOM      6  C   UNL     1      33.965 -10.834 -24.113  0.00  0.00    +0.175 C 
ATOM      7  C   UNL     1      32.954 -10.203 -23.387  0.00  0.00    +0.206 C 
BRANCH   5   8
ATOM      8  O   UNL     1      31.117 -10.352 -21.858  0.00  0.00    -0.468 OA
ATOM      9  C   UNL     1      30.537 -11.102 -20.793  0.00  0.00    +0.253 C 
ENDBRANCH   5   8
BRANCH   6  10
ATOM     10  O   UNL     1      34.799 -10.111 -24.911  0.00  0.00    -0.468 OA
ATOM     11  C   UNL     1      35.206 -10.713 -26.137  0.00  0.00    +0.253 C 
ENDBRANCH   6  10
BRANCH   7  12
ATOM     12  O   UNL     1      32.795  -8.852 -23.471  0.00  0.00    -0.465 OA
ATOM     13  C   UNL     1      33.677  -8.047 -22.694  0.00  0.00    +0.253 C 
ENDBRANCH   7  12
ENDBRANCH   1   2
BRANCH   1  14
ATOM     14  C   UNL     1      33.097 -15.154 -24.520  0.00  0.00    +0.017 C 
ATOM     15  C   UNL     1      34.232 -15.984 -25.144  0.00  0.00    +0.001 C 
ATOM     16  C   UNL     1      32.618 -14.125 -25.562  0.00  0.00    +0.001 C 
ENDBRANCH   1  14
BRANCH   1  18
ATOM     17  N   UNL     1      31.926 -15.626 -21.269  0.00  0.00    -0.196 NA
ATOM     18  C   UNL     1      32.599 -15.126 -22.072  0.00  0.00    +0.075 C 
ENDBRANCH   1  18
BRANCH   1  19
ATOM     19  C   UNL     1      34.949 -14.834 -22.744  0.00  0.00    +0.016 C 
BRANCH  19  20
ATOM     20  C   UNL     1      35.128 -15.965 -21.710  0.00  0.00    -0.021 C 
BRANCH  20  21
ATOM     21  C   UNL     1      35.584 -17.282 -22.346  0.00  0.00    -0.077 C 
BRANCH  21  22
ATOM     22  N   UNL     1      34.508 -18.264 -22.396  0.00  0.00    +0.386 N 
ATOM     23  C   UNL     1      34.907 -19.426 -23.195  0.00  0.00    -0.101 C 
ATOM     24  H   UNL     1      33.700 -17.828 -22.841  0.00  0.00    -0.080 HD
BRANCH  22  25
ATOM     25  C   UNL     1      34.127 -18.683 -21.046  0.00  0.00    -0.073 C 
BRANCH  25  26
ATOM     26  C   UNL     1      33.703 -20.152 -21.028  0.00  0.00    +0.004 C 
BRANCH  26  27
ATOM     27  C   UNL     1      34.389 -20.913 -19.921  0.00  0.00    -0.021 C 
ATOM     28  C   UNL     1      33.646 -21.738 -19.078  0.00  0.00    +0.036 C 
ATOM     29  C   UNL     1      35.767 -20.793 -19.742  0.00  0.00    -0.001 C 
ATOM     30  C   UNL     1      34.280 -22.442 -18.054  0.00  0.00    +0.172 C 
ATOM     31  C   UNL     1      36.402 -21.497 -18.719  0.00  0.00    +0.040 C 
ATOM     32  C   UNL     1      35.658 -22.322 -17.875  0.00  0.00    +0.172 C 
BRANCH  30  33
ATOM     33  O   UNL     1      33.543 -23.245 -17.237  0.00  0.00    -0.468 OA
ATOM     34  C   UNL     1      32.165 -22.916 -17.075  0.00  0.00    +0.253 C 
ENDBRANCH  30  33
BRANCH  32  35
ATOM     35  O   UNL     1      36.289 -23.006 -16.880  0.00  0.00    -0.468 OA
ATOM     36  C   UNL     1      37.229 -22.279 -16.090  0.00  0.00    +0.253 C 
ENDBRANCH  32  35
ENDBRANCH  26  27
ENDBRANCH  25  26
ENDBRANCH  22  25
ENDBRANCH  21  22
ENDBRANCH  20  21
ENDBRANCH  19  20
ENDBRANCH   1  19
TORSDOF 15
ENDMDL
MODEL 4
REMARK VINA RESULT:      -8.5      1.465      3.192
REMARK  Name = 1234
REMARK  15 active torsions:
REMARK  status: ('A' for Active; 'I' for Inactive)
REMARK    1  A    between atoms: C_1  and  C_2
REMARK    2  A    between atoms: C_1  and  C_14
REMARK    3  A    between atoms: C_1  and  C_18
REMARK    4  A    between atoms: C_1  and  C_19
REMARK    5  A    between atoms: C_5  and  O_8
REMARK    6  A    between atoms: C_6  and  O_10
REMARK    7  A    between atoms: C_7  and  O_12
REMARK    8  A    between atoms: C_19  and  C_20
REMARK    9  A    between atoms: C_20  and  C_21
REMARK   10  A    between atoms: C_21  and  N_22
REMARK   11  A    between atoms: N_22  and  C_25
REMARK   12  A    between atoms: C_25  and  C_26
REMARK   13  A    between atoms: C_26  and  C_27
REMARK   14  A    between atoms: C_30  and  O_33
REMARK   15  A    between atoms: C_32  and  O_35
REMARK                            x       y       z     vdW  Elec       q    Type
REMARK                         _______ _______ _______ _____ _____    ______ ____
ROOT
ATOM      1  C   UNL     1      33.387 -14.883 -22.271  0.00  0.00    +0.098 C 
ENDROOT
BRANCH   1   2
ATOM      2  C   UNL     1      32.978 -13.398 -22.412  0.00  0.00    -0.003 C 
ATOM      3  C   UNL     1      31.960 -12.876 -21.615  0.00  0.00    +0.037 C 
ATOM      4  C   UNL     1      33.627 -12.581 -23.339  0.00  0.00    +0.037 C 
ATOM      5  C   UNL     1      33.257 -11.242 -23.465  0.00  0.00    +0.175 C 
ATOM      6  C   UNL     1      31.590 -11.538 -21.742  0.00  0.00    +0.175 C 
ATOM      7  C   UNL     1      32.239 -10.720 -22.667  0.00  0.00    +0.206 C 
BRANCH   5   8
ATOM      8  O   UNL     1      33.898 -10.454 -24.374  0.00  0.00    -0.468 OA
ATOM      9  C   UNL     1      34.539 -11.113 -25.465  0.00  0.00    +0.253 C 
ENDBRANCH   5   8
BRANCH   6  10
ATOM     10  O   UNL     1      30.595 -11.041 -20.956  0.00  0.00    -0.468 OA
ATOM     11  C   UNL     1      30.924 -10.751 -19.600  0.00  0.00    +0.253 C 
ENDBRANCH   6  10
BRANCH   7  12
ATOM     12  O   UNL     1      31.878  -9.412 -22.792  0.00  0.00    -0.465 OA
ATOM     13  C   UNL     1      32.592  -8.466 -22.000  0.00  0.00    +0.253 C 
ENDBRANCH   7  12
ENDBRANCH   1   2
BRANCH   1  14
ATOM     14  C   UNL     1      33.459 -15.539 -23.716  0.00  0.00    +0.017 C 
ATOM     15  C   UNL     1      34.872 -15.970 -24.145  0.00  0.00    +0.001 C 
ATOM     16  C   UNL     1      32.870 -14.641 -24.821  0.00  0.00    +0.001 C 
ENDBRANCH   1  14
BRANCH   1  18
ATOM     17  N   UNL     1      31.678 -16.281 -20.802  0.00  0.00    -0.196 NA
ATOM     18  C   UNL     1      32.433 -15.675 -21.443  0.00  0.00    +0.075 C 
ENDBRANCH   1  18
BRANCH   1  19
ATOM     19  C   UNL     1      34.790 -14.978 -21.571  0.00  0.00    +0.016 C 
BRANCH  19  20
ATOM     20  C   UNL     1      34.961 -16.170 -20.606  0.00  0.00    -0.021 C 
BRANCH  20  21
ATOM     21  C   UNL     1      35.527 -17.416 -21.296  0.00  0.00    -0.077 C 
BRANCH  21  22
ATOM     22  N   UNL     1      35.041 -18.645 -20.682  0.00  0.00    +0.386 N 
ATOM     23  C   UNL     1      33.918 -19.194 -21.446  0.00  0.00    -0.101 C 
ATOM     24  H   UNL     1      34.716 -18.425 -19.741  0.00  0.00    -0.080 HD
BRANCH  22  25
ATOM     25  C   UNL     1      36.118 -19.633 -20.583  0.00  0.00    -0.073 C 
BRANCH  25  26
ATOM     26  C   UNL     1      35.557 -21.054 -20.564  0.00  0.00    +0.004 C 
BRANCH  26  27
ATOM     27  C   UNL     1      35.550 -21.629 -19.169  0.00  0.00    -0.021 C 
ATOM     28  C   UNL     1      34.441 -22.343 -18.714  0.00  0.00    +0.036 C 
ATOM     29  C   UNL     1      36.653 -21.450 -18.335  0.00  0.00    -0.001 C 
ATOM     30  C   UNL     1      34.435 -22.875 -17.425  0.00  0.00    +0.172 C 
ATOM     31  C   UNL     1      36.648 -21.982 -17.046  0.00  0.00    +0.040 C 
ATOM     32  C   UNL     1      35.539 -22.695 -16.591  0.00  0.00    +0.172 C 
BRANCH  30  33
ATOM     33  O   UNL     1      33.346 -23.570 -16.993  0.00  0.00    -0.468 OA
ATOM     34  C   UNL     1      32.116 -22.854 -16.897  0.00  0.00    +0.253 C 
ENDBRANCH  30  33
BRANCH  32  35
ATOM     35  O   UNL     1      35.545 -23.211 -15.331  0.00  0.00    -0.468 OA
ATOM     36  C   UNL     1      36.812 -23.587 -14.791  0.00  0.00    +0.253 C 
ENDBRANCH  32  35
ENDBRANCH  26  27
ENDBRANCH  25  26
ENDBRANCH  22  25
ENDBRANCH  21  22
ENDBRANCH  20  21
ENDBRANCH  19  20
ENDBRANCH   1  19
TORSDOF 15
ENDMDL
MODEL 5
REMARK VINA RESULT:      -8.5      4.475      7.628
REMARK  Name = 1234
REMARK  15 active torsions:
REMARK  status: ('A' for Active; 'I' for Inactive)
REMARK    1  A    between atoms: C_1  and  C_2
REMARK    2  A    between atoms: C_1  and  C_14
REMARK    3  A    between atoms: C_1  and  C_18
REMARK    4  A    between atoms: C_1  and  C_19
REMARK    5  A    between atoms: C_5  and  O_8
REMARK    6  A    between atoms: C_6  and  O_10
REMARK    7  A    between atoms: C_7  and  O_12
REMARK    8  A    between atoms: C_19  and  C_20
REMARK    9  A    between atoms: C_20  and  C_21
REMARK   10  A    between atoms: C_21  and  N_22
REMARK   11  A    between atoms: N_22  and  C_25
REMARK   12  A    between atoms: C_25  and  C_26
REMARK   13  A    between atoms: C_26  and  C_27
REMARK   14  A    between atoms: C_30  and  O_33
REMARK   15  A    between atoms: C_32  and  O_35
REMARK                            x       y       z     vdW  Elec       q    Type
REMARK                         _______ _______ _______ _____ _____    ______ ____
ROOT
ATOM      1  C   UNL     1      32.565  -7.009 -23.057  0.00  0.00    +0.098 C 
ENDROOT
BRANCH   1   2
ATOM      2  C   UNL     1      32.347  -5.866 -24.076  0.00  0.00    -0.003 C 
ATOM      3  C   UNL     1      33.015  -5.885 -25.301  0.00  0.00    +0.037 C 
ATOM      4  C   UNL     1      31.483  -4.814 -23.770  0.00  0.00    +0.037 C 
ATOM      5  C   UNL     1      31.287  -3.783 -24.690  0.00  0.00    +0.175 C 
ATOM      6  C   UNL     1      32.819  -4.855 -26.219  0.00  0.00    +0.175 C 
ATOM      7  C   UNL     1      31.955  -3.803 -25.914  0.00  0.00    +0.206 C 
BRANCH   5   8
ATOM      8  O   UNL     1      30.441  -2.762 -24.379  0.00  0.00    -0.468 OA
ATOM      9  C   UNL     1      30.658  -2.094 -23.137  0.00  0.00    +0.253 C 
ENDBRANCH   5   8
BRANCH   6  10
ATOM     10  O   UNL     1      33.477  -4.887 -27.411  0.00  0.00    -0.468 OA
ATOM     11  C   UNL     1      34.893  -4.728 -27.375  0.00  0.00    +0.253 C 
ENDBRANCH   6  10
BRANCH   7  12
ATOM     12  O   UNL     1      31.763  -2.796 -26.812  0.00  0.00    -0.465 OA
ATOM     13  C   UNL     1      32.766  -1.786 -26.875  0.00  0.00    +0.253 C 
ENDBRANCH   7  12
ENDBRANCH   1   2
BRANCH   1  14
ATOM     14  C   UNL     1      32.362  -6.438 -21.589  0.00  0.00    +0.017 C 
ATOM     15  C   UNL     1      32.749  -7.420 -20.470  0.00  0.00    +0.001 C 
ATOM     16  C   UNL     1      30.927  -5.940 -21.324  0.00  0.00    +0.001 C 
ENDBRANCH   1  14
BRANCH   1  18
ATOM     17  N   UNL     1      34.985  -8.080 -23.224  0.00  0.00    -0.196 NA
ATOM     18  C   UNL     1      33.925  -7.614 -23.142  0.00  0.00    +0.075 C 
ENDBRANCH   1  18
BRANCH   1  19
ATOM     19  C   UNL     1      31.532  -8.161 -23.330  0.00  0.00    +0.016 C 
BRANCH  19  20
ATOM     20  C   UNL     1      32.067  -9.589 -23.093  0.00  0.00    -0.021 C 
BRANCH  20  21
ATOM     21  C   UNL     1      31.165 -10.414 -22.169  0.00  0.00    -0.077 C 
BRANCH  21  22
ATOM     22  N   UNL     1      31.931 -11.340 -21.345  0.00  0.00    +0.386 N 
ATOM     23  C   UNL     1      31.376 -11.406 -19.991  0.00  0.00    -0.101 C 
ATOM     24  H   UNL     1      32.889 -10.996 -21.285  0.00  0.00    -0.080 HD
BRANCH  22  25
ATOM     25  C   UNL     1      31.953 -12.673 -21.950  0.00  0.00    -0.073 C 
BRANCH  25  26
ATOM     26  C   UNL     1      32.650 -13.679 -21.034  0.00  0.00    +0.004 C 
BRANCH  26  27
ATOM     27  C   UNL     1      33.364 -14.747 -21.825  0.00  0.00    -0.021 C 
ATOM     28  C   UNL     1      33.300 -14.743 -23.218  0.00  0.00    +0.036 C 
ATOM     29  C   UNL     1      34.091 -15.735 -21.163  0.00  0.00    -0.001 C 
ATOM     30  C   UNL     1      33.961 -15.730 -23.948  0.00  0.00    +0.172 C 
ATOM     31  C   UNL     1      34.753 -16.722 -21.892  0.00  0.00    +0.040 C 
ATOM     32  C   UNL     1      34.689 -16.719 -23.286  0.00  0.00    +0.172 C 
BRANCH  30  33
ATOM     33  O   UNL     1      33.891 -15.716 -25.309  0.00  0.00    -0.468 OA
ATOM     34  C   UNL     1      33.058 -14.724 -25.906  0.00  0.00    +0.253 C 
ENDBRANCH  30  33
BRANCH  32  35
ATOM     35  O   UNL     1      35.339 -17.687 -23.989  0.00  0.00    -0.468 OA
ATOM     36  C   UNL     1      34.579 -18.834 -24.369  0.00  0.00    +0.253 C 
ENDBRANCH  32  35
ENDBRANCH  26  27
ENDBRANCH  25  26
ENDBRANCH  22  25
ENDBRANCH  21  22
ENDBRANCH  20  21
ENDBRANCH  19  20
ENDBRANCH   1  19
TORSDOF 15
ENDMDL
MODEL 6
REMARK VINA RESULT:      -8.4      4.303      8.062
REMARK  Name = 1234
REMARK  15 active torsions:
REMARK  status: ('A' for Active; 'I' for Inactive)
REMARK    1  A    between atoms: C_1  and  C_2
REMARK    2  A    between atoms: C_1  and  C_14
REMARK    3  A    between atoms: C_1  and  C_18
REMARK    4  A    between atoms: C_1  and  C_19
REMARK    5  A    between atoms: C_5  and  O_8
REMARK    6  A    between atoms: C_6  and  O_10
REMARK    7  A    between atoms: C_7  and  O_12
REMARK    8  A    between atoms: C_19  and  C_20
REMARK    9  A    between atoms: C_20  and  C_21
REMARK   10  A    between atoms: C_21  and  N_22
REMARK   11  A    between atoms: N_22  and  C_25
REMARK   12  A    between atoms: C_25  and  C_26
REMARK   13  A    between atoms: C_26  and  C_27
REMARK   14  A    between atoms: C_30  and  O_33
REMARK   15  A    between atoms: C_32  and  O_35
REMARK                            x       y       z     vdW  Elec       q    Type
REMARK                         _______ _______ _______ _____ _____    ______ ____
ROOT
ATOM      1  C   UNL     1      32.324  -6.571 -23.225  0.00  0.00    +0.098 C 
ENDROOT
BRANCH   1   2
ATOM      2  C   UNL     1      32.328  -5.476 -24.318  0.00  0.00    -0.003 C 
ATOM      3  C   UNL     1      31.540  -4.335 -24.166  0.00  0.00    +0.037 C 
ATOM      4  C   UNL     1      33.120  -5.631 -25.456  0.00  0.00    +0.037 C 
ATOM      5  C   UNL     1      33.123  -4.643 -26.442  0.00  0.00    +0.175 C 
ATOM      6  C   UNL     1      31.543  -3.349 -25.151  0.00  0.00    +0.175 C 
ATOM      7  C   UNL     1      32.335  -3.502 -26.289  0.00  0.00    +0.206 C 
BRANCH   5   8
ATOM      8  O   UNL     1      33.900  -4.806 -27.549  0.00  0.00    -0.468 OA
ATOM      9  C   UNL     1      35.314  -4.769 -27.360  0.00  0.00    +0.253 C 
ENDBRANCH   5   8
BRANCH   6  10
ATOM     10  O   UNL     1      30.770  -2.239 -24.990  0.00  0.00    -0.468 OA
ATOM     11  C   UNL     1      30.558  -1.786 -23.655  0.00  0.00    +0.253 C 
ENDBRANCH   6  10
BRANCH   7  12
ATOM     12  O   UNL     1      32.339  -2.538 -27.252  0.00  0.00    -0.465 OA
ATOM     13  C   UNL     1      31.429  -2.702 -28.337  0.00  0.00    +0.253 C 
ENDBRANCH   7  12
ENDBRANCH   1   2
BRANCH   1  14
ATOM     14  C   UNL     1      31.937  -5.910 -21.833  0.00  0.00    +0.017 C 
ATOM     15  C   UNL     1      32.296  -6.765 -20.606  0.00  0.00    +0.001 C 
ATOM     16  C   UNL     1      30.449  -5.523 -21.738  0.00  0.00    +0.001 C 
ENDBRANCH   1  14
BRANCH   1  18
ATOM     17  N   UNL     1      34.663  -7.788 -22.943  0.00  0.00    -0.196 NA
ATOM     18  C   UNL     1      33.643  -7.249 -23.073  0.00  0.00    +0.075 C 
ENDBRANCH   1  18
BRANCH   1  19
ATOM     19  C   UNL     1      31.277  -7.682 -23.597  0.00  0.00    +0.016 C 
BRANCH  19  20
ATOM     20  C   UNL     1      31.793  -9.132 -23.484  0.00  0.00    -0.021 C 
BRANCH  20  21
ATOM     21  C   UNL     1      30.989  -9.970 -22.484  0.00  0.00    -0.077 C 
BRANCH  21  22
ATOM     22  N   UNL     1      31.853 -10.770 -21.626  0.00  0.00    +0.386 N 
ATOM     23  C   UNL     1      31.410 -10.692 -20.232  0.00  0.00    -0.101 C 
ATOM     24  H   UNL     1      32.799 -10.393 -21.686  0.00  0.00    -0.080 HD
BRANCH  22  25
ATOM     25  C   UNL     1      31.878 -12.164 -22.073  0.00  0.00    -0.073 C 
BRANCH  25  26
ATOM     26  C   UNL     1      32.287 -13.097 -20.933  0.00  0.00    +0.004 C 
BRANCH  26  27
ATOM     27  C   UNL     1      33.105 -14.261 -21.436  0.00  0.00    -0.021 C 
ATOM     28  C   UNL     1      33.076 -14.601 -22.788  0.00  0.00    +0.036 C 
ATOM     29  C   UNL     1      33.892 -14.994 -20.549  0.00  0.00    -0.001 C 
ATOM     30  C   UNL     1      33.833 -15.676 -23.252  0.00  0.00    +0.172 C 
ATOM     31  C   UNL     1      34.649 -16.069 -21.012  0.00  0.00    +0.040 C 
ATOM     32  C   UNL     1      34.620 -16.410 -22.365  0.00  0.00    +0.172 C 
BRANCH  30  33
ATOM     33  O   UNL     1      33.796 -15.999 -24.576  0.00  0.00    -0.468 OA
ATOM     34  C   UNL     1      33.411 -14.970 -25.484  0.00  0.00    +0.253 C 
ENDBRANCH  30  33
BRANCH  32  35
ATOM     35  O   UNL     1      35.365 -17.462 -22.807  0.00  0.00    -0.468 OA
ATOM     36  C   UNL     1      34.839 -18.769 -22.579  0.00  0.00    +0.253 C 
ENDBRANCH  32  35
ENDBRANCH  26  27
ENDBRANCH  25  26
ENDBRANCH  22  25
ENDBRANCH  21  22
ENDBRANCH  20  21
ENDBRANCH  19  20
ENDBRANCH   1  19
TORSDOF 15
ENDMDL
MODEL 7
REMARK VINA RESULT:      -8.4      3.849     12.536
REMARK  Name = 1234
REMARK  15 active torsions:
REMARK  status: ('A' for Active; 'I' for Inactive)
REMARK    1  A    between atoms: C_1  and  C_2
REMARK    2  A    between atoms: C_1  and  C_14
REMARK    3  A    between atoms: C_1  and  C_18
REMARK    4  A    between atoms: C_1  and  C_19
REMARK    5  A    between atoms: C_5  and  O_8
REMARK    6  A    between atoms: C_6  and  O_10
REMARK    7  A    between atoms: C_7  and  O_12
REMARK    8  A    between atoms: C_19  and  C_20
REMARK    9  A    between atoms: C_20  and  C_21
REMARK   10  A    between atoms: C_21  and  N_22
REMARK   11  A    between atoms: N_22  and  C_25
REMARK   12  A    between atoms: C_25  and  C_26
REMARK   13  A    between atoms: C_26  and  C_27
REMARK   14  A    between atoms: C_30  and  O_33
REMARK   15  A    between atoms: C_32  and  O_35
REMARK                            x       y       z     vdW  Elec       q    Type
REMARK                         _______ _______ _______ _____ _____    ______ ____
ROOT
ATOM      1  C   UNL     1      32.000 -23.843 -15.341  0.00  0.00    +0.098 C 
ENDROOT
BRANCH   1   2
ATOM      2  C   UNL     1      33.449 -23.988 -14.818  0.00  0.00    -0.003 C 
ATOM      3  C   UNL     1      34.526 -23.705 -15.658  0.00  0.00    +0.037 C 
ATOM      4  C   UNL     1      33.678 -24.405 -13.506  0.00  0.00    +0.037 C 
ATOM      5  C   UNL     1      34.985 -24.536 -13.036  0.00  0.00    +0.175 C 
ATOM      6  C   UNL     1      35.831 -23.837 -15.188  0.00  0.00    +0.175 C 
ATOM      7  C   UNL     1      36.061 -24.253 -13.876  0.00  0.00    +0.206 C 
BRANCH   5   8
ATOM      8  O   UNL     1      35.195 -24.944 -11.753  0.00  0.00    -0.468 OA
ATOM      9  C   UNL     1      35.689 -23.969 -10.835  0.00  0.00    +0.253 C 
ENDBRANCH   5   8
BRANCH   6  10
ATOM     10  O   UNL     1      36.873 -23.556 -16.018  0.00  0.00    -0.468 OA
ATOM     11  C   UNL     1      37.453 -22.258 -15.915  0.00  0.00    +0.253 C 
ENDBRANCH   6  10
BRANCH   7  12
ATOM     12  O   UNL     1      37.337 -24.381 -13.415  0.00  0.00    -0.465 OA
ATOM     13  C   UNL     1      37.942 -25.666 -13.534  0.00  0.00    +0.253 C 
ENDBRANCH   7  12
ENDBRANCH   1   2
BRANCH   1  14
ATOM     14  C   UNL     1      31.360 -22.523 -14.730  0.00  0.00    +0.017 C 
ATOM     15  C   UNL     1      31.506 -22.398 -13.204  0.00  0.00    +0.001 C 
ATOM     16  C   UNL     1      29.873 -22.346 -15.092  0.00  0.00    +0.001 C 
ENDBRANCH   1  14
BRANCH   1  18
ATOM     17  N   UNL     1      30.439 -25.888 -14.697  0.00  0.00    -0.196 NA
ATOM     18  C   UNL     1      31.130 -24.998 -14.979  0.00  0.00    +0.075 C 
ENDBRANCH   1  18
BRANCH   1  19
ATOM     19  C   UNL     1      32.013 -23.752 -16.909  0.00  0.00    +0.016 C 
BRANCH  19  20
ATOM     20  C   UNL     1      32.460 -22.391 -17.483  0.00  0.00    -0.021 C 
BRANCH  20  21
ATOM     21  C   UNL     1      33.292 -22.531 -18.762  0.00  0.00    -0.077 C 
BRANCH  21  22
ATOM     22  N   UNL     1      34.193 -21.402 -18.952  0.00  0.00    +0.386 N 
ATOM     23  C   UNL     1      35.584 -21.859 -19.019  0.00  0.00    -0.101 C 
ATOM     24  H   UNL     1      34.096 -20.778 -18.151  0.00  0.00    -0.080 HD
BRANCH  22  25
ATOM     25  C   UNL     1      33.844 -20.661 -20.165  0.00  0.00    -0.073 C 
BRANCH  25  26
ATOM     26  C   UNL     1      35.069 -20.462 -21.058  0.00  0.00    +0.004 C 
BRANCH  26  27
ATOM     27  C   UNL     1      35.055 -19.110 -21.727  0.00  0.00    -0.021 C 
ATOM     28  C   UNL     1      34.994 -17.951 -20.955  0.00  0.00    +0.036 C 
ATOM     29  C   UNL     1      35.105 -19.021 -23.117  0.00  0.00    -0.001 C 
ATOM     30  C   UNL     1      34.981 -16.701 -21.574  0.00  0.00    +0.172 C 
ATOM     31  C   UNL     1      35.092 -17.771 -23.737  0.00  0.00    +0.040 C 
ATOM     32  C   UNL     1      35.031 -16.611 -22.965  0.00  0.00    +0.172 C 
BRANCH  30  33
ATOM     33  O   UNL     1      34.921 -15.575 -20.809  0.00  0.00    -0.468 OA
ATOM     34  C   UNL     1      33.629 -15.144 -20.389  0.00  0.00    +0.253 C 
ENDBRANCH  30  33
BRANCH  32  35
ATOM     35  O   UNL     1      35.021 -15.396 -23.581  0.00  0.00    -0.468 OA
ATOM     36  C   UNL     1      33.777 -14.956 -24.125  0.00  0.00    +0.253 C 
ENDBRANCH  32  35
ENDBRANCH  26  27
ENDBRANCH  25  26
ENDBRANCH  22  25
ENDBRANCH  21  22
ENDBRANCH  20  21
ENDBRANCH  19  20
ENDBRANCH   1  19
TORSDOF 15
ENDMDL
MODEL 8
REMARK VINA RESULT:      -8.3      2.986      5.744
REMARK  Name = 1234
REMARK  15 active torsions:
REMARK  status: ('A' for Active; 'I' for Inactive)
REMARK    1  A    between atoms: C_1  and  C_2
REMARK    2  A    between atoms: C_1  and  C_14
REMARK    3  A    between atoms: C_1  and  C_18
REMARK    4  A    between atoms: C_1  and  C_19
REMARK    5  A    between atoms: C_5  and  O_8
REMARK    6  A    between atoms: C_6  and  O_10
REMARK    7  A    between atoms: C_7  and  O_12
REMARK    8  A    between atoms: C_19  and  C_20
REMARK    9  A    between atoms: C_20  and  C_21
REMARK   10  A    between atoms: C_21  and  N_22
REMARK   11  A    between atoms: N_22  and  C_25
REMARK   12  A    between atoms: C_25  and  C_26
REMARK   13  A    between atoms: C_26  and  C_27
REMARK   14  A    between atoms: C_30  and  O_33
REMARK   15  A    between atoms: C_32  and  O_35
REMARK                            x       y       z     vdW  Elec       q    Type
REMARK                         _______ _______ _______ _____ _____    ______ ____
ROOT
ATOM      1  C   UNL     1      34.868 -18.541 -21.972  0.00  0.00    +0.098 C 
ENDROOT
BRANCH   1   2
ATOM      2  C   UNL     1      34.589 -17.060 -22.321  0.00  0.00    -0.003 C 
ATOM      3  C   UNL     1      34.566 -16.649 -23.654  0.00  0.00    +0.037 C 
ATOM      4  C   UNL     1      34.363 -16.134 -21.302  0.00  0.00    +0.037 C 
ATOM      5  C   UNL     1      34.113 -14.798 -21.618  0.00  0.00    +0.175 C 
ATOM      6  C   UNL     1      34.316 -15.314 -23.969  0.00  0.00    +0.175 C 
ATOM      7  C   UNL     1      34.089 -14.389 -22.951  0.00  0.00    +0.206 C 
BRANCH   5   8
ATOM      8  O   UNL     1      33.894 -13.904 -20.614  0.00  0.00    -0.468 OA
ATOM      9  C   UNL     1      32.567 -13.824 -20.094  0.00  0.00    +0.253 C 
ENDBRANCH   5   8
BRANCH   6  10
ATOM     10  O   UNL     1      34.295 -14.928 -25.275  0.00  0.00    -0.468 OA
ATOM     11  C   UNL     1      33.109 -15.207 -26.015  0.00  0.00    +0.253 C 
ENDBRANCH   6  10
BRANCH   7  12
ATOM     12  O   UNL     1      33.844 -13.084 -23.258  0.00  0.00    -0.465 OA
ATOM     13  C   UNL     1      32.480 -12.700 -23.411  0.00  0.00    +0.253 C 
ENDBRANCH   7  12
ENDBRANCH   1   2
BRANCH   1  14
ATOM     14  C   UNL     1      36.273 -18.644 -21.239  0.00  0.00    +0.017 C 
ATOM     15  C   UNL     1      37.485 -18.590 -22.185  0.00  0.00    +0.001 C 
ATOM     16  C   UNL     1      36.404 -19.897 -20.352  0.00  0.00    +0.001 C 
ENDBRANCH   1  14
BRANCH   1  18
ATOM     17  N   UNL     1      34.914 -20.105 -24.114  0.00  0.00    -0.196 NA
ATOM     18  C   UNL     1      34.896 -19.427 -23.171  0.00  0.00    +0.075 C 
ENDBRANCH   1  18
BRANCH   1  19
ATOM     19  C   UNL     1      33.733 -19.082 -21.030  0.00  0.00    +0.016 C 
BRANCH  19  20
ATOM     20  C   UNL     1      33.725 -20.611 -20.825  0.00  0.00    -0.021 C 
BRANCH  20  21
ATOM     21  C   UNL     1      32.964 -21.036 -19.565  0.00  0.00    -0.077 C 
BRANCH  21  22
ATOM     22  N   UNL     1      33.154 -22.450 -19.266  0.00  0.00    +0.386 N 
ATOM     23  C   UNL     1      34.410 -22.935 -19.842  0.00  0.00    -0.101 C 
ATOM     24  H   UNL     1      32.383 -22.971 -19.685  0.00  0.00    -0.080 HD
BRANCH  22  25
ATOM     25  C   UNL     1      33.137 -22.679 -17.820  0.00  0.00    -0.073 C 
BRANCH  25  26
ATOM     26  C   UNL     1      34.557 -22.823 -17.272  0.00  0.00    +0.004 C 
BRANCH  26  27
ATOM     27  C   UNL     1      34.554 -23.316 -15.846  0.00  0.00    -0.021 C 
ATOM     28  C   UNL     1      33.347 -23.475 -15.166  0.00  0.00    +0.036 C 
ATOM     29  C   UNL     1      35.757 -23.617 -15.210  0.00  0.00    -0.001 C 
ATOM     30  C   UNL     1      33.344 -23.931 -13.849  0.00  0.00    +0.172 C 
ATOM     31  C   UNL     1      35.756 -24.074 -13.893  0.00  0.00    +0.040 C 
ATOM     32  C   UNL     1      34.548 -24.232 -13.212  0.00  0.00    +0.172 C 
BRANCH  30  33
ATOM     33  O   UNL     1      32.158 -24.082 -13.194  0.00  0.00    -0.468 OA
ATOM     34  C   UNL     1      31.265 -25.075 -13.691  0.00  0.00    +0.253 C 
ENDBRANCH  30  33
BRANCH  32  35
ATOM     35  O   UNL     1      34.558 -24.680 -11.926  0.00  0.00    -0.468 OA
ATOM     36  C   UNL     1      35.795 -24.593 -11.219  0.00  0.00    +0.253 C 
ENDBRANCH  32  35
ENDBRANCH  26  27
ENDBRANCH  25  26
ENDBRANCH  22  25
ENDBRANCH  21  22
ENDBRANCH  20  21
ENDBRANCH  19  20
ENDBRANCH   1  19
TORSDOF 15
ENDMDL
MODEL 9
REMARK VINA RESULT:      -8.3      2.985      6.028
REMARK  Name = 1234
REMARK  15 active torsions:
REMARK  status: ('A' for Active; 'I' for Inactive)
REMARK    1  A    between atoms: C_1  and  C_2
REMARK    2  A    between atoms: C_1  and  C_14
REMARK    3  A    between atoms: C_1  and  C_18
REMARK    4  A    between atoms: C_1  and  C_19
REMARK    5  A    between atoms: C_5  and  O_8
REMARK    6  A    between atoms: C_6  and  O_10
REMARK    7  A    between atoms: C_7  and  O_12
REMARK    8  A    between atoms: C_19  and  C_20
REMARK    9  A    between atoms: C_20  and  C_21
REMARK   10  A    between atoms: C_21  and  N_22
REMARK   11  A    between atoms: N_22  and  C_25
REMARK   12  A    between atoms: C_25  and  C_26
REMARK   13  A    between atoms: C_26  and  C_27
REMARK   14  A    between atoms: C_30  and  O_33
REMARK   15  A    between atoms: C_32  and  O_35
REMARK                            x       y       z     vdW  Elec       q    Type
REMARK                         _______ _______ _______ _____ _____    ______ ____
ROOT
ATOM      1  C   UNL     1      34.852 -18.546 -21.950  0.00  0.00    +0.098 C 
ENDROOT
BRANCH   1   2
ATOM      2  C   UNL     1      34.576 -17.068 -22.316  0.00  0.00    -0.003 C 
ATOM      3  C   UNL     1      34.330 -16.134 -21.310  0.00  0.00    +0.037 C 
ATOM      4  C   UNL     1      34.572 -16.671 -23.654  0.00  0.00    +0.037 C 
ATOM      5  C   UNL     1      34.322 -15.338 -23.983  0.00  0.00    +0.175 C 
ATOM      6  C   UNL     1      34.081 -14.803 -21.640  0.00  0.00    +0.175 C 
ATOM      7  C   UNL     1      34.077 -14.404 -22.976  0.00  0.00    +0.206 C 
BRANCH   5   8
ATOM      8  O   UNL     1      34.320 -14.962 -25.292  0.00  0.00    -0.468 OA
ATOM      9  C   UNL     1      33.129 -15.209 -26.037  0.00  0.00    +0.253 C 
ENDBRANCH   5   8
BRANCH   6  10
ATOM     10  O   UNL     1      33.843 -13.901 -20.647  0.00  0.00    -0.468 OA
ATOM     11  C   UNL     1      32.532 -13.883 -20.087  0.00  0.00    +0.253 C 
ENDBRANCH   6  10
BRANCH   7  12
ATOM     12  O   UNL     1      33.834 -13.103 -23.299  0.00  0.00    -0.465 OA
ATOM     13  C   UNL     1      32.469 -12.699 -23.377  0.00  0.00    +0.253 C 
ENDBRANCH   7  12
ENDBRANCH   1   2
BRANCH   1  14
ATOM     14  C   UNL     1      36.265 -18.645 -21.231  0.00  0.00    +0.017 C 
ATOM     15  C   UNL     1      37.468 -18.567 -22.188  0.00  0.00    +0.001 C 
ATOM     16  C   UNL     1      36.417 -19.908 -20.361  0.00  0.00    +0.001 C 
ENDBRANCH   1  14
BRANCH   1  18
ATOM     17  N   UNL     1      34.889 -20.147 -24.064  0.00  0.00    -0.196 NA
ATOM     18  C   UNL     1      34.864 -19.449 -23.137  0.00  0.00    +0.075 C 
ENDBRANCH   1  18
BRANCH   1  19
ATOM     19  C   UNL     1      33.726 -19.069 -20.988  0.00  0.00    +0.016 C 
BRANCH  19  20
ATOM     20  C   UNL     1      33.673 -20.601 -20.813  0.00  0.00    -0.021 C 
BRANCH  20  21
ATOM     21  C   UNL     1      32.983 -21.026 -19.513  0.00  0.00    -0.077 C 
BRANCH  21  22
ATOM     22  N   UNL     1      33.144 -22.451 -19.252  0.00  0.00    +0.386 N 
ATOM     23  C   UNL     1      34.382 -22.949 -19.856  0.00  0.00    -0.101 C 
ATOM     24  H   UNL     1      32.357 -22.943 -19.673  0.00  0.00    -0.080 HD
BRANCH  22  25
ATOM     25  C   UNL     1      33.141 -22.715 -17.812  0.00  0.00    -0.073 C 
BRANCH  25  26
ATOM     26  C   UNL     1      34.567 -22.803 -17.268  0.00  0.00    +0.004 C 
BRANCH  26  27
ATOM     27  C   UNL     1      34.589 -23.319 -15.850  0.00  0.00    -0.021 C 
ATOM     28  C   UNL     1      33.392 -23.542 -15.171  0.00  0.00    +0.036 C 
ATOM     29  C   UNL     1      35.806 -23.575 -15.221  0.00  0.00    -0.001 C 
ATOM     30  C   UNL     1      33.413 -24.019 -13.861  0.00  0.00    +0.172 C 
ATOM     31  C   UNL     1      35.828 -24.054 -13.911  0.00  0.00    +0.040 C 
ATOM     32  C   UNL     1      34.631 -24.276 -13.231  0.00  0.00    +0.172 C 
BRANCH  30  33
ATOM     33  O   UNL     1      32.236 -24.233 -13.207  0.00  0.00    -0.468 OA
ATOM     34  C   UNL     1      31.094 -23.522 -13.678  0.00  0.00    +0.253 C 
ENDBRANCH  30  33
BRANCH  32  35
ATOM     35  O   UNL     1      34.663 -24.744 -11.952  0.00  0.00    -0.468 OA
ATOM     36  C   UNL     1      35.734 -24.292 -11.124  0.00  0.00    +0.253 C 
ENDBRANCH  32  35
ENDBRANCH  26  27
ENDBRANCH  25  26
ENDBRANCH  22  25
ENDBRANCH  21  22
ENDBRANCH  20  21
ENDBRANCH  19  20
ENDBRANCH   1  19
TORSDOF 15
ENDMDL
