MODEL 1
REMARK VINA RESULT:      -9.8      0.000      0.000
REMARK  Name = 34870
REMARK  9 active torsions:
REMARK  status: ('A' for Active; 'I' for Inactive)
REMARK    1  A    between atoms: C_1  and  N_16
REMARK    2  A    between atoms: N_16  and  C_19
REMARK    3  A    between atoms: C_19  and  C_20
REMARK    4  A    between atoms: C_20  and  C_21
REMARK    5  A    between atoms: C_21  and  C_22
REMARK    6  A    between atoms: C_22  and  C_23
REMARK    7  A    between atoms: C_23  and  C_24
REMARK    8  A    between atoms: C_24  and  C_26
REMARK    9  A    between atoms: C_26  and  O_27
REMARK                            x       y       z     vdW  Elec       q    Type
REMARK                         _______ _______ _______ _____ _____    ______ ____
ROOT
ATOM      1  C   UNL     1      34.818 -23.937 -15.512  0.00  0.00    -0.016 C 
ATOM      2  C   UNL     1      34.810 -23.149 -16.818  0.00  0.00    -0.042 C 
ATOM      3  C   UNL     1      36.101 -24.691 -15.212  0.00  0.00    -0.042 C 
ATOM      4  C   UNL     1      37.215 -22.133 -16.660  0.00  0.00    +0.031 C 
ATOM      5  C   UNL     1      37.428 -22.540 -15.207  0.00  0.00    +0.031 C 
ATOM      6  C   UNL     1      35.856 -22.335 -17.299  0.00  0.00    -0.027 C 
ATOM      7  C   UNL     1      37.330 -24.031 -15.036  0.00  0.00    -0.027 C 
ATOM      8  C   UNL     1      33.615 -23.223 -17.574  0.00  0.00    -0.006 C 
ATOM      9  C   UNL     1      36.060 -26.091 -15.076  0.00  0.00    -0.006 C 
ATOM     10  C   UNL     1      35.677 -21.659 -18.529  0.00  0.00    -0.005 C 
ATOM     11  C   UNL     1      38.482 -24.774 -14.731  0.00  0.00    -0.005 C 
ATOM     12  C   UNL     1      33.458 -22.539 -18.779  0.00  0.00    -0.000 C 
ATOM     13  C   UNL     1      37.210 -26.819 -14.774  0.00  0.00    -0.000 C 
ATOM     14  C   UNL     1      34.494 -21.757 -19.260  0.00  0.00    -0.000 C 
ATOM     15  C   UNL     1      38.421 -26.160 -14.600  0.00  0.00    -0.000 C 
ENDROOT
BRANCH   1  16
ATOM     16  N   UNL     1      34.391 -23.101 -14.379  0.00  0.00    +0.390 N 
ATOM     17  H   UNL     1      33.735 -22.395 -14.711  0.00  0.00    -0.083 HD
ATOM     18  H   UNL     1      35.213 -22.652 -13.973  0.00  0.00    -0.083 HD
BRANCH  16  19
ATOM     19  C   UNL     1      33.748 -23.913 -13.361  0.00  0.00    -0.081 C 
BRANCH  19  20
ATOM     20  C   UNL     1      32.470 -24.542 -13.914  0.00  0.00    -0.023 C 
BRANCH  20  21
ATOM     21  C   UNL     1      31.272 -23.607 -13.732  0.00  0.00    -0.002 C 
BRANCH  21  22
ATOM     22  C   UNL     1      31.010 -22.708 -14.944  0.00  0.00    +0.000 C 
BRANCH  22  23
ATOM     23  C   UNL     1      30.122 -23.308 -16.038  0.00  0.00    +0.012 C 
BRANCH  23  24
ATOM     24  C   UNL     1      28.629 -23.236 -15.717  0.00  0.00    +0.109 C 
BRANCH  24  26
ATOM     25  O   UNL     1      27.427 -21.585 -17.044  0.00  0.00    -0.250 OA
ATOM     26  C   UNL     1      27.824 -22.733 -16.893  0.00  0.00    +0.314 C 
BRANCH  26  27
ATOM     27  O   UNL     1      27.589 -23.723 -17.793  0.00  0.00    -0.480 OA
ATOM     28  H   UNL     1      28.201 -24.427 -17.886  0.00  0.00    +0.295 HD
ENDBRANCH  26  27
ENDBRANCH  24  26
ENDBRANCH  23  24
ENDBRANCH  22  23
ENDBRANCH  21  22
ENDBRANCH  20  21
ENDBRANCH  19  20
ENDBRANCH  16  19
ENDBRANCH   1  16
TORSDOF 9
ENDMDL
MODEL 2
REMARK VINA RESULT:      -9.2      9.777     13.093
REMARK  Name = 34870
REMARK  9 active torsions:
REMARK  status: ('A' for Active; 'I' for Inactive)
REMARK    1  A    between atoms: C_1  and  N_16
REMARK    2  A    between atoms: N_16  and  C_19
REMARK    3  A    between atoms: C_19  and  C_20
REMARK    4  A    between atoms: C_20  and  C_21
REMARK    5  A    between atoms: C_21  and  C_22
REMARK    6  A    between atoms: C_22  and  C_23
REMARK    7  A    between atoms: C_23  and  C_24
REMARK    8  A    between atoms: C_24  and  C_26
REMARK    9  A    between atoms: C_26  and  O_27
REMARK                            x       y       z     vdW  Elec       q    Type
REMARK                         _______ _______ _______ _____ _____    ______ ____
ROOT
ATOM      1  C   UNL     1      33.779 -13.064 -24.123  0.00  0.00    -0.016 C 
ATOM      2  C   UNL     1      33.887 -11.544 -24.058  0.00  0.00    -0.042 C 
ATOM      3  C   UNL     1      33.644 -13.767 -22.784  0.00  0.00    -0.042 C 
ATOM      4  C   UNL     1      32.044 -11.114 -22.251  0.00  0.00    +0.031 C 
ATOM      5  C   UNL     1      31.493 -12.535 -22.294  0.00  0.00    +0.031 C 
ATOM      6  C   UNL     1      33.098 -10.694 -23.254  0.00  0.00    -0.027 C 
ATOM      7  C   UNL     1      32.548 -13.543 -21.932  0.00  0.00    -0.027 C 
ATOM      8  C   UNL     1      34.838 -10.955 -24.925  0.00  0.00    -0.006 C 
ATOM      9  C   UNL     1      34.626 -14.695 -22.392  0.00  0.00    -0.006 C 
ATOM     10  C   UNL     1      33.320  -9.298 -23.327  0.00  0.00    -0.005 C 
ATOM     11  C   UNL     1      32.456 -14.242 -20.718  0.00  0.00    -0.005 C 
ATOM     12  C   UNL     1      35.032  -9.576 -24.986  0.00  0.00    -0.000 C 
ATOM     13  C   UNL     1      34.525 -15.383 -21.184  0.00  0.00    -0.000 C 
ATOM     14  C   UNL     1      34.271  -8.744 -24.181  0.00  0.00    -0.000 C 
ATOM     15  C   UNL     1      33.438 -15.158 -20.347  0.00  0.00    -0.000 C 
ENDROOT
BRANCH   1  16
ATOM     16  N   UNL     1      32.743 -13.488 -25.077  0.00  0.00    +0.390 N 
ATOM     17  H   UNL     1      32.285 -12.663 -25.464  0.00  0.00    -0.083 HD
ATOM     18  H   UNL     1      32.063 -14.070 -24.588  0.00  0.00    -0.083 HD
BRANCH  16  19
ATOM     19  C   UNL     1      33.332 -14.259 -26.158  0.00  0.00    -0.081 C 
BRANCH  19  20
ATOM     20  C   UNL     1      33.178 -15.755 -25.887  0.00  0.00    -0.023 C 
BRANCH  20  21
ATOM     21  C   UNL     1      34.512 -16.378 -25.464  0.00  0.00    -0.002 C 
BRANCH  21  22
ATOM     22  C   UNL     1      34.367 -17.780 -24.864  0.00  0.00    +0.000 C 
BRANCH  22  23
ATOM     23  C   UNL     1      35.294 -18.099 -23.688  0.00  0.00    +0.012 C 
BRANCH  23  24
ATOM     24  C   UNL     1      34.843 -19.309 -22.870  0.00  0.00    +0.109 C 
BRANCH  24  26
ATOM     25  O   UNL     1      35.748 -18.897 -20.647  0.00  0.00    -0.250 OA
ATOM     26  C   UNL     1      34.783 -18.999 -21.392  0.00  0.00    +0.314 C 
BRANCH  26  27
ATOM     27  O   UNL     1      33.502 -18.834 -20.970  0.00  0.00    -0.480 OA
ATOM     28  H   UNL     1      32.992 -18.115 -21.290  0.00  0.00    +0.295 HD
ENDBRANCH  26  27
ENDBRANCH  24  26
ENDBRANCH  23  24
ENDBRANCH  22  23
ENDBRANCH  21  22
ENDBRANCH  20  21
ENDBRANCH  19  20
ENDBRANCH  16  19
ENDBRANCH   1  16
TORSDOF 9
ENDMDL
MODEL 3
REMARK VINA RESULT:      -9.2      7.311     10.287
REMARK  Name = 34870
REMARK  9 active torsions:
REMARK  status: ('A' for Active; 'I' for Inactive)
REMARK    1  A    between atoms: C_1  and  N_16
REMARK    2  A    between atoms: N_16  and  C_19
REMARK    3  A    between atoms: C_19  and  C_20
REMARK    4  A    between atoms: C_20  and  C_21
REMARK    5  A    between atoms: C_21  and  C_22
REMARK    6  A    between atoms: C_22  and  C_23
REMARK    7  A    between atoms: C_23  and  C_24
REMARK    8  A    between atoms: C_24  and  C_26
REMARK    9  A    between atoms: C_26  and  O_27
REMARK                            x       y       z     vdW  Elec       q    Type
REMARK                         _______ _______ _______ _____ _____    ______ ____
ROOT
ATOM      1  C   UNL     1      35.191 -18.747 -21.839  0.00  0.00    -0.016 C 
ATOM      2  C   UNL     1      34.396 -17.497 -21.479  0.00  0.00    -0.042 C 
ATOM      3  C   UNL     1      35.183 -19.849 -20.794  0.00  0.00    -0.042 C 
ATOM      4  C   UNL     1      32.287 -18.670 -20.466  0.00  0.00    +0.031 C 
ATOM      5  C   UNL     1      32.670 -20.060 -20.958  0.00  0.00    +0.031 C 
ATOM      6  C   UNL     1      33.108 -17.473 -20.904  0.00  0.00    -0.027 C 
ATOM      7  C   UNL     1      33.997 -20.494 -20.400  0.00  0.00    -0.027 C 
ATOM      8  C   UNL     1      35.008 -16.262 -21.803  0.00  0.00    -0.006 C 
ATOM      9  C   UNL     1      36.400 -20.263 -20.223  0.00  0.00    -0.006 C 
ATOM     10  C   UNL     1      32.505 -16.219 -20.647  0.00  0.00    -0.005 C 
ATOM     11  C   UNL     1      34.049 -21.528 -19.452  0.00  0.00    -0.005 C 
ATOM     12  C   UNL     1      34.390 -15.039 -21.550  0.00  0.00    -0.000 C 
ATOM     13  C   UNL     1      36.439 -21.291 -19.281  0.00  0.00    -0.000 C 
ATOM     14  C   UNL     1      33.134 -15.017 -20.966  0.00  0.00    -0.000 C 
ATOM     15  C   UNL     1      35.264 -21.924 -18.896  0.00  0.00    -0.000 C 
ENDROOT
BRANCH   1  16
ATOM     16  N   UNL     1      34.827 -19.248 -23.174  0.00  0.00    +0.390 N 
ATOM     17  H   UNL     1      33.812 -19.306 -23.245  0.00  0.00    -0.083 HD
ATOM     18  H   UNL     1      35.242 -20.172 -23.304  0.00  0.00    -0.083 HD
BRANCH  16  19
ATOM     19  C   UNL     1      35.330 -18.358 -24.205  0.00  0.00    -0.081 C 
BRANCH  19  20
ATOM     20  C   UNL     1      34.185 -17.879 -25.097  0.00  0.00    -0.023 C 
BRANCH  20  21
ATOM     21  C   UNL     1      34.225 -16.359 -25.274  0.00  0.00    -0.002 C 
BRANCH  21  22
ATOM     22  C   UNL     1      33.086 -15.816 -26.143  0.00  0.00    +0.000 C 
BRANCH  22  23
ATOM     23  C   UNL     1      32.859 -14.303 -26.074  0.00  0.00    +0.012 C 
BRANCH  23  24
ATOM     24  C   UNL     1      33.268 -13.688 -24.736  0.00  0.00    +0.109 C 
BRANCH  24  26
ATOM     25  O   UNL     1      33.911 -11.685 -25.964  0.00  0.00    -0.250 OA
ATOM     26  C   UNL     1      33.823 -12.292 -24.905  0.00  0.00    +0.314 C 
BRANCH  26  27
ATOM     27  O   UNL     1      34.218 -11.768 -23.716  0.00  0.00    -0.480 OA
ATOM     28  H   UNL     1      34.035 -10.871 -23.515  0.00  0.00    +0.295 HD
ENDBRANCH  26  27
ENDBRANCH  24  26
ENDBRANCH  23  24
ENDBRANCH  22  23
ENDBRANCH  21  22
ENDBRANCH  20  21
ENDBRANCH  19  20
ENDBRANCH  16  19
ENDBRANCH   1  16
TORSDOF 9
ENDMDL
MODEL 4
REMARK VINA RESULT:      -9.1      1.406      1.592
REMARK  Name = 34870
REMARK  9 active torsions:
REMARK  status: ('A' for Active; 'I' for Inactive)
REMARK    1  A    between atoms: C_1  and  N_16
REMARK    2  A    between atoms: N_16  and  C_19
REMARK    3  A    between atoms: C_19  and  C_20
REMARK    4  A    between atoms: C_20  and  C_21
REMARK    5  A    between atoms: C_21  and  C_22
REMARK    6  A    between atoms: C_22  and  C_23
REMARK    7  A    between atoms: C_23  and  C_24
REMARK    8  A    between atoms: C_24  and  C_26
REMARK    9  A    between atoms: C_26  and  O_27
REMARK                            x       y       z     vdW  Elec       q    Type
REMARK                         _______ _______ _______ _____ _____    ______ ____
ROOT
ATOM      1  C   UNL     1      34.848 -23.832 -15.604  0.00  0.00    -0.016 C 
ATOM      2  C   UNL     1      34.875 -23.056 -16.916  0.00  0.00    -0.042 C 
ATOM      3  C   UNL     1      36.114 -24.605 -15.277  0.00  0.00    -0.042 C 
ATOM      4  C   UNL     1      37.293 -22.076 -16.725  0.00  0.00    +0.031 C 
ATOM      5  C   UNL     1      37.475 -22.475 -15.265  0.00  0.00    +0.031 C 
ATOM      6  C   UNL     1      35.942 -22.262 -17.386  0.00  0.00    -0.027 C 
ATOM      7  C   UNL     1      37.350 -23.963 -15.085  0.00  0.00    -0.027 C 
ATOM      8  C   UNL     1      33.692 -23.116 -17.692  0.00  0.00    -0.006 C 
ATOM      9  C   UNL     1      36.048 -26.002 -15.130  0.00  0.00    -0.006 C 
ATOM     10  C   UNL     1      35.794 -21.593 -18.624  0.00  0.00    -0.005 C 
ATOM     11  C   UNL     1      38.485 -24.721 -14.754  0.00  0.00    -0.005 C 
ATOM     12  C   UNL     1      33.566 -22.440 -18.904  0.00  0.00    -0.000 C 
ATOM     13  C   UNL     1      37.182 -26.746 -14.803  0.00  0.00    -0.000 C 
ATOM     14  C   UNL     1      34.623 -21.678 -19.374  0.00  0.00    -0.000 C 
ATOM     15  C   UNL     1      38.400 -26.104 -14.613  0.00  0.00    -0.000 C 
ENDROOT
BRANCH   1  16
ATOM     16  N   UNL     1      34.416 -22.980 -14.485  0.00  0.00    +0.390 N 
ATOM     17  H   UNL     1      33.686 -22.347 -14.808  0.00  0.00    -0.083 HD
ATOM     18  H   UNL     1      35.218 -22.447 -14.147  0.00  0.00    -0.083 HD
BRANCH  16  19
ATOM     19  C   UNL     1      33.899 -23.792 -13.398  0.00  0.00    -0.081 C 
BRANCH  19  20
ATOM     20  C   UNL     1      32.438 -24.158 -13.656  0.00  0.00    -0.023 C 
BRANCH  20  21
ATOM     21  C   UNL     1      31.585 -22.903 -13.862  0.00  0.00    -0.002 C 
BRANCH  21  22
ATOM     22  C   UNL     1      30.972 -22.806 -15.262  0.00  0.00    +0.000 C 
BRANCH  22  23
ATOM     23  C   UNL     1      29.441 -22.829 -15.321  0.00  0.00    +0.012 C 
BRANCH  23  24
ATOM     24  C   UNL     1      28.876 -24.112 -15.930  0.00  0.00    +0.109 C 
BRANCH  24  26
ATOM     25  O   UNL     1      30.164 -26.069 -15.265  0.00  0.00    -0.250 OA
ATOM     26  C   UNL     1      29.207 -25.327 -15.093  0.00  0.00    +0.314 C 
BRANCH  26  27
ATOM     27  O   UNL     1      28.302 -25.504 -14.096  0.00  0.00    -0.480 OA
ATOM     28  H   UNL     1      27.490 -25.035 -14.110  0.00  0.00    +0.295 HD
ENDBRANCH  26  27
ENDBRANCH  24  26
ENDBRANCH  23  24
ENDBRANCH  22  23
ENDBRANCH  21  22
ENDBRANCH  20  21
ENDBRANCH  19  20
ENDBRANCH  16  19
ENDBRANCH   1  16
TORSDOF 9
ENDMDL
MODEL 5
REMARK VINA RESULT:      -9.0     13.389     16.668
REMARK  Name = 34870
REMARK  9 active torsions:
REMARK  status: ('A' for Active; 'I' for Inactive)
REMARK    1  A    between atoms: C_1  and  N_16
REMARK    2  A    between atoms: N_16  and  C_19
REMARK    3  A    between atoms: C_19  and  C_20
REMARK    4  A    between atoms: C_20  and  C_21
REMARK    5  A    between atoms: C_21  and  C_22
REMARK    6  A    between atoms: C_22  and  C_23
REMARK    7  A    between atoms: C_23  and  C_24
REMARK    8  A    between atoms: C_24  and  C_26
REMARK    9  A    between atoms: C_26  and  O_27
REMARK                            x       y       z     vdW  Elec       q    Type
REMARK                         _______ _______ _______ _____ _____    ______ ____
ROOT
ATOM      1  C   UNL     1      32.577  -8.839 -23.082  0.00  0.00    -0.016 C 
ATOM      2  C   UNL     1      32.102  -9.647 -21.879  0.00  0.00    -0.042 C 
ATOM      3  C   UNL     1      32.015  -7.432 -23.187  0.00  0.00    -0.042 C 
ATOM      4  C   UNL     1      32.267  -7.763 -20.071  0.00  0.00    +0.031 C 
ATOM      5  C   UNL     1      33.038  -6.799 -20.965  0.00  0.00    +0.031 C 
ATOM      6  C   UNL     1      31.998  -9.174 -20.554  0.00  0.00    -0.027 C 
ATOM      7  C   UNL     1      32.258  -6.457 -22.204  0.00  0.00    -0.027 C 
ATOM      8  C   UNL     1      31.787 -11.004 -22.133  0.00  0.00    -0.006 C 
ATOM      9  C   UNL     1      31.251  -7.080 -24.315  0.00  0.00    -0.006 C 
ATOM     10  C   UNL     1      31.552 -10.066 -19.550  0.00  0.00    -0.005 C 
ATOM     11  C   UNL     1      31.739  -5.162 -22.365  0.00  0.00    -0.005 C 
ATOM     12  C   UNL     1      31.359 -11.866 -21.125  0.00  0.00    -0.000 C 
ATOM     13  C   UNL     1      30.740  -5.791 -24.464  0.00  0.00    -0.000 C 
ATOM     14  C   UNL     1      31.238 -11.394 -19.829  0.00  0.00    -0.000 C 
ATOM     15  C   UNL     1      30.986  -4.832 -23.489  0.00  0.00    -0.000 C 
ENDROOT
BRANCH   1  16
ATOM     16  N   UNL     1      34.044  -8.858 -23.195  0.00  0.00    +0.390 N 
ATOM     17  H   UNL     1      34.414  -9.621 -22.630  0.00  0.00    -0.083 HD
ATOM     18  H   UNL     1      34.412  -7.965 -22.863  0.00  0.00    -0.083 HD
BRANCH  16  19
ATOM     19  C   UNL     1      34.445  -9.046 -24.578  0.00  0.00    -0.081 C 
BRANCH  19  20
ATOM     20  C   UNL     1      35.045 -10.438 -24.772  0.00  0.00    -0.023 C 
BRANCH  20  21
ATOM     21  C   UNL     1      33.991 -11.425 -25.278  0.00  0.00    -0.002 C 
BRANCH  21  22
ATOM     22  C   UNL     1      33.816 -12.649 -24.373  0.00  0.00    +0.000 C 
BRANCH  22  23
ATOM     23  C   UNL     1      33.348 -13.930 -25.068  0.00  0.00    +0.012 C 
BRANCH  23  24
ATOM     24  C   UNL     1      33.503 -15.182 -24.204  0.00  0.00    +0.109 C 
BRANCH  24  26
ATOM     25  O   UNL     1      34.588 -16.694 -25.775  0.00  0.00    -0.250 OA
ATOM     26  C   UNL     1      34.603 -16.085 -24.713  0.00  0.00    +0.314 C 
BRANCH  26  27
ATOM     27  O   UNL     1      35.642 -16.143 -23.841  0.00  0.00    -0.480 OA
ATOM     28  H   UNL     1      36.483 -15.810 -24.090  0.00  0.00    +0.295 HD
ENDBRANCH  26  27
ENDBRANCH  24  26
ENDBRANCH  23  24
ENDBRANCH  22  23
ENDBRANCH  21  22
ENDBRANCH  20  21
ENDBRANCH  19  20
ENDBRANCH  16  19
ENDBRANCH   1  16
TORSDOF 9
ENDMDL
MODEL 6
REMARK VINA RESULT:      -9.0     13.246     16.528
REMARK  Name = 34870
REMARK  9 active torsions:
REMARK  status: ('A' for Active; 'I' for Inactive)
REMARK    1  A    between atoms: C_1  and  N_16
REMARK    2  A    between atoms: N_16  and  C_19
REMARK    3  A    between atoms: C_19  and  C_20
REMARK    4  A    between atoms: C_20  and  C_21
REMARK    5  A    between atoms: C_21  and  C_22
REMARK    6  A    between atoms: C_22  and  C_23
REMARK    7  A    between atoms: C_23  and  C_24
REMARK    8  A    between atoms: C_24  and  C_26
REMARK    9  A    between atoms: C_26  and  O_27
REMARK                            x       y       z     vdW  Elec       q    Type
REMARK                         _______ _______ _______ _____ _____    ______ ____
ROOT
ATOM      1  C   UNL     1      32.601  -8.824 -23.080  0.00  0.00    -0.016 C 
ATOM      2  C   UNL     1      32.115  -9.648 -21.893  0.00  0.00    -0.042 C 
ATOM      3  C   UNL     1      32.021  -7.424 -23.185  0.00  0.00    -0.042 C 
ATOM      4  C   UNL     1      32.219  -7.777 -20.067  0.00  0.00    +0.031 C 
ATOM      5  C   UNL     1      32.994  -6.796 -20.938  0.00  0.00    +0.031 C 
ATOM      6  C   UNL     1      31.979  -9.188 -20.567  0.00  0.00    -0.027 C 
ATOM      7  C   UNL     1      32.232  -6.454 -22.190  0.00  0.00    -0.027 C 
ATOM      8  C   UNL     1      31.823 -11.007 -22.165  0.00  0.00    -0.006 C 
ATOM      9  C   UNL     1      31.275  -7.072 -24.324  0.00  0.00    -0.006 C 
ATOM     10  C   UNL     1      31.526 -10.094 -19.579  0.00  0.00    -0.005 C 
ATOM     11  C   UNL     1      31.699  -5.165 -22.349  0.00  0.00    -0.005 C 
ATOM     12  C   UNL     1      31.388 -11.884 -21.172  0.00  0.00    -0.000 C 
ATOM     13  C   UNL     1      30.749  -5.790 -24.472  0.00  0.00    -0.000 C 
ATOM     14  C   UNL     1      31.235 -11.424 -19.875  0.00  0.00    -0.000 C 
ATOM     15  C   UNL     1      30.963  -4.835 -23.485  0.00  0.00    -0.000 C 
ENDROOT
BRANCH   1  16
ATOM     16  N   UNL     1      34.070  -8.822 -23.165  0.00  0.00    +0.390 N 
ATOM     17  H   UNL     1      34.449  -9.420 -22.433  0.00  0.00    -0.083 HD
ATOM     18  H   UNL     1      34.406  -7.865 -23.046  0.00  0.00    -0.083 HD
BRANCH  16  19
ATOM     19  C   UNL     1      34.505  -9.314 -24.460  0.00  0.00    -0.081 C 
BRANCH  19  20
ATOM     20  C   UNL     1      34.743 -10.823 -24.402  0.00  0.00    -0.023 C 
BRANCH  20  21
ATOM     21  C   UNL     1      33.861 -11.558 -25.414  0.00  0.00    -0.002 C 
BRANCH  21  22
ATOM     22  C   UNL     1      33.383 -12.928 -24.924  0.00  0.00    +0.000 C 
BRANCH  22  23
ATOM     23  C   UNL     1      34.061 -13.456 -23.656  0.00  0.00    +0.012 C 
BRANCH  23  24
ATOM     24  C   UNL     1      33.578 -14.846 -23.241  0.00  0.00    +0.109 C 
BRANCH  24  26
ATOM     25  O   UNL     1      34.773 -15.992 -21.456  0.00  0.00    -0.250 OA
ATOM     26  C   UNL     1      34.689 -15.670 -22.633  0.00  0.00    +0.314 C 
BRANCH  26  27
ATOM     27  O   UNL     1      35.608 -16.031 -23.567  0.00  0.00    -0.480 OA
ATOM     28  H   UNL     1      35.765 -15.478 -24.308  0.00  0.00    +0.295 HD
ENDBRANCH  26  27
ENDBRANCH  24  26
ENDBRANCH  23  24
ENDBRANCH  22  23
ENDBRANCH  21  22
ENDBRANCH  20  21
ENDBRANCH  19  20
ENDBRANCH  16  19
ENDBRANCH   1  16
TORSDOF 9
ENDMDL
MODEL 7
REMARK VINA RESULT:      -9.0     11.175     14.226
REMARK  Name = 34870
REMARK  9 active torsions:
REMARK  status: ('A' for Active; 'I' for Inactive)
REMARK    1  A    between atoms: C_1  and  N_16
REMARK    2  A    between atoms: N_16  and  C_19
REMARK    3  A    between atoms: C_19  and  C_20
REMARK    4  A    between atoms: C_20  and  C_21
REMARK    5  A    between atoms: C_21  and  C_22
REMARK    6  A    between atoms: C_22  and  C_23
REMARK    7  A    between atoms: C_23  and  C_24
REMARK    8  A    between atoms: C_24  and  C_26
REMARK    9  A    between atoms: C_26  and  O_27
REMARK                            x       y       z     vdW  Elec       q    Type
REMARK                         _______ _______ _______ _____ _____    ______ ____
ROOT
ATOM      1  C   UNL     1      33.199 -12.966 -22.597  0.00  0.00    -0.016 C 
ATOM      2  C   UNL     1      33.795 -14.337 -22.297  0.00  0.00    -0.042 C 
ATOM      3  C   UNL     1      33.708 -12.294 -23.861  0.00  0.00    -0.042 C 
ATOM      4  C   UNL     1      33.720 -15.318 -24.722  0.00  0.00    +0.031 C 
ATOM      5  C   UNL     1      32.850 -14.200 -25.282  0.00  0.00    +0.031 C 
ATOM      6  C   UNL     1      33.992 -15.375 -23.232  0.00  0.00    -0.027 C 
ATOM      7  C   UNL     1      33.516 -12.859 -25.133  0.00  0.00    -0.027 C 
ATOM      8  C   UNL     1      34.129 -14.581 -20.943  0.00  0.00    -0.006 C 
ATOM      9  C   UNL     1      34.366 -11.055 -23.763  0.00  0.00    -0.006 C 
ATOM     10  C   UNL     1      34.545 -16.596 -22.780  0.00  0.00    -0.005 C 
ATOM     11  C   UNL     1      33.980 -12.183 -26.273  0.00  0.00    -0.005 C 
ATOM     12  C   UNL     1      34.665 -15.797 -20.520  0.00  0.00    -0.000 C 
ATOM     13  C   UNL     1      34.823 -10.392 -24.901  0.00  0.00    -0.000 C 
ATOM     14  C   UNL     1      34.876 -16.807 -21.443  0.00  0.00    -0.000 C 
ATOM     15  C   UNL     1      34.629 -10.955 -26.157  0.00  0.00    -0.000 C 
ENDROOT
BRANCH   1  16
ATOM     16  N   UNL     1      31.729 -12.996 -22.540  0.00  0.00    +0.390 N 
ATOM     17  H   UNL     1      31.429 -13.842 -22.059  0.00  0.00    -0.083 HD
ATOM     18  H   UNL     1      31.362 -12.985 -23.493  0.00  0.00    -0.083 HD
BRANCH  16  19
ATOM     19  C   UNL     1      31.224 -11.835 -21.829  0.00  0.00    -0.081 C 
BRANCH  19  20
ATOM     20  C   UNL     1      31.601 -11.913 -20.350  0.00  0.00    -0.023 C 
BRANCH  20  21
ATOM     21  C   UNL     1      31.157 -10.654 -19.602  0.00  0.00    -0.002 C 
BRANCH  21  22
ATOM     22  C   UNL     1      32.270  -9.612 -19.446  0.00  0.00    +0.000 C 
BRANCH  22  23
ATOM     23  C   UNL     1      32.065  -8.300 -20.210  0.00  0.00    +0.012 C 
BRANCH  23  24
ATOM     24  C   UNL     1      32.682  -8.308 -21.609  0.00  0.00    +0.109 C 
BRANCH  24  26
ATOM     25  O   UNL     1      30.971  -6.937 -22.669  0.00  0.00    -0.250 OA
ATOM     26  C   UNL     1      31.672  -7.940 -22.671  0.00  0.00    +0.314 C 
BRANCH  26  27
ATOM     27  O   UNL     1      31.632  -8.869 -23.662  0.00  0.00    -0.480 OA
ATOM     28  H   UNL     1      31.237  -8.659 -24.485  0.00  0.00    +0.295 HD
ENDBRANCH  26  27
ENDBRANCH  24  26
ENDBRANCH  23  24
ENDBRANCH  22  23
ENDBRANCH  21  22
ENDBRANCH  20  21
ENDBRANCH  19  20
ENDBRANCH  16  19
ENDBRANCH   1  16
TORSDOF 9
ENDMDL
MODEL 8
REMARK VINA RESULT:      -8.8     10.070     13.441
REMARK  Name = 34870
REMARK  9 active torsions:
REMARK  status: ('A' for Active; 'I' for Inactive)
REMARK    1  A    between atoms: C_1  and  N_16
REMARK    2  A    between atoms: N_16  and  C_19
REMARK    3  A    between atoms: C_19  and  C_20
REMARK    4  A    between atoms: C_20  and  C_21
REMARK    5  A    between atoms: C_21  and  C_22
REMARK    6  A    between atoms: C_22  and  C_23
REMARK    7  A    between atoms: C_23  and  C_24
REMARK    8  A    between atoms: C_24  and  C_26
REMARK    9  A    between atoms: C_26  and  O_27
REMARK                            x       y       z     vdW  Elec       q    Type
REMARK                         _______ _______ _______ _____ _____    ______ ____
ROOT
ATOM      1  C   UNL     1      33.218 -13.366 -23.060  0.00  0.00    -0.016 C 
ATOM      2  C   UNL     1      32.490 -12.196 -22.408  0.00  0.00    -0.042 C 
ATOM      3  C   UNL     1      33.244 -13.355 -24.579  0.00  0.00    -0.042 C 
ATOM      4  C   UNL     1      33.409 -10.281 -23.937  0.00  0.00    +0.031 C 
ATOM      5  C   UNL     1      34.476 -11.148 -24.595  0.00  0.00    +0.031 C 
ATOM      6  C   UNL     1      32.604 -10.840 -22.781  0.00  0.00    -0.027 C 
ATOM      7  C   UNL     1      33.866 -12.325 -25.306  0.00  0.00    -0.027 C 
ATOM      8  C   UNL     1      31.668 -12.520 -21.302  0.00  0.00    -0.006 C 
ATOM      9  C   UNL     1      32.656 -14.420 -25.285  0.00  0.00    -0.006 C 
ATOM     10  C   UNL     1      31.865  -9.875 -22.056  0.00  0.00    -0.005 C 
ATOM     11  C   UNL     1      33.888 -12.378 -26.709  0.00  0.00    -0.005 C 
ATOM     12  C   UNL     1      30.957 -11.550 -20.597  0.00  0.00    -0.000 C 
ATOM     13  C   UNL     1      32.683 -14.462 -26.678  0.00  0.00    -0.000 C 
ATOM     14  C   UNL     1      31.054 -10.222 -20.978  0.00  0.00    -0.000 C 
ATOM     15  C   UNL     1      33.301 -13.441 -27.390  0.00  0.00    -0.000 C 
ENDROOT
BRANCH   1  16
ATOM     16  N   UNL     1      34.560 -13.550 -22.486  0.00  0.00    +0.390 N 
ATOM     17  H   UNL     1      34.914 -12.650 -22.165  0.00  0.00    -0.083 HD
ATOM     18  H   UNL     1      35.176 -13.934 -23.204  0.00  0.00    -0.083 HD
BRANCH  16  19
ATOM     19  C   UNL     1      34.511 -14.473 -21.366  0.00  0.00    -0.081 C 
BRANCH  19  20
ATOM     20  C   UNL     1      34.242 -15.894 -21.860  0.00  0.00    -0.023 C 
BRANCH  20  21
ATOM     21  C   UNL     1      34.914 -16.928 -20.953  0.00  0.00    -0.002 C 
BRANCH  21  22
ATOM     22  C   UNL     1      35.496 -18.121 -21.717  0.00  0.00    +0.000 C 
BRANCH  22  23
ATOM     23  C   UNL     1      34.549 -18.806 -22.706  0.00  0.00    +0.012 C 
BRANCH  23  24
ATOM     24  C   UNL     1      35.109 -18.890 -24.126  0.00  0.00    +0.109 C 
BRANCH  24  26
ATOM     25  O   UNL     1      33.586 -17.817 -25.693  0.00  0.00    -0.250 OA
ATOM     26  C   UNL     1      34.595 -17.771 -25.002  0.00  0.00    +0.314 C 
BRANCH  26  27
ATOM     27  O   UNL     1      35.395 -16.676 -24.930  0.00  0.00    -0.480 OA
ATOM     28  H   UNL     1      35.150 -15.952 -24.388  0.00  0.00    +0.295 HD
ENDBRANCH  26  27
ENDBRANCH  24  26
ENDBRANCH  23  24
ENDBRANCH  22  23
ENDBRANCH  21  22
ENDBRANCH  20  21
ENDBRANCH  19  20
ENDBRANCH  16  19
ENDBRANCH   1  16
TORSDOF 9
ENDMDL
MODEL 9
REMARK VINA RESULT:      -8.8      9.512     12.893
REMARK  Name = 34870
REMARK  9 active torsions:
REMARK  status: ('A' for Active; 'I' for Inactive)
REMARK    1  A    between atoms: C_1  and  N_16
REMARK    2  A    between atoms: N_16  and  C_19
REMARK    3  A    between atoms: C_19  and  C_20
REMARK    4  A    between atoms: C_20  and  C_21
REMARK    5  A    between atoms: C_21  and  C_22
REMARK    6  A    between atoms: C_22  and  C_23
REMARK    7  A    between atoms: C_23  and  C_24
REMARK    8  A    between atoms: C_24  and  C_26
REMARK    9  A    between atoms: C_26  and  O_27
REMARK                            x       y       z     vdW  Elec       q    Type
REMARK                         _______ _______ _______ _____ _____    ______ ____
ROOT
ATOM      1  C   UNL     1      33.218 -13.329 -23.080  0.00  0.00    -0.016 C 
ATOM      2  C   UNL     1      32.493 -12.161 -22.420  0.00  0.00    -0.042 C 
ATOM      3  C   UNL     1      33.235 -13.313 -24.599  0.00  0.00    -0.042 C 
ATOM      4  C   UNL     1      33.399 -10.241 -23.949  0.00  0.00    +0.031 C 
ATOM      5  C   UNL     1      34.464 -11.105 -24.616  0.00  0.00    +0.031 C 
ATOM      6  C   UNL     1      32.602 -10.804 -22.789  0.00  0.00    -0.027 C 
ATOM      7  C   UNL     1      33.850 -12.280 -25.326  0.00  0.00    -0.027 C 
ATOM      8  C   UNL     1      31.678 -12.491 -21.310  0.00  0.00    -0.006 C 
ATOM      9  C   UNL     1      32.644 -14.377 -25.304  0.00  0.00    -0.006 C 
ATOM     10  C   UNL     1      31.867  -9.842 -22.057  0.00  0.00    -0.005 C 
ATOM     11  C   UNL     1      33.864 -12.328 -26.729  0.00  0.00    -0.005 C 
ATOM     12  C   UNL     1      30.971 -11.523 -20.597  0.00  0.00    -0.000 C 
ATOM     13  C   UNL     1      32.662 -14.415 -26.698  0.00  0.00    -0.000 C 
ATOM     14  C   UNL     1      31.064 -10.194 -20.974  0.00  0.00    -0.000 C 
ATOM     15  C   UNL     1      33.273 -13.391 -27.410  0.00  0.00    -0.000 C 
ENDROOT
BRANCH   1  16
ATOM     16  N   UNL     1      34.564 -13.513 -22.515  0.00  0.00    +0.390 N 
ATOM     17  H   UNL     1      34.849 -12.656 -22.042  0.00  0.00    -0.083 HD
ATOM     18  H   UNL     1      35.213 -13.728 -23.272  0.00  0.00    -0.083 HD
BRANCH  16  19
ATOM     19  C   UNL     1      34.571 -14.610 -21.564  0.00  0.00    -0.081 C 
BRANCH  19  20
ATOM     20  C   UNL     1      34.649 -15.948 -22.298  0.00  0.00    -0.023 C 
BRANCH  20  21
ATOM     21  C   UNL     1      34.513 -17.120 -21.322  0.00  0.00    -0.002 C 
BRANCH  21  22
ATOM     22  C   UNL     1      35.523 -18.244 -21.574  0.00  0.00    +0.000 C 
BRANCH  22  23
ATOM     23  C   UNL     1      34.931 -19.648 -21.727  0.00  0.00    +0.012 C 
BRANCH  23  24
ATOM     24  C   UNL     1      34.688 -20.354 -20.393  0.00  0.00    +0.109 C 
BRANCH  24  26
ATOM     25  O   UNL     1      32.302 -19.871 -20.326  0.00  0.00    -0.250 OA
ATOM     26  C   UNL     1      33.225 -20.662 -20.177  0.00  0.00    +0.314 C 
BRANCH  26  27
ATOM     27  O   UNL     1      33.039 -21.952 -19.795  0.00  0.00    -0.480 OA
ATOM     28  H   UNL     1      32.870 -22.612 -20.439  0.00  0.00    +0.295 HD
ENDBRANCH  26  27
ENDBRANCH  24  26
ENDBRANCH  23  24
ENDBRANCH  22  23
ENDBRANCH  21  22
ENDBRANCH  20  21
ENDBRANCH  19  20
ENDBRANCH  16  19
ENDBRANCH   1  16
TORSDOF 9
ENDMDL
