MODEL 1
REMARK VINA RESULT:      -7.9      0.000      0.000
REMARK  Name = 1355
REMARK  1 active torsions:
REMARK  status: ('A' for Active; 'I' for Inactive)
REMARK    1  A    between atoms: N_1  and  C_10
REMARK                            x       y       z     vdW  Elec       q    Type
REMARK                         _______ _______ _______ _____ _____    ______ ____
ROOT
ATOM      1  N   UNL     1      34.639 -18.455 -22.463  0.00  0.00    -0.312 N 
ATOM      2  N   UNL     1      35.307 -16.532 -24.465  0.00  0.00    +0.386 N 
ATOM      3  C   UNL     1      35.237 -17.169 -22.078  0.00  0.00    +0.067 C 
ATOM      4  C   UNL     1      34.893 -18.888 -23.842  0.00  0.00    +0.067 C 
ATOM      5  C   UNL     1      34.920 -16.099 -23.122  0.00  0.00    -0.060 C 
ATOM      6  C   UNL     1      34.591 -17.755 -24.823  0.00  0.00    -0.060 C 
ATOM      7  H   UNL     1      36.311 -16.710 -24.486  0.00  0.00    -0.084 HD
ATOM      8  H   UNL     1      35.070 -15.799 -25.133  0.00  0.00    -0.084 HD
ENDROOT
BRANCH   1  10
ATOM      9 CL   UNL     1      36.669 -21.670 -18.996  0.00  0.00    -0.082 Cl
ATOM     10  C   UNL     1      34.435 -19.411 -21.462  0.00  0.00    +0.049 C 
ATOM     11  C   UNL     1      35.524 -20.007 -20.794  0.00  0.00    +0.026 C 
ATOM     12  C   UNL     1      33.135 -19.809 -21.092  0.00  0.00    +0.015 C 
ATOM     13  C   UNL     1      35.320 -20.960 -19.797  0.00  0.00    +0.059 C 
ATOM     14  C   UNL     1      32.931 -20.763 -20.095  0.00  0.00    +0.002 C 
ATOM     15  C   UNL     1      34.025 -21.339 -19.447  0.00  0.00    +0.011 C 
ENDBRANCH   1  10
TORSDOF 1
ENDMDL
MODEL 2
REMARK VINA RESULT:      -7.2      1.422      2.442
REMARK  Name = 1355
REMARK  1 active torsions:
REMARK  status: ('A' for Active; 'I' for Inactive)
REMARK    1  A    between atoms: N_1  and  C_10
REMARK                            x       y       z     vdW  Elec       q    Type
REMARK                         _______ _______ _______ _____ _____    ______ ____
ROOT
ATOM      1  N   UNL     1      34.954 -17.707 -22.377  0.00  0.00    -0.312 N 
ATOM      2  N   UNL     1      34.122 -15.654 -24.178  0.00  0.00    +0.386 N 
ATOM      3  C   UNL     1      34.660 -18.033 -23.779  0.00  0.00    +0.067 C 
ATOM      4  C   UNL     1      34.319 -16.489 -21.860  0.00  0.00    +0.067 C 
ATOM      5  C   UNL     1      34.875 -16.808 -24.668  0.00  0.00    -0.060 C 
ATOM      6  C   UNL     1      34.544 -15.320 -22.819  0.00  0.00    -0.060 C 
ATOM      7  H   UNL     1      33.126 -15.876 -24.177  0.00  0.00    -0.084 HD
ATOM      8  H   UNL     1      34.299 -14.857 -24.788  0.00  0.00    -0.084 HD
ENDROOT
BRANCH   1  10
ATOM      9 CL   UNL     1      33.244 -21.621 -19.507  0.00  0.00    -0.082 Cl
ATOM     10  C   UNL     1      35.246 -18.761 -21.504  0.00  0.00    +0.049 C 
ATOM     11  C   UNL     1      34.222 -19.583 -20.989  0.00  0.00    +0.026 C 
ATOM     12  C   UNL     1      36.572 -19.033 -21.112  0.00  0.00    +0.015 C 
ATOM     13  C   UNL     1      34.514 -20.632 -20.119  0.00  0.00    +0.059 C 
ATOM     14  C   UNL     1      36.863 -20.083 -20.241  0.00  0.00    +0.002 C 
ATOM     15  C   UNL     1      35.833 -20.883 -19.744  0.00  0.00    +0.011 C 
ENDBRANCH   1  10
TORSDOF 1
ENDMDL
MODEL 3
REMARK VINA RESULT:      -7.1      2.686      5.208
REMARK  Name = 1355
REMARK  1 active torsions:
REMARK  status: ('A' for Active; 'I' for Inactive)
REMARK    1  A    between atoms: N_1  and  C_10
REMARK                            x       y       z     vdW  Elec       q    Type
REMARK                         _______ _______ _______ _____ _____    ______ ____
ROOT
ATOM      1  N   UNL     1      34.655 -19.737 -21.360  0.00  0.00    -0.312 N 
ATOM      2  N   UNL     1      34.678 -21.526 -19.134  0.00  0.00    +0.386 N 
ATOM      3  C   UNL     1      35.910 -20.009 -20.647  0.00  0.00    +0.067 C 
ATOM      4  C   UNL     1      33.425 -19.974 -20.595  0.00  0.00    +0.067 C 
ATOM      5  C   UNL     1      35.861 -21.385 -19.983  0.00  0.00    -0.060 C 
ATOM      6  C   UNL     1      33.465 -21.351 -19.931  0.00  0.00    -0.060 C 
ATOM      7  H   UNL     1      34.703 -20.818 -18.399  0.00  0.00    -0.084 HD
ATOM      8  H   UNL     1      34.673 -22.457 -18.720  0.00  0.00    -0.084 HD
ENDROOT
BRANCH   1  10
ATOM      9 CL   UNL     1      34.577 -14.756 -22.652  0.00  0.00    -0.082 Cl
ATOM     10  C   UNL     1      34.668 -18.767 -22.368  0.00  0.00    +0.049 C 
ATOM     11  C   UNL     1      34.621 -17.393 -22.057  0.00  0.00    +0.026 C 
ATOM     12  C   UNL     1      34.728 -19.135 -23.728  0.00  0.00    +0.015 C 
ATOM     13  C   UNL     1      34.634 -16.428 -23.062  0.00  0.00    +0.059 C 
ATOM     14  C   UNL     1      34.740 -18.169 -24.734  0.00  0.00    +0.002 C 
ATOM     15  C   UNL     1      34.693 -16.815 -24.401  0.00  0.00    +0.011 C 
ENDBRANCH   1  10
TORSDOF 1
ENDMDL
MODEL 4
REMARK VINA RESULT:      -7.0      2.714      5.233
REMARK  Name = 1355
REMARK  1 active torsions:
REMARK  status: ('A' for Active; 'I' for Inactive)
REMARK    1  A    between atoms: N_1  and  C_10
REMARK                            x       y       z     vdW  Elec       q    Type
REMARK                         _______ _______ _______ _____ _____    ______ ____
ROOT
ATOM      1  N   UNL     1      34.636 -19.852 -20.713  0.00  0.00    -0.312 N 
ATOM      2  N   UNL     1      34.349 -22.258 -19.203  0.00  0.00    +0.386 N 
ATOM      3  C   UNL     1      33.325 -20.505 -20.612  0.00  0.00    +0.067 C 
ATOM      4  C   UNL     1      35.798 -20.718 -20.483  0.00  0.00    +0.067 C 
ATOM      5  C   UNL     1      33.231 -21.322 -19.324  0.00  0.00    -0.060 C 
ATOM      6  C   UNL     1      35.616 -21.529 -19.199  0.00  0.00    -0.060 C 
ATOM      7  H   UNL     1      34.334 -22.905 -19.991  0.00  0.00    -0.084 HD
ATOM      8  H   UNL     1      34.259 -22.774 -18.328  0.00  0.00    -0.084 HD
ENDROOT
BRANCH   1  10
ATOM      9 CL   UNL     1      34.562 -14.735 -21.258  0.00  0.00    -0.082 Cl
ATOM     10  C   UNL     1      34.755 -18.741 -21.556  0.00  0.00    +0.049 C 
ATOM     11  C   UNL     1      34.617 -17.431 -21.056  0.00  0.00    +0.026 C 
ATOM     12  C   UNL     1      35.018 -18.899 -22.931  0.00  0.00    +0.015 C 
ATOM     13  C   UNL     1      34.736 -16.325 -21.896  0.00  0.00    +0.059 C 
ATOM     14  C   UNL     1      35.136 -17.793 -23.773  0.00  0.00    +0.002 C 
ATOM     15  C   UNL     1      34.995 -16.505 -23.255  0.00  0.00    +0.011 C 
ENDBRANCH   1  10
TORSDOF 1
ENDMDL
MODEL 5
REMARK VINA RESULT:      -7.0      2.758      5.238
REMARK  Name = 1355
REMARK  1 active torsions:
REMARK  status: ('A' for Active; 'I' for Inactive)
REMARK    1  A    between atoms: N_1  and  C_10
REMARK                            x       y       z     vdW  Elec       q    Type
REMARK                         _______ _______ _______ _____ _____    ______ ____
ROOT
ATOM      1  N   UNL     1      34.630 -19.548 -20.761  0.00  0.00    -0.312 N 
ATOM      2  N   UNL     1      34.473 -22.078 -19.448  0.00  0.00    +0.386 N 
ATOM      3  C   UNL     1      33.351 -20.269 -20.704  0.00  0.00    +0.067 C 
ATOM      4  C   UNL     1      35.834 -20.373 -20.611  0.00  0.00    +0.067 C 
ATOM      5  C   UNL     1      33.311 -21.190 -19.484  0.00  0.00    -0.060 C 
ATOM      6  C   UNL     1      35.704 -21.292 -19.396  0.00  0.00    -0.060 C 
ATOM      7  H   UNL     1      34.479 -22.660 -20.286  0.00  0.00    -0.084 HD
ATOM      8  H   UNL     1      34.417 -22.666 -18.617  0.00  0.00    -0.084 HD
ENDROOT
BRANCH   1  10
ATOM      9 CL   UNL     1      34.808 -17.308 -25.390  0.00  0.00    -0.082 Cl
ATOM     10  C   UNL     1      34.687 -18.369 -21.513  0.00  0.00    +0.049 C 
ATOM     11  C   UNL     1      34.717 -18.407 -22.922  0.00  0.00    +0.026 C 
ATOM     12  C   UNL     1      34.716 -17.108 -20.885  0.00  0.00    +0.015 C 
ATOM     13  C   UNL     1      34.774 -17.232 -23.671  0.00  0.00    +0.059 C 
ATOM     14  C   UNL     1      34.774 -15.932 -21.634  0.00  0.00    +0.002 C 
ATOM     15  C   UNL     1      34.803 -15.995 -23.027  0.00  0.00    +0.011 C 
ENDBRANCH   1  10
TORSDOF 1
ENDMDL
MODEL 6
REMARK VINA RESULT:      -6.8      2.949      4.641
REMARK  Name = 1355
REMARK  1 active torsions:
REMARK  status: ('A' for Active; 'I' for Inactive)
REMARK    1  A    between atoms: N_1  and  C_10
REMARK                            x       y       z     vdW  Elec       q    Type
REMARK                         _______ _______ _______ _____ _____    ______ ____
ROOT
ATOM      1  N   UNL     1      33.491 -14.895 -22.786  0.00  0.00    -0.312 N 
ATOM      2  N   UNL     1      31.911 -12.553 -22.375  0.00  0.00    +0.386 N 
ATOM      3  C   UNL     1      33.218 -13.986 -23.907  0.00  0.00    +0.067 C 
ATOM      4  C   UNL     1      32.535 -14.839 -21.674  0.00  0.00    +0.067 C 
ATOM      5  C   UNL     1      32.959 -12.569 -23.395  0.00  0.00    -0.060 C 
ATOM      6  C   UNL     1      32.299 -13.392 -21.243  0.00  0.00    -0.060 C 
ATOM      7  H   UNL     1      31.043 -12.909 -22.777  0.00  0.00    -0.084 HD
ATOM      8  H   UNL     1      31.776 -11.596 -22.051  0.00  0.00    -0.084 HD
ENDROOT
BRANCH   1  10
ATOM      9 CL   UNL     1      36.281 -18.846 -21.028  0.00  0.00    -0.082 Cl
ATOM     10  C   UNL     1      34.171 -16.088 -23.057  0.00  0.00    +0.049 C 
ATOM     11  C   UNL     1      34.820 -16.803 -22.030  0.00  0.00    +0.026 C 
ATOM     12  C   UNL     1      34.227 -16.610 -24.364  0.00  0.00    +0.015 C 
ATOM     13  C   UNL     1      35.497 -17.992 -22.301  0.00  0.00    +0.059 C 
ATOM     14  C   UNL     1      34.905 -17.799 -24.635  0.00  0.00    +0.002 C 
ATOM     15  C   UNL     1      35.541 -18.490 -23.603  0.00  0.00    +0.011 C 
ENDBRANCH   1  10
TORSDOF 1
ENDMDL
MODEL 7
REMARK VINA RESULT:      -6.7      3.934      6.487
REMARK  Name = 1355
REMARK  1 active torsions:
REMARK  status: ('A' for Active; 'I' for Inactive)
REMARK    1  A    between atoms: N_1  and  C_10
REMARK                            x       y       z     vdW  Elec       q    Type
REMARK                         _______ _______ _______ _____ _____    ______ ____
ROOT
ATOM      1  N   UNL     1      34.470 -16.708 -23.383  0.00  0.00    -0.312 N 
ATOM      2  N   UNL     1      35.592 -18.821 -21.824  0.00  0.00    +0.386 N 
ATOM      3  C   UNL     1      35.018 -17.899 -24.045  0.00  0.00    +0.067 C 
ATOM      4  C   UNL     1      34.985 -16.434 -22.036  0.00  0.00    +0.067 C 
ATOM      5  C   UNL     1      34.955 -19.107 -23.110  0.00  0.00    -0.060 C 
ATOM      6  C   UNL     1      34.925 -17.695 -21.173  0.00  0.00    -0.060 C 
ATOM      7  H   UNL     1      36.574 -18.589 -21.979  0.00  0.00    -0.084 HD
ATOM      8  H   UNL     1      35.520 -19.643 -21.226  0.00  0.00    -0.084 HD
ENDROOT
BRANCH   1  10
ATOM      9 CL   UNL     1      33.495 -11.678 -23.856  0.00  0.00    -0.082 Cl
ATOM     10  C   UNL     1      34.036 -15.649 -24.188  0.00  0.00    +0.049 C 
ATOM     11  C   UNL     1      33.982 -14.332 -23.689  0.00  0.00    +0.026 C 
ATOM     12  C   UNL     1      33.641 -15.867 -25.523  0.00  0.00    +0.015 C 
ATOM     13  C   UNL     1      33.550 -13.277 -24.492  0.00  0.00    +0.059 C 
ATOM     14  C   UNL     1      33.207 -14.811 -26.326  0.00  0.00    +0.002 C 
ATOM     15  C   UNL     1      33.162 -13.516 -25.810  0.00  0.00    +0.011 C 
ENDBRANCH   1  10
TORSDOF 1
ENDMDL
MODEL 8
REMARK VINA RESULT:      -6.7      4.100      6.314
REMARK  Name = 1355
REMARK  1 active torsions:
REMARK  status: ('A' for Active; 'I' for Inactive)
REMARK    1  A    between atoms: N_1  and  C_10
REMARK                            x       y       z     vdW  Elec       q    Type
REMARK                         _______ _______ _______ _____ _____    ______ ____
ROOT
ATOM      1  N   UNL     1      34.290 -16.252 -22.473  0.00  0.00    -0.312 N 
ATOM      2  N   UNL     1      35.714 -18.723 -22.341  0.00  0.00    +0.386 N 
ATOM      3  C   UNL     1      34.928 -16.799 -23.678  0.00  0.00    +0.067 C 
ATOM      4  C   UNL     1      34.843 -16.714 -21.194  0.00  0.00    +0.067 C 
ATOM      5  C   UNL     1      35.045 -18.320 -23.577  0.00  0.00    -0.060 C 
ATOM      6  C   UNL     1      34.965 -18.238 -21.183  0.00  0.00    -0.060 C 
ATOM      7  H   UNL     1      36.655 -18.330 -22.323  0.00  0.00    -0.084 HD
ATOM      8  H   UNL     1      35.762 -19.741 -22.304  0.00  0.00    -0.084 HD
ENDROOT
BRANCH   1  10
ATOM      9 CL   UNL     1      34.009 -11.702 -24.861  0.00  0.00    -0.082 Cl
ATOM     10  C   UNL     1      33.703 -14.984 -22.557  0.00  0.00    +0.049 C 
ATOM     11  C   UNL     1      34.096 -14.066 -23.551  0.00  0.00    +0.026 C 
ATOM     12  C   UNL     1      32.701 -14.587 -21.649  0.00  0.00    +0.015 C 
ATOM     13  C   UNL     1      33.511 -12.803 -23.634  0.00  0.00    +0.059 C 
ATOM     14  C   UNL     1      32.116 -13.323 -21.731  0.00  0.00    +0.002 C 
ATOM     15  C   UNL     1      32.522 -12.431 -22.725  0.00  0.00    +0.011 C 
ENDBRANCH   1  10
TORSDOF 1
ENDMDL
MODEL 9
REMARK VINA RESULT:      -6.6      2.504      3.613
REMARK  Name = 1355
REMARK  1 active torsions:
REMARK  status: ('A' for Active; 'I' for Inactive)
REMARK    1  A    between atoms: N_1  and  C_10
REMARK                            x       y       z     vdW  Elec       q    Type
REMARK                         _______ _______ _______ _____ _____    ______ ____
ROOT
ATOM      1  N   UNL     1      33.805 -15.818 -22.134  0.00  0.00    -0.312 N 
ATOM      2  N   UNL     1      32.548 -13.382 -22.935  0.00  0.00    +0.386 N 
ATOM      3  C   UNL     1      33.938 -15.341 -23.518  0.00  0.00    +0.067 C 
ATOM      4  C   UNL     1      32.640 -15.316 -21.397  0.00  0.00    +0.067 C 
ATOM      5  C   UNL     1      33.787 -13.821 -23.576  0.00  0.00    -0.060 C 
ATOM      6  C   UNL     1      32.534 -13.797 -21.533  0.00  0.00    -0.060 C 
ATOM      7  H   UNL     1      31.752 -13.800 -23.418  0.00  0.00    -0.084 HD
ATOM      8  H   UNL     1      32.489 -12.366 -22.983  0.00  0.00    -0.084 HD
ENDROOT
BRANCH   1  10
ATOM      9 CL   UNL     1      33.099 -20.496 -20.111  0.00  0.00    -0.082 Cl
ATOM     10  C   UNL     1      34.339 -17.071 -21.817  0.00  0.00    +0.049 C 
ATOM     11  C   UNL     1      33.552 -18.059 -21.191  0.00  0.00    +0.026 C 
ATOM     12  C   UNL     1      35.681 -17.385 -22.113  0.00  0.00    +0.015 C 
ATOM     13  C   UNL     1      34.085 -19.308 -20.874  0.00  0.00    +0.059 C 
ATOM     14  C   UNL     1      36.214 -18.635 -21.795  0.00  0.00    +0.002 C 
ATOM     15  C   UNL     1      35.415 -19.596 -21.175  0.00  0.00    +0.011 C 
ENDBRANCH   1  10
TORSDOF 1
ENDMDL
