MODEL 1
REMARK VINA RESULT:      -8.9      0.000      0.000
REMARK  Name = 131704303
REMARK  8 active torsions:
REMARK  status: ('A' for Active; 'I' for Inactive)
REMARK    1  A    between atoms: C_1  and  N_15
REMARK    2  A    between atoms: C_2  and  C_10
REMARK    3  A    between atoms: C_3  and  C_14
REMARK    4  A    between atoms: N_15  and  C_17
REMARK    5  A    between atoms: C_17  and  S_18
REMARK    6  A    between atoms: C_17  and  C_20
REMARK    7  A    between atoms: C_20  and  C_23
REMARK    8  A    between atoms: C_20  and  C_27
REMARK                            x       y       z     vdW  Elec       q    Type
REMARK                         _______ _______ _______ _____ _____    ______ ____
ROOT
ATOM      1  C   UNL     1      34.046 -23.366 -14.819  0.00  0.00    +0.045 C 
ATOM      2  C   UNL     1      31.741 -23.444 -15.539  0.00  0.00    +0.073 C 
ATOM      3  C   UNL     1      33.492 -22.984 -17.139  0.00  0.00    +0.073 C 
ATOM      4  C   UNL     1      34.445 -23.085 -16.125  0.00  0.00    +0.018 C 
ATOM      5  C   UNL     1      32.694 -23.545 -14.525  0.00  0.00    +0.018 C 
ATOM      6  C   UNL     1      32.140 -23.164 -16.846  0.00  0.00    +0.008 C 
ENDROOT
BRANCH   2  10
ATOM      7  F   UNL     1      29.656 -24.407 -16.153  0.00  0.00    -0.166 F 
ATOM      8  F   UNL     1      30.072 -24.246 -14.025  0.00  0.00    -0.166 F 
ATOM      9  F   UNL     1      29.589 -22.469 -15.171  0.00  0.00    -0.166 F 
ATOM     10  C   UNL     1      30.296 -23.636 -15.226  0.00  0.00    +0.419 C 
ENDBRANCH   2  10
BRANCH   3  14
ATOM     11  F   UNL     1      33.166 -21.704 -19.116  0.00  0.00    -0.166 F 
ATOM     12  F   UNL     1      35.213 -22.258 -18.634  0.00  0.00    -0.166 F 
ATOM     13  F   UNL     1      33.833 -23.757 -19.377  0.00  0.00    -0.166 F 
ATOM     14  C   UNL     1      33.919 -22.684 -18.536  0.00  0.00    +0.419 C 
ENDBRANCH   3  14
BRANCH   1  15
ATOM     15  N   UNL     1      34.992 -23.466 -13.812  0.00  0.00    -0.325 N 
ATOM     16  H   UNL     1      35.383 -22.626 -13.478  0.00  0.00    +0.148 HD
BRANCH  15  17
ATOM     17  C   UNL     1      35.459 -24.704 -13.205  0.00  0.00    +0.138 C 
BRANCH  17  18
ATOM     18  S   UNL     1      35.637 -24.421 -11.395  0.00  0.00    -0.148 S 
ATOM     19  H   UNL     1      34.752 -25.206 -10.725  0.00  0.00    +0.104 HD
ENDBRANCH  17  18
BRANCH  17  20
ATOM     20  C   UNL     1      36.775 -25.179 -13.867  0.00  0.00    +0.195 C 
BRANCH  20  23
ATOM     21  O   UNL     1      37.820 -22.993 -13.635  0.00  0.00    -0.274 OA
ATOM     22  N   UNL     1      38.180 -24.173 -15.570  0.00  0.00    -0.328 N 
ATOM     23  C   UNL     1      37.633 -23.998 -14.317  0.00  0.00    +0.236 C 
ATOM     24  H   UNL     1      38.752 -23.473 -15.960  0.00  0.00    +0.145 HD
ATOM     25  H   UNL     1      37.999 -24.999 -16.076  0.00  0.00    +0.145 HD
ENDBRANCH  20  23
BRANCH  20  27
ATOM     26  N   UNL     1      36.388 -26.873 -15.853  0.00  0.00    -0.195 NA
ATOM     27  C   UNL     1      36.555 -26.127 -14.980  0.00  0.00    +0.084 C 
ENDBRANCH  20  27
ENDBRANCH  17  20
ENDBRANCH  15  17
ENDBRANCH   1  15
TORSDOF 8
ENDMDL
MODEL 2
REMARK VINA RESULT:      -8.9      0.038      3.616
REMARK  Name = 131704303
REMARK  8 active torsions:
REMARK  status: ('A' for Active; 'I' for Inactive)
REMARK    1  A    between atoms: C_1  and  N_15
REMARK    2  A    between atoms: C_2  and  C_10
REMARK    3  A    between atoms: C_3  and  C_14
REMARK    4  A    between atoms: N_15  and  C_17
REMARK    5  A    between atoms: C_17  and  S_18
REMARK    6  A    between atoms: C_17  and  C_20
REMARK    7  A    between atoms: C_20  and  C_23
REMARK    8  A    between atoms: C_20  and  C_27
REMARK                            x       y       z     vdW  Elec       q    Type
REMARK                         _______ _______ _______ _____ _____    ______ ____
ROOT
ATOM      1  C   UNL     1      34.057 -23.362 -14.831  0.00  0.00    +0.045 C 
ATOM      2  C   UNL     1      33.490 -22.986 -17.148  0.00  0.00    +0.073 C 
ATOM      3  C   UNL     1      31.748 -23.438 -15.535  0.00  0.00    +0.073 C 
ATOM      4  C   UNL     1      32.708 -23.539 -14.528  0.00  0.00    +0.018 C 
ATOM      5  C   UNL     1      34.449 -23.086 -16.141  0.00  0.00    +0.018 C 
ATOM      6  C   UNL     1      32.139 -23.161 -16.846  0.00  0.00    +0.008 C 
ENDROOT
BRANCH   2  10
ATOM      7  F   UNL     1      35.201 -22.264 -18.633  0.00  0.00    -0.166 F 
ATOM      8  F   UNL     1      33.820 -23.766 -19.386  0.00  0.00    -0.166 F 
ATOM      9  F   UNL     1      33.161 -21.714 -19.147  0.00  0.00    -0.166 F 
ATOM     10  C   UNL     1      33.907 -22.690 -18.549  0.00  0.00    +0.419 C 
ENDBRANCH   2  10
BRANCH   3  14
ATOM     11  F   UNL     1      29.637 -22.442 -15.082  0.00  0.00    -0.166 F 
ATOM     12  F   UNL     1      29.618 -24.331 -16.159  0.00  0.00    -0.166 F 
ATOM     13  F   UNL     1      30.089 -24.298 -14.042  0.00  0.00    -0.166 F 
ATOM     14  C   UNL     1      30.305 -23.626 -15.212  0.00  0.00    +0.419 C 
ENDBRANCH   3  14
BRANCH   1  15
ATOM     15  N   UNL     1      35.010 -23.462 -13.830  0.00  0.00    -0.325 N 
ATOM     16  H   UNL     1      35.410 -22.623 -13.504  0.00  0.00    +0.148 HD
BRANCH  15  17
ATOM     17  C   UNL     1      35.474 -24.700 -13.219  0.00  0.00    +0.138 C 
BRANCH  17  18
ATOM     18  S   UNL     1      35.649 -24.412 -11.410  0.00  0.00    -0.148 S 
ATOM     19  H   UNL     1      36.908 -24.748 -11.018  0.00  0.00    +0.104 HD
ENDBRANCH  17  18
BRANCH  17  20
ATOM     20  C   UNL     1      36.789 -25.179 -13.878  0.00  0.00    +0.195 C 
BRANCH  20  23
ATOM     21  O   UNL     1      37.809 -22.978 -13.671  0.00  0.00    -0.274 OA
ATOM     22  N   UNL     1      38.234 -24.202 -15.565  0.00  0.00    -0.328 N 
ATOM     23  C   UNL     1      37.649 -24.001 -14.333  0.00  0.00    +0.236 C 
ATOM     24  H   UNL     1      38.810 -23.506 -15.956  0.00  0.00    +0.145 HD
ATOM     25  H   UNL     1      38.074 -25.041 -16.055  0.00  0.00    +0.145 HD
ENDBRANCH  20  23
BRANCH  20  27
ATOM     26  N   UNL     1      36.402 -26.880 -15.858  0.00  0.00    -0.195 NA
ATOM     27  C   UNL     1      36.569 -26.132 -14.987  0.00  0.00    +0.084 C 
ENDBRANCH  20  27
ENDBRANCH  17  20
ENDBRANCH  15  17
ENDBRANCH   1  15
TORSDOF 8
ENDMDL
MODEL 3
REMARK VINA RESULT:      -8.3      1.743      2.035
REMARK  Name = 131704303
REMARK  8 active torsions:
REMARK  status: ('A' for Active; 'I' for Inactive)
REMARK    1  A    between atoms: C_1  and  N_15
REMARK    2  A    between atoms: C_2  and  C_10
REMARK    3  A    between atoms: C_3  and  C_14
REMARK    4  A    between atoms: N_15  and  C_17
REMARK    5  A    between atoms: C_17  and  S_18
REMARK    6  A    between atoms: C_17  and  C_20
REMARK    7  A    between atoms: C_20  and  C_23
REMARK    8  A    between atoms: C_20  and  C_27
REMARK                            x       y       z     vdW  Elec       q    Type
REMARK                         _______ _______ _______ _____ _____    ______ ____
ROOT
ATOM      1  C   UNL     1      34.718 -23.726 -15.219  0.00  0.00    +0.045 C 
ATOM      2  C   UNL     1      32.322 -23.547 -15.472  0.00  0.00    +0.073 C 
ATOM      3  C   UNL     1      33.780 -22.913 -17.291  0.00  0.00    +0.073 C 
ATOM      4  C   UNL     1      34.892 -23.243 -16.515  0.00  0.00    +0.018 C 
ATOM      5  C   UNL     1      33.433 -23.877 -14.696  0.00  0.00    +0.018 C 
ATOM      6  C   UNL     1      32.495 -23.065 -16.770  0.00  0.00    +0.008 C 
ENDROOT
BRANCH   2  10
ATOM      7  F   UNL     1      30.379 -24.901 -15.261  0.00  0.00    -0.166 F 
ATOM      8  F   UNL     1      30.901 -23.664 -13.550  0.00  0.00    -0.166 F 
ATOM      9  F   UNL     1      30.072 -22.749 -15.334  0.00  0.00    -0.166 F 
ATOM     10  C   UNL     1      30.948 -23.709 -14.915  0.00  0.00    +0.419 C 
ENDBRANCH   2  10
BRANCH   3  14
ATOM     11  F   UNL     1      32.993 -21.512 -19.043  0.00  0.00    -0.166 F 
ATOM     12  F   UNL     1      35.148 -21.741 -18.865  0.00  0.00    -0.166 F 
ATOM     13  F   UNL     1      33.947 -23.375 -19.632  0.00  0.00    -0.166 F 
ATOM     14  C   UNL     1      33.966 -22.398 -18.678  0.00  0.00    +0.419 C 
ENDBRANCH   3  14
BRANCH   1  15
ATOM     15  N   UNL     1      35.821 -24.054 -14.448  0.00  0.00    -0.325 N 
ATOM     16  H   UNL     1      35.792 -23.808 -13.494  0.00  0.00    +0.148 HD
BRANCH  15  17
ATOM     17  C   UNL     1      37.020 -24.728 -14.924  0.00  0.00    +0.138 C 
BRANCH  17  18
ATOM     18  S   UNL     1      36.631 -26.516 -15.117  0.00  0.00    -0.148 S 
ATOM     19  H   UNL     1      37.782 -27.238 -15.065  0.00  0.00    +0.104 HD
ENDBRANCH  17  18
BRANCH  17  20
ATOM     20  C   UNL     1      38.210 -24.475 -13.967  0.00  0.00    +0.195 C 
BRANCH  20  23
ATOM     21  O   UNL     1      39.808 -26.249 -13.496  0.00  0.00    -0.274 OA
ATOM     22  N   UNL     1      39.925 -25.188 -15.527  0.00  0.00    -0.328 N 
ATOM     23  C   UNL     1      39.385 -25.400 -14.277  0.00  0.00    +0.236 C 
ATOM     24  H   UNL     1      40.689 -25.730 -15.832  0.00  0.00    +0.145 HD
ATOM     25  H   UNL     1      39.548 -24.494 -16.116  0.00  0.00    +0.145 HD
ENDBRANCH  20  23
BRANCH  20  27
ATOM     26  N   UNL     1      37.535 -24.619 -11.420  0.00  0.00    -0.195 NA
ATOM     27  C   UNL     1      37.834 -24.558 -12.539  0.00  0.00    +0.084 C 
ENDBRANCH  20  27
ENDBRANCH  17  20
ENDBRANCH  15  17
ENDBRANCH   1  15
TORSDOF 8
ENDMDL
MODEL 4
REMARK VINA RESULT:      -8.3      6.820      8.836
REMARK  Name = 131704303
REMARK  8 active torsions:
REMARK  status: ('A' for Active; 'I' for Inactive)
REMARK    1  A    between atoms: C_1  and  N_15
REMARK    2  A    between atoms: C_2  and  C_10
REMARK    3  A    between atoms: C_3  and  C_14
REMARK    4  A    between atoms: N_15  and  C_17
REMARK    5  A    between atoms: C_17  and  S_18
REMARK    6  A    between atoms: C_17  and  C_20
REMARK    7  A    between atoms: C_20  and  C_23
REMARK    8  A    between atoms: C_20  and  C_27
REMARK                            x       y       z     vdW  Elec       q    Type
REMARK                         _______ _______ _______ _____ _____    ______ ____
ROOT
ATOM      1  C   UNL     1      34.989 -18.297 -21.446  0.00  0.00    +0.045 C 
ATOM      2  C   UNL     1      34.483 -15.959 -21.784  0.00  0.00    +0.073 C 
ATOM      3  C   UNL     1      34.633 -17.450 -23.679  0.00  0.00    +0.073 C 
ATOM      4  C   UNL     1      34.921 -18.511 -22.822  0.00  0.00    +0.018 C 
ATOM      5  C   UNL     1      34.771 -17.021 -20.926  0.00  0.00    +0.018 C 
ATOM      6  C   UNL     1      34.414 -16.173 -23.161  0.00  0.00    +0.008 C 
ENDROOT
BRANCH   2  10
ATOM      7  F   UNL     1      34.297 -13.623 -22.188  0.00  0.00    -0.166 F 
ATOM      8  F   UNL     1      33.033 -14.451 -20.623  0.00  0.00    -0.166 F 
ATOM      9  F   UNL     1      35.163 -14.223 -20.286  0.00  0.00    -0.166 F 
ATOM     10  C   UNL     1      34.249 -14.594 -21.230  0.00  0.00    +0.419 C 
ENDBRANCH   2  10
BRANCH   3  14
ATOM     11  F   UNL     1      35.406 -16.867 -25.852  0.00  0.00    -0.166 F 
ATOM     12  F   UNL     1      34.884 -18.952 -25.524  0.00  0.00    -0.166 F 
ATOM     13  F   UNL     1      33.320 -17.457 -25.679  0.00  0.00    -0.166 F 
ATOM     14  C   UNL     1      34.560 -17.679 -25.151  0.00  0.00    +0.419 C 
ENDBRANCH   3  14
BRANCH   1  15
ATOM     15  N   UNL     1      35.275 -19.351 -20.594  0.00  0.00    -0.325 N 
ATOM     16  H   UNL     1      36.066 -19.259 -20.014  0.00  0.00    +0.148 HD
BRANCH  15  17
ATOM     17  C   UNL     1      34.509 -20.584 -20.480  0.00  0.00    +0.138 C 
BRANCH  17  18
ATOM     18  S   UNL     1      32.721 -20.149 -20.509  0.00  0.00    -0.148 S 
ATOM     19  H   UNL     1      32.574 -18.861 -20.920  0.00  0.00    +0.104 HD
ENDBRANCH  17  18
BRANCH  17  20
ATOM     20  C   UNL     1      34.913 -21.367 -19.209  0.00  0.00    +0.195 C 
BRANCH  20  23
ATOM     21  O   UNL     1      37.210 -21.358 -20.014  0.00  0.00    -0.274 OA
ATOM     22  N   UNL     1      36.843 -21.682 -17.772  0.00  0.00    -0.328 N 
ATOM     23  C   UNL     1      36.431 -21.464 -19.070  0.00  0.00    +0.236 C 
ATOM     24  H   UNL     1      37.803 -21.761 -17.567  0.00  0.00    +0.145 HD
ATOM     25  H   UNL     1      36.177 -21.759 -17.051  0.00  0.00    +0.145 HD
ENDBRANCH  20  23
BRANCH  20  27
ATOM     26  N   UNL     1      33.800 -23.756 -19.068  0.00  0.00    -0.195 NA
ATOM     27  C   UNL     1      34.288 -22.705 -19.128  0.00  0.00    +0.084 C 
ENDBRANCH  20  27
ENDBRANCH  17  20
ENDBRANCH  15  17
ENDBRANCH   1  15
TORSDOF 8
ENDMDL
MODEL 5
REMARK VINA RESULT:      -8.3      6.818      9.146
REMARK  Name = 131704303
REMARK  8 active torsions:
REMARK  status: ('A' for Active; 'I' for Inactive)
REMARK    1  A    between atoms: C_1  and  N_15
REMARK    2  A    between atoms: C_2  and  C_10
REMARK    3  A    between atoms: C_3  and  C_14
REMARK    4  A    between atoms: N_15  and  C_17
REMARK    5  A    between atoms: C_17  and  S_18
REMARK    6  A    between atoms: C_17  and  C_20
REMARK    7  A    between atoms: C_20  and  C_23
REMARK    8  A    between atoms: C_20  and  C_27
REMARK                            x       y       z     vdW  Elec       q    Type
REMARK                         _______ _______ _______ _____ _____    ______ ____
ROOT
ATOM      1  C   UNL     1      34.984 -18.296 -21.449  0.00  0.00    +0.045 C 
ATOM      2  C   UNL     1      34.627 -17.430 -23.675  0.00  0.00    +0.073 C 
ATOM      3  C   UNL     1      34.450 -15.962 -21.764  0.00  0.00    +0.073 C 
ATOM      4  C   UNL     1      34.747 -17.029 -20.916  0.00  0.00    +0.018 C 
ATOM      5  C   UNL     1      34.924 -18.497 -22.828  0.00  0.00    +0.018 C 
ATOM      6  C   UNL     1      34.390 -16.162 -23.143  0.00  0.00    +0.008 C 
ENDROOT
BRANCH   2  10
ATOM      7  F   UNL     1      34.886 -18.919 -25.510  0.00  0.00    -0.166 F 
ATOM      8  F   UNL     1      33.327 -17.413 -25.683  0.00  0.00    -0.166 F 
ATOM      9  F   UNL     1      35.411 -16.837 -25.855  0.00  0.00    -0.166 F 
ATOM     10  C   UNL     1      34.563 -17.643 -25.150  0.00  0.00    +0.419 C 
ENDBRANCH   2  10
BRANCH   3  14
ATOM     11  F   UNL     1      35.143 -14.233 -20.285  0.00  0.00    -0.166 F 
ATOM     12  F   UNL     1      34.177 -13.614 -22.132  0.00  0.00    -0.166 F 
ATOM     13  F   UNL     1      33.001 -14.503 -20.542  0.00  0.00    -0.166 F 
ATOM     14  C   UNL     1      34.196 -14.607 -21.195  0.00  0.00    +0.419 C 
ENDBRANCH   3  14
BRANCH   1  15
ATOM     15  N   UNL     1      35.279 -19.356 -20.607  0.00  0.00    -0.325 N 
ATOM     16  H   UNL     1      36.079 -19.270 -20.039  0.00  0.00    +0.148 HD
BRANCH  15  17
ATOM     17  C   UNL     1      34.511 -20.587 -20.490  0.00  0.00    +0.138 C 
BRANCH  17  18
ATOM     18  S   UNL     1      32.724 -20.150 -20.525  0.00  0.00    -0.148 S 
ATOM     19  H   UNL     1      32.390 -19.512 -19.372  0.00  0.00    +0.104 HD
ENDBRANCH  17  18
BRANCH  17  20
ATOM     20  C   UNL     1      34.910 -21.365 -19.213  0.00  0.00    +0.195 C 
BRANCH  20  23
ATOM     21  O   UNL     1      37.212 -21.363 -20.007  0.00  0.00    -0.274 OA
ATOM     22  N   UNL     1      36.833 -21.654 -17.763  0.00  0.00    -0.328 N 
ATOM     23  C   UNL     1      36.428 -21.456 -19.065  0.00  0.00    +0.236 C 
ATOM     24  H   UNL     1      37.792 -21.728 -17.551  0.00  0.00    +0.145 HD
ATOM     25  H   UNL     1      36.164 -21.723 -17.043  0.00  0.00    +0.145 HD
ENDBRANCH  20  23
BRANCH  20  27
ATOM     26  N   UNL     1      33.805 -23.756 -19.063  0.00  0.00    -0.195 NA
ATOM     27  C   UNL     1      34.289 -22.705 -19.132  0.00  0.00    +0.084 C 
ENDBRANCH  20  27
ENDBRANCH  17  20
ENDBRANCH  15  17
ENDBRANCH   1  15
TORSDOF 8
ENDMDL
MODEL 6
REMARK VINA RESULT:      -8.1      6.653      9.104
REMARK  Name = 131704303
REMARK  8 active torsions:
REMARK  status: ('A' for Active; 'I' for Inactive)
REMARK    1  A    between atoms: C_1  and  N_15
REMARK    2  A    between atoms: C_2  and  C_10
REMARK    3  A    between atoms: C_3  and  C_14
REMARK    4  A    between atoms: N_15  and  C_17
REMARK    5  A    between atoms: C_17  and  S_18
REMARK    6  A    between atoms: C_17  and  C_20
REMARK    7  A    between atoms: C_20  and  C_23
REMARK    8  A    between atoms: C_20  and  C_27
REMARK                            x       y       z     vdW  Elec       q    Type
REMARK                         _______ _______ _______ _____ _____    ______ ____
ROOT
ATOM      1  C   UNL     1      35.103 -18.509 -21.411  0.00  0.00    +0.045 C 
ATOM      2  C   UNL     1      34.700 -17.625 -23.622  0.00  0.00    +0.073 C 
ATOM      3  C   UNL     1      34.566 -16.172 -21.696  0.00  0.00    +0.073 C 
ATOM      4  C   UNL     1      34.879 -17.246 -20.863  0.00  0.00    +0.018 C 
ATOM      5  C   UNL     1      35.013 -18.699 -22.790  0.00  0.00    +0.018 C 
ATOM      6  C   UNL     1      34.476 -16.361 -23.075  0.00  0.00    +0.008 C 
ENDROOT
BRANCH   2  10
ATOM      7  F   UNL     1      33.334 -17.662 -25.568  0.00  0.00    -0.166 F 
ATOM      8  F   UNL     1      35.378 -16.962 -25.818  0.00  0.00    -0.166 F 
ATOM      9  F   UNL     1      34.988 -19.072 -25.504  0.00  0.00    -0.166 F 
ATOM     10  C   UNL     1      34.605 -17.826 -25.096  0.00  0.00    +0.419 C 
ENDBRANCH   2  10
BRANCH   3  14
ATOM     11  F   UNL     1      34.509 -13.817 -22.018  0.00  0.00    -0.166 F 
ATOM     12  F   UNL     1      33.062 -14.650 -20.626  0.00  0.00    -0.166 F 
ATOM     13  F   UNL     1      35.153 -14.523 -20.065  0.00  0.00    -0.166 F 
ATOM     14  C   UNL     1      34.327 -14.821 -21.111  0.00  0.00    +0.419 C 
ENDBRANCH   3  14
BRANCH   1  15
ATOM     15  N   UNL     1      35.414 -19.577 -20.584  0.00  0.00    -0.325 N 
ATOM     16  H   UNL     1      36.169 -19.459 -19.962  0.00  0.00    +0.148 HD
BRANCH  15  17
ATOM     17  C   UNL     1      34.724 -20.858 -20.555  0.00  0.00    +0.138 C 
BRANCH  17  18
ATOM     18  S   UNL     1      32.997 -20.564 -19.992  0.00  0.00    -0.148 S 
ATOM     19  H   UNL     1      32.289 -21.722 -20.076  0.00  0.00    +0.104 HD
ENDBRANCH  17  18
BRANCH  17  20
ATOM     20  C   UNL     1      35.480 -21.870 -19.661  0.00  0.00    +0.195 C 
BRANCH  20  23
ATOM     21  O   UNL     1      33.874 -23.697 -19.574  0.00  0.00    -0.274 OA
ATOM     22  N   UNL     1      34.446 -22.655 -17.611  0.00  0.00    -0.328 N 
ATOM     23  C   UNL     1      34.518 -22.839 -18.976  0.00  0.00    +0.236 C 
ATOM     24  H   UNL     1      33.856 -23.227 -17.068  0.00  0.00    +0.145 HD
ATOM     25  H   UNL     1      34.984 -21.952 -17.180  0.00  0.00    +0.145 HD
ENDBRANCH  20  23
BRANCH  20  27
ATOM     26  N   UNL     1      37.063 -20.712 -17.896  0.00  0.00    -0.195 NA
ATOM     27  C   UNL     1      36.369 -21.220 -18.674  0.00  0.00    +0.084 C 
ENDBRANCH  20  27
ENDBRANCH  17  20
ENDBRANCH  15  17
ENDBRANCH   1  15
TORSDOF 8
ENDMDL
MODEL 7
REMARK VINA RESULT:      -8.0      1.570      2.058
REMARK  Name = 131704303
REMARK  8 active torsions:
REMARK  status: ('A' for Active; 'I' for Inactive)
REMARK    1  A    between atoms: C_1  and  N_15
REMARK    2  A    between atoms: C_2  and  C_10
REMARK    3  A    between atoms: C_3  and  C_14
REMARK    4  A    between atoms: N_15  and  C_17
REMARK    5  A    between atoms: C_17  and  S_18
REMARK    6  A    between atoms: C_17  and  C_20
REMARK    7  A    between atoms: C_20  and  C_23
REMARK    8  A    between atoms: C_20  and  C_27
REMARK                            x       y       z     vdW  Elec       q    Type
REMARK                         _______ _______ _______ _____ _____    ______ ____
ROOT
ATOM      1  C   UNL     1      34.371 -23.624 -15.046  0.00  0.00    +0.045 C 
ATOM      2  C   UNL     1      32.025 -23.608 -15.619  0.00  0.00    +0.073 C 
ATOM      3  C   UNL     1      33.672 -22.926 -17.250  0.00  0.00    +0.073 C 
ATOM      4  C   UNL     1      34.688 -23.163 -16.324  0.00  0.00    +0.018 C 
ATOM      5  C   UNL     1      33.040 -23.845 -14.693  0.00  0.00    +0.018 C 
ATOM      6  C   UNL     1      32.341 -23.148 -16.898  0.00  0.00    +0.008 C 
ENDROOT
BRANCH   2  10
ATOM      7  F   UNL     1      30.120 -22.901 -14.384  0.00  0.00    -0.166 F 
ATOM      8  F   UNL     1      29.746 -23.841 -16.309  0.00  0.00    -0.166 F 
ATOM      9  F   UNL     1      30.393 -25.045 -14.624  0.00  0.00    -0.166 F 
ATOM     10  C   UNL     1      30.601 -23.845 -15.244  0.00  0.00    +0.419 C 
ENDBRANCH   2  10
BRANCH   3  14
ATOM     11  F   UNL     1      33.148 -21.470 -19.056  0.00  0.00    -0.166 F 
ATOM     12  F   UNL     1      35.255 -21.879 -18.707  0.00  0.00    -0.166 F 
ATOM     13  F   UNL     1      33.985 -23.410 -19.572  0.00  0.00    -0.166 F 
ATOM     14  C   UNL     1      34.010 -22.434 -18.616  0.00  0.00    +0.419 C 
ENDBRANCH   3  14
BRANCH   1  15
ATOM     15  N   UNL     1      35.380 -23.860 -14.126  0.00  0.00    -0.325 N 
ATOM     16  H   UNL     1      35.254 -23.498 -13.219  0.00  0.00    +0.148 HD
BRANCH  15  17
ATOM     17  C   UNL     1      36.610 -24.595 -14.383  0.00  0.00    +0.138 C 
BRANCH  17  18
ATOM     18  S   UNL     1      36.172 -26.148 -15.268  0.00  0.00    -0.148 S 
ATOM     19  H   UNL     1      34.878 -26.472 -15.002  0.00  0.00    +0.104 HD
ENDBRANCH  17  18
BRANCH  17  20
ATOM     20  C   UNL     1      37.380 -24.855 -13.066  0.00  0.00    +0.195 C 
BRANCH  20  23
ATOM     21  O   UNL     1      37.966 -22.533 -12.627  0.00  0.00    -0.274 OA
ATOM     22  N   UNL     1      36.981 -23.746 -10.946  0.00  0.00    -0.328 N 
ATOM     23  C   UNL     1      37.484 -23.588 -12.219  0.00  0.00    +0.236 C 
ATOM     24  H   UNL     1      36.997 -22.992 -10.313  0.00  0.00    +0.145 HD
ATOM     25  H   UNL     1      36.605 -24.613 -10.668  0.00  0.00    +0.145 HD
ENDBRANCH  20  23
BRANCH  20  27
ATOM     26  N   UNL     1      39.759 -25.930 -13.447  0.00  0.00    -0.195 NA
ATOM     27  C   UNL     1      38.713 -25.458 -13.282  0.00  0.00    +0.084 C 
ENDBRANCH  20  27
ENDBRANCH  17  20
ENDBRANCH  15  17
ENDBRANCH   1  15
TORSDOF 8
ENDMDL
MODEL 8
REMARK VINA RESULT:      -7.8     12.590     14.664
REMARK  Name = 131704303
REMARK  8 active torsions:
REMARK  status: ('A' for Active; 'I' for Inactive)
REMARK    1  A    between atoms: C_1  and  N_15
REMARK    2  A    between atoms: C_2  and  C_10
REMARK    3  A    between atoms: C_3  and  C_14
REMARK    4  A    between atoms: N_15  and  C_17
REMARK    5  A    between atoms: C_17  and  S_18
REMARK    6  A    between atoms: C_17  and  C_20
REMARK    7  A    between atoms: C_20  and  C_23
REMARK    8  A    between atoms: C_20  and  C_27
REMARK                            x       y       z     vdW  Elec       q    Type
REMARK                         _______ _______ _______ _____ _____    ______ ____
ROOT
ATOM      1  C   UNL     1      32.348 -12.126 -22.861  0.00  0.00    +0.045 C 
ATOM      2  C   UNL     1      32.953  -9.787 -22.886  0.00  0.00    +0.073 C 
ATOM      3  C   UNL     1      31.775 -10.710 -20.990  0.00  0.00    +0.073 C 
ATOM      4  C   UNL     1      31.764 -11.962 -21.605  0.00  0.00    +0.018 C 
ATOM      5  C   UNL     1      32.942 -11.039 -23.502  0.00  0.00    +0.018 C 
ATOM      6  C   UNL     1      32.369  -9.623 -21.630  0.00  0.00    +0.008 C 
ENDROOT
BRANCH   2  10
ATOM      7  F   UNL     1      34.451  -9.004 -24.559  0.00  0.00    -0.166 F 
ATOM      8  F   UNL     1      32.694  -7.783 -24.167  0.00  0.00    -0.166 F 
ATOM      9  F   UNL     1      34.320  -7.831 -22.733  0.00  0.00    -0.166 F 
ATOM     10  C   UNL     1      33.589  -8.625 -23.570  0.00  0.00    +0.419 C 
ENDBRANCH   2  10
BRANCH   3  14
ATOM     11  F   UNL     1      31.338  -9.280 -19.140  0.00  0.00    -0.166 F 
ATOM     12  F   UNL     1      29.799 -10.732 -19.641  0.00  0.00    -0.166 F 
ATOM     13  F   UNL     1      31.640 -11.388 -18.700  0.00  0.00    -0.166 F 
ATOM     14  C   UNL     1      31.150 -10.534 -19.647  0.00  0.00    +0.419 C 
ENDBRANCH   3  14
BRANCH   1  15
ATOM     15  N   UNL     1      32.337 -13.369 -23.472  0.00  0.00    -0.325 N 
ATOM     16  H   UNL     1      31.518 -13.908 -23.379  0.00  0.00    +0.148 HD
BRANCH  15  17
ATOM     17  C   UNL     1      33.430 -13.948 -24.240  0.00  0.00    +0.138 C 
BRANCH  17  18
ATOM     18  S   UNL     1      33.012 -13.804 -26.026  0.00  0.00    -0.148 S 
ATOM     19  H   UNL     1      33.777 -12.833 -26.594  0.00  0.00    +0.104 HD
ENDBRANCH  17  18
BRANCH  17  20
ATOM     20  C   UNL     1      33.694 -15.409 -23.804  0.00  0.00    +0.195 C 
BRANCH  20  23
ATOM     21  O   UNL     1      34.565 -14.586 -21.685  0.00  0.00    -0.274 OA
ATOM     22  N   UNL     1      35.301 -16.621 -22.449  0.00  0.00    -0.328 N 
ATOM     23  C   UNL     1      34.548 -15.470 -22.539  0.00  0.00    +0.236 C 
ATOM     24  H   UNL     1      35.890 -16.765 -21.673  0.00  0.00    +0.145 HD
ATOM     25  H   UNL     1      35.251 -17.299 -23.162  0.00  0.00    +0.145 HD
ENDBRANCH  20  23
BRANCH  20  27
ATOM     26  N   UNL     1      34.742 -16.893 -25.718  0.00  0.00    -0.195 NA
ATOM     27  C   UNL     1      34.281 -16.238 -24.878  0.00  0.00    +0.084 C 
ENDBRANCH  20  27
ENDBRANCH  17  20
ENDBRANCH  15  17
ENDBRANCH   1  15
TORSDOF 8
ENDMDL
MODEL 9
REMARK VINA RESULT:      -7.7     11.990     14.296
REMARK  Name = 131704303
REMARK  8 active torsions:
REMARK  status: ('A' for Active; 'I' for Inactive)
REMARK    1  A    between atoms: C_1  and  N_15
REMARK    2  A    between atoms: C_2  and  C_10
REMARK    3  A    between atoms: C_3  and  C_14
REMARK    4  A    between atoms: N_15  and  C_17
REMARK    5  A    between atoms: C_17  and  S_18
REMARK    6  A    between atoms: C_17  and  C_20
REMARK    7  A    between atoms: C_20  and  C_23
REMARK    8  A    between atoms: C_20  and  C_27
REMARK                            x       y       z     vdW  Elec       q    Type
REMARK                         _______ _______ _______ _____ _____    ______ ____
ROOT
ATOM      1  C   UNL     1      32.225 -12.993 -22.368  0.00  0.00    +0.045 C 
ATOM      2  C   UNL     1      33.046 -14.193 -24.298  0.00  0.00    +0.073 C 
ATOM      3  C   UNL     1      33.532 -15.003 -22.074  0.00  0.00    +0.073 C 
ATOM      4  C   UNL     1      32.823 -13.933 -21.529  0.00  0.00    +0.018 C 
ATOM      5  C   UNL     1      32.337 -13.122 -23.753  0.00  0.00    +0.018 C 
ATOM      6  C   UNL     1      33.644 -15.133 -23.458  0.00  0.00    +0.008 C 
ENDROOT
BRANCH   2  10
ATOM      7  F   UNL     1      33.691 -13.221 -26.369  0.00  0.00    -0.166 F 
ATOM      8  F   UNL     1      33.967 -15.368 -26.167  0.00  0.00    -0.166 F 
ATOM      9  F   UNL     1      31.972 -14.551 -26.404  0.00  0.00    -0.166 F 
ATOM     10  C   UNL     1      33.166 -14.333 -25.777  0.00  0.00    +0.419 C 
ENDBRANCH   2  10
BRANCH   3  14
ATOM     11  F   UNL     1      34.545 -15.477 -19.975  0.00  0.00    -0.166 F 
ATOM     12  F   UNL     1      33.361 -17.065 -20.872  0.00  0.00    -0.166 F 
ATOM     13  F   UNL     1      35.303 -16.566 -21.698  0.00  0.00    -0.166 F 
ATOM     14  C   UNL     1      34.171 -16.008 -21.176  0.00  0.00    +0.419 C 
ENDBRANCH   3  14
BRANCH   1  15
ATOM     15  N   UNL     1      31.521 -11.930 -21.827  0.00  0.00    -0.325 N 
ATOM     16  H   UNL     1      30.563 -11.866 -22.048  0.00  0.00    +0.148 HD
BRANCH  15  17
ATOM     17  C   UNL     1      32.073 -10.897 -20.962  0.00  0.00    +0.138 C 
BRANCH  17  18
ATOM     18  S   UNL     1      31.365 -11.125 -19.279  0.00  0.00    -0.148 S 
ATOM     19  H   UNL     1      30.134 -11.692 -19.378  0.00  0.00    +0.104 HD
ENDBRANCH  17  18
BRANCH  17  20
ATOM     20  C   UNL     1      31.798  -9.489 -21.541  0.00  0.00    +0.195 C 
BRANCH  20  23
ATOM     21  O   UNL     1      33.434  -9.864 -23.304  0.00  0.00    -0.274 OA
ATOM     22  N   UNL     1      31.616  -8.542 -23.767  0.00  0.00    -0.328 N 
ATOM     23  C   UNL     1      32.385  -9.335 -22.943  0.00  0.00    +0.236 C 
ATOM     24  H   UNL     1      31.901  -8.375 -24.695  0.00  0.00    +0.145 HD
ATOM     25  H   UNL     1      30.782  -8.142 -23.428  0.00  0.00    +0.145 HD
ENDBRANCH  20  23
BRANCH  20  27
ATOM     26  N   UNL     1      32.612  -7.544 -19.955  0.00  0.00    -0.195 NA
ATOM     27  C   UNL     1      32.253  -8.397 -20.654  0.00  0.00    +0.084 C 
ENDBRANCH  20  27
ENDBRANCH  17  20
ENDBRANCH  15  17
ENDBRANCH   1  15
TORSDOF 8
ENDMDL
