MODEL 1
REMARK VINA RESULT:      -9.0      0.000      0.000
REMARK  Name = 4934
REMARK  7 active torsions:
REMARK  status: ('A' for Active; 'I' for Inactive)
REMARK    1  A    between atoms: C_2  and  C_16
REMARK    2  A    between atoms: C_16  and  O_17
REMARK    3  A    between atoms: O_17  and  C_18
REMARK    4  A    between atoms: C_18  and  C_19
REMARK    5  A    between atoms: C_19  and  N_20
REMARK    6  A    between atoms: N_20  and  C_22
REMARK    7  A    between atoms: N_20  and  C_25
REMARK                            x       y       z     vdW  Elec       q    Type
REMARK                         _______ _______ _______ _____ _____    ______ ____
ROOT
ATOM      1  O   UNL     1      33.292 -10.961 -24.257  0.00  0.00    -0.470 OA
ATOM      2  C   UNL     1      32.364 -13.438 -23.010  0.00  0.00    +0.078 C 
ATOM      3  C   UNL     1      32.185 -12.077 -22.389  0.00  0.00    +0.040 C 
ATOM      4  C   UNL     1      32.833 -13.353 -24.439  0.00  0.00    +0.028 C 
ATOM      5  C   UNL     1      32.667 -10.932 -23.033  0.00  0.00    +0.139 C 
ATOM      6  C   UNL     1      33.278 -12.138 -24.969  0.00  0.00    +0.210 C 
ATOM      7  C   UNL     1      31.545 -11.938 -21.148  0.00  0.00    +0.003 C 
ATOM      8  C   UNL     1      32.845 -14.495 -25.255  0.00  0.00    -0.000 C 
ATOM      9  C   UNL     1      32.527  -9.674 -22.442  0.00  0.00    +0.037 C 
ATOM     10  C   UNL     1      33.742 -12.067 -26.287  0.00  0.00    +0.021 C 
ATOM     11  C   UNL     1      31.400 -10.681 -20.561  0.00  0.00    +0.000 C 
ATOM     12  C   UNL     1      33.301 -14.421 -26.570  0.00  0.00    -0.000 C 
ATOM     13  C   UNL     1      31.893  -9.549 -21.207  0.00  0.00    +0.003 C 
ATOM     14  C   UNL     1      33.752 -13.208 -27.086  0.00  0.00    -0.001 C 
ENDROOT
BRANCH   2  16
ATOM     15  O   UNL     1      34.528 -14.038 -22.134  0.00  0.00    -0.245 OA
ATOM     16  C   UNL     1      33.326 -14.256 -22.198  0.00  0.00    +0.341 C 
BRANCH  16  17
ATOM     17  O   UNL     1      32.648 -15.254 -21.562  0.00  0.00    -0.448 OA
BRANCH  17  18
ATOM     18  C   UNL     1      33.459 -16.168 -20.816  0.00  0.00    +0.187 C 
BRANCH  18  19
ATOM     19  C   UNL     1      33.159 -17.588 -21.252  0.00  0.00    -0.025 C 
BRANCH  19  20
ATOM     20  N   UNL     1      34.383 -18.192 -21.835  0.00  0.00    +0.394 N 
ATOM     21  C   UNL     1      35.641 -17.488 -21.307  0.00  0.00    -0.095 C 
BRANCH  20  22
ATOM     22  C   UNL     1      34.481 -19.680 -21.474  0.00  0.00    -0.054 C 
ATOM     23  C   UNL     1      33.228 -20.074 -20.708  0.00  0.00    -0.022 C 
ATOM     24  C   UNL     1      35.746 -19.897 -20.660  0.00  0.00    -0.022 C 
ENDBRANCH  20  22
BRANCH  20  25
ATOM     25  C   UNL     1      34.375 -18.070 -23.365  0.00  0.00    -0.054 C 
ATOM     26  C   UNL     1      34.819 -19.399 -23.957  0.00  0.00    -0.022 C 
ATOM     27  C   UNL     1      35.295 -16.927 -23.762  0.00  0.00    -0.022 C 
ENDBRANCH  20  25
ENDBRANCH  19  20
ENDBRANCH  18  19
ENDBRANCH  17  18
ENDBRANCH  16  17
ENDBRANCH   2  16
TORSDOF 7
ENDMDL
MODEL 2
REMARK VINA RESULT:      -8.9      2.916      7.671
REMARK  Name = 4934
REMARK  7 active torsions:
REMARK  status: ('A' for Active; 'I' for Inactive)
REMARK    1  A    between atoms: C_2  and  C_16
REMARK    2  A    between atoms: C_16  and  O_17
REMARK    3  A    between atoms: O_17  and  C_18
REMARK    4  A    between atoms: C_18  and  C_19
REMARK    5  A    between atoms: C_19  and  N_20
REMARK    6  A    between atoms: N_20  and  C_22
REMARK    7  A    between atoms: N_20  and  C_25
REMARK                            x       y       z     vdW  Elec       q    Type
REMARK                         _______ _______ _______ _____ _____    ______ ____
ROOT
ATOM      1  O   UNL     1      33.451 -15.630 -24.368  0.00  0.00    -0.470 OA
ATOM      2  C   UNL     1      33.819 -12.970 -23.211  0.00  0.00    +0.078 C 
ATOM      3  C   UNL     1      34.044 -14.247 -22.444  0.00  0.00    +0.040 C 
ATOM      4  C   UNL     1      33.641 -13.216 -24.686  0.00  0.00    +0.028 C 
ATOM      5  C   UNL     1      33.835 -15.489 -23.055  0.00  0.00    +0.139 C 
ATOM      6  C   UNL     1      33.454 -14.514 -25.172  0.00  0.00    +0.210 C 
ATOM      7  C   UNL     1      34.452 -14.211 -21.103  0.00  0.00    +0.003 C 
ATOM      8  C   UNL     1      33.643 -12.145 -25.593  0.00  0.00    -0.000 C 
ATOM      9  C   UNL     1      34.013 -16.673 -22.335  0.00  0.00    +0.037 C 
ATOM     10  C   UNL     1      33.258 -14.739 -26.538  0.00  0.00    +0.021 C 
ATOM     11  C   UNL     1      34.637 -15.394 -20.385  0.00  0.00    +0.000 C 
ATOM     12  C   UNL     1      33.453 -12.371 -26.956  0.00  0.00    -0.000 C 
ATOM     13  C   UNL     1      34.416 -16.624 -21.001  0.00  0.00    +0.003 C 
ATOM     14  C   UNL     1      33.259 -13.667 -27.428  0.00  0.00    -0.001 C 
ENDROOT
BRANCH   2  16
ATOM     15  O   UNL     1      31.745 -12.764 -22.002  0.00  0.00    -0.245 OA
ATOM     16  C   UNL     1      32.631 -12.237 -22.661  0.00  0.00    +0.341 C 
BRANCH  16  17
ATOM     17  O   UNL     1      32.705 -10.921 -23.012  0.00  0.00    -0.448 OA
BRANCH  17  18
ATOM     18  C   UNL     1      31.719 -10.070 -22.418  0.00  0.00    +0.187 C 
BRANCH  18  19
ATOM     19  C   UNL     1      32.386  -8.823 -21.873  0.00  0.00    -0.025 C 
BRANCH  19  20
ATOM     20  N   UNL     1      32.130  -7.687 -22.794  0.00  0.00    +0.394 N 
ATOM     21  C   UNL     1      30.812  -7.890 -23.555  0.00  0.00    -0.095 C 
BRANCH  20  22
ATOM     22  C   UNL     1      32.035  -6.367 -22.017  0.00  0.00    -0.054 C 
ATOM     23  C   UNL     1      32.278  -6.655 -20.545  0.00  0.00    -0.022 C 
ATOM     24  C   UNL     1      30.665  -5.758 -22.267  0.00  0.00    -0.022 C 
ENDBRANCH  20  22
BRANCH  20  25
ATOM     25  C   UNL     1      33.260  -7.556 -23.824  0.00  0.00    -0.054 C 
ATOM     26  C   UNL     1      34.590  -7.691 -23.100  0.00  0.00    -0.022 C 
ATOM     27  C   UNL     1      33.119  -6.214 -24.525  0.00  0.00    -0.022 C 
ENDBRANCH  20  25
ENDBRANCH  19  20
ENDBRANCH  18  19
ENDBRANCH  17  18
ENDBRANCH  16  17
ENDBRANCH   2  16
TORSDOF 7
ENDMDL
MODEL 3
REMARK VINA RESULT:      -8.4      0.695      1.874
REMARK  Name = 4934
REMARK  7 active torsions:
REMARK  status: ('A' for Active; 'I' for Inactive)
REMARK    1  A    between atoms: C_2  and  C_16
REMARK    2  A    between atoms: C_16  and  O_17
REMARK    3  A    between atoms: O_17  and  C_18
REMARK    4  A    between atoms: C_18  and  C_19
REMARK    5  A    between atoms: C_19  and  N_20
REMARK    6  A    between atoms: N_20  and  C_22
REMARK    7  A    between atoms: N_20  and  C_25
REMARK                            x       y       z     vdW  Elec       q    Type
REMARK                         _______ _______ _______ _____ _____    ______ ____
ROOT
ATOM      1  O   UNL     1      33.344 -11.034 -24.429  0.00  0.00    -0.470 OA
ATOM      2  C   UNL     1      32.446 -13.499 -23.138  0.00  0.00    +0.078 C 
ATOM      3  C   UNL     1      32.275 -12.132 -22.528  0.00  0.00    +0.040 C 
ATOM      4  C   UNL     1      32.887 -13.428 -24.577  0.00  0.00    +0.028 C 
ATOM      5  C   UNL     1      32.742 -10.993 -23.193  0.00  0.00    +0.139 C 
ATOM      6  C   UNL     1      33.319 -12.217 -25.128  0.00  0.00    +0.210 C 
ATOM      7  C   UNL     1      31.660 -11.982 -21.276  0.00  0.00    +0.003 C 
ATOM      8  C   UNL     1      32.886 -14.578 -25.381  0.00  0.00    -0.000 C 
ATOM      9  C   UNL     1      32.611  -9.729 -22.613  0.00  0.00    +0.037 C 
ATOM     10  C   UNL     1      33.757 -12.159 -26.455  0.00  0.00    +0.021 C 
ATOM     11  C   UNL     1      31.523 -10.719 -20.699  0.00  0.00    +0.000 C 
ATOM     12  C   UNL     1      33.317 -14.517 -26.706  0.00  0.00    -0.000 C 
ATOM     13  C   UNL     1      32.000  -9.593 -21.367  0.00  0.00    +0.003 C 
ATOM     14  C   UNL     1      33.754 -13.308 -27.242  0.00  0.00    -0.001 C 
ENDROOT
BRANCH   2  16
ATOM     15  O   UNL     1      34.564 -13.943 -22.077  0.00  0.00    -0.245 OA
ATOM     16  C   UNL     1      33.425 -14.307 -22.336  0.00  0.00    +0.341 C 
BRANCH  16  17
ATOM     17  O   UNL     1      32.843 -15.481 -21.958  0.00  0.00    -0.448 OA
BRANCH  17  18
ATOM     18  C   UNL     1      33.642 -16.319 -21.116  0.00  0.00    +0.187 C 
BRANCH  18  19
ATOM     19  C   UNL     1      34.966 -16.607 -21.796  0.00  0.00    -0.025 C 
BRANCH  19  20
ATOM     20  N   UNL     1      35.095 -18.069 -22.020  0.00  0.00    +0.394 N 
ATOM     21  C   UNL     1      33.791 -18.792 -21.655  0.00  0.00    -0.095 C 
BRANCH  20  22
ATOM     22  C   UNL     1      35.412 -18.368 -23.491  0.00  0.00    -0.054 C 
ATOM     23  C   UNL     1      35.131 -17.118 -24.309  0.00  0.00    -0.022 C 
ATOM     24  C   UNL     1      34.565 -19.550 -23.936  0.00  0.00    -0.022 C 
ENDBRANCH  20  22
BRANCH  20  25
ATOM     25  C   UNL     1      36.223 -18.654 -21.159  0.00  0.00    -0.054 C 
ATOM     26  C   UNL     1      37.477 -18.756 -22.011  0.00  0.00    -0.022 C 
ATOM     27  C   UNL     1      35.773 -20.008 -20.632  0.00  0.00    -0.022 C 
ENDBRANCH  20  25
ENDBRANCH  19  20
ENDBRANCH  18  19
ENDBRANCH  17  18
ENDBRANCH  16  17
ENDBRANCH   2  16
TORSDOF 7
ENDMDL
MODEL 4
REMARK VINA RESULT:      -8.3      9.363     12.634
REMARK  Name = 4934
REMARK  7 active torsions:
REMARK  status: ('A' for Active; 'I' for Inactive)
REMARK    1  A    between atoms: C_2  and  C_16
REMARK    2  A    between atoms: C_16  and  O_17
REMARK    3  A    between atoms: O_17  and  C_18
REMARK    4  A    between atoms: C_18  and  C_19
REMARK    5  A    between atoms: C_19  and  N_20
REMARK    6  A    between atoms: N_20  and  C_22
REMARK    7  A    between atoms: N_20  and  C_25
REMARK                            x       y       z     vdW  Elec       q    Type
REMARK                         _______ _______ _______ _____ _____    ______ ____
ROOT
ATOM      1  O   UNL     1      32.354 -22.874 -17.934  0.00  0.00    -0.470 OA
ATOM      2  C   UNL     1      34.206 -22.922 -15.671  0.00  0.00    +0.078 C 
ATOM      3  C   UNL     1      34.608 -22.516 -17.065  0.00  0.00    +0.040 C 
ATOM      4  C   UNL     1      32.712 -23.045 -15.524  0.00  0.00    +0.028 C 
ATOM      5  C   UNL     1      33.674 -22.530 -18.107  0.00  0.00    +0.139 C 
ATOM      6  C   UNL     1      31.883 -23.029 -16.651  0.00  0.00    +0.210 C 
ATOM      7  C   UNL     1      35.929 -22.134 -17.343  0.00  0.00    +0.003 C 
ATOM      8  C   UNL     1      32.130 -23.194 -14.256  0.00  0.00    -0.000 C 
ATOM      9  C   UNL     1      34.055 -22.183 -19.406  0.00  0.00    +0.037 C 
ATOM     10  C   UNL     1      30.499 -23.174 -16.516  0.00  0.00    +0.021 C 
ATOM     11  C   UNL     1      36.308 -21.781 -18.639  0.00  0.00    +0.000 C 
ATOM     12  C   UNL     1      30.748 -23.333 -14.121  0.00  0.00    -0.000 C 
ATOM     13  C   UNL     1      35.371 -21.808 -19.670  0.00  0.00    +0.003 C 
ATOM     14  C   UNL     1      29.933 -23.324 -15.252  0.00  0.00    -0.001 C 
ENDROOT
BRANCH   2  16
ATOM     15  O   UNL     1      34.870 -25.216 -15.996  0.00  0.00    -0.245 OA
ATOM     16  C   UNL     1      34.871 -24.214 -15.294  0.00  0.00    +0.341 C 
BRANCH  16  17
ATOM     17  O   UNL     1      35.459 -24.082 -14.071  0.00  0.00    -0.448 OA
BRANCH  17  18
ATOM     18  C   UNL     1      36.721 -23.406 -14.065  0.00  0.00    +0.187 C 
BRANCH  18  19
ATOM     19  C   UNL     1      37.756 -24.256 -14.775  0.00  0.00    -0.025 C 
BRANCH  19  20
ATOM     20  N   UNL     1      38.584 -24.965 -13.766  0.00  0.00    +0.394 N 
ATOM     21  C   UNL     1      38.517 -24.251 -12.409  0.00  0.00    -0.095 C 
BRANCH  20  22
ATOM     22  C   UNL     1      38.092 -26.405 -13.573  0.00  0.00    -0.054 C 
ATOM     23  C   UNL     1      37.352 -26.834 -14.830  0.00  0.00    -0.022 C 
ATOM     24  C   UNL     1      37.205 -26.451 -12.339  0.00  0.00    -0.022 C 
ENDBRANCH  20  22
BRANCH  20  25
ATOM     25  C   UNL     1      40.053 -25.016 -14.206  0.00  0.00    -0.054 C 
ATOM     26  C   UNL     1      40.126 -24.669 -15.684  0.00  0.00    -0.022 C 
ATOM     27  C   UNL     1      40.595 -26.407 -13.914  0.00  0.00    -0.022 C 
ENDBRANCH  20  25
ENDBRANCH  19  20
ENDBRANCH  18  19
ENDBRANCH  17  18
ENDBRANCH  16  17
ENDBRANCH   2  16
TORSDOF 7
ENDMDL
MODEL 5
REMARK VINA RESULT:      -8.3      2.824      8.116
REMARK  Name = 4934
REMARK  7 active torsions:
REMARK  status: ('A' for Active; 'I' for Inactive)
REMARK    1  A    between atoms: C_2  and  C_16
REMARK    2  A    between atoms: C_16  and  O_17
REMARK    3  A    between atoms: O_17  and  C_18
REMARK    4  A    between atoms: C_18  and  C_19
REMARK    5  A    between atoms: C_19  and  N_20
REMARK    6  A    between atoms: N_20  and  C_22
REMARK    7  A    between atoms: N_20  and  C_25
REMARK                            x       y       z     vdW  Elec       q    Type
REMARK                         _______ _______ _______ _____ _____    ______ ____
ROOT
ATOM      1  O   UNL     1      33.819 -14.827 -21.703  0.00  0.00    -0.470 OA
ATOM      2  C   UNL     1      32.701 -13.371 -23.978  0.00  0.00    +0.078 C 
ATOM      3  C   UNL     1      33.466 -14.662 -24.113  0.00  0.00    +0.040 C 
ATOM      4  C   UNL     1      32.359 -13.060 -22.545  0.00  0.00    +0.028 C 
ATOM      5  C   UNL     1      33.988 -15.300 -22.983  0.00  0.00    +0.139 C 
ATOM      6  C   UNL     1      32.942 -13.788 -21.502  0.00  0.00    +0.210 C 
ATOM      7  C   UNL     1      33.680 -15.234 -25.376  0.00  0.00    +0.003 C 
ATOM      8  C   UNL     1      31.463 -12.026 -22.233  0.00  0.00    -0.000 C 
ATOM      9  C   UNL     1      34.725 -16.481 -23.112  0.00  0.00    +0.037 C 
ATOM     10  C   UNL     1      32.647 -13.478 -20.170  0.00  0.00    +0.021 C 
ATOM     11  C   UNL     1      34.410 -16.417 -25.504  0.00  0.00    +0.000 C 
ATOM     12  C   UNL     1      31.165 -11.723 -20.905  0.00  0.00    -0.000 C 
ATOM     13  C   UNL     1      34.933 -17.039 -24.372  0.00  0.00    +0.003 C 
ATOM     14  C   UNL     1      31.759 -12.448 -19.874  0.00  0.00    -0.001 C 
ENDROOT
BRANCH   2  16
ATOM     15  O   UNL     1      33.747 -12.147 -25.772  0.00  0.00    -0.245 OA
ATOM     16  C   UNL     1      33.481 -12.239 -24.581  0.00  0.00    +0.341 C 
BRANCH  16  17
ATOM     17  O   UNL     1      33.832 -11.357 -23.602  0.00  0.00    -0.448 OA
BRANCH  17  18
ATOM     18  C   UNL     1      33.879  -9.983 -24.001  0.00  0.00    +0.187 C 
BRANCH  18  19
ATOM     19  C   UNL     1      32.784  -9.210 -23.294  0.00  0.00    -0.025 C 
BRANCH  19  20
ATOM     20  N   UNL     1      33.266  -7.837 -22.998  0.00  0.00    +0.394 N 
ATOM     21  C   UNL     1      34.745  -7.685 -23.383  0.00  0.00    -0.095 C 
BRANCH  20  22
ATOM     22  C   UNL     1      32.458  -6.795 -23.782  0.00  0.00    -0.054 C 
ATOM     23  C   UNL     1      31.199  -7.461 -24.313  0.00  0.00    -0.022 C 
ATOM     24  C   UNL     1      33.333  -6.246 -24.898  0.00  0.00    -0.022 C 
ENDBRANCH  20  22
BRANCH  20  25
ATOM     25  C   UNL     1      33.128  -7.522 -21.502  0.00  0.00    -0.054 C 
ATOM     26  C   UNL     1      32.407  -8.680 -20.830  0.00  0.00    -0.022 C 
ATOM     27  C   UNL     1      32.373  -6.210 -21.354  0.00  0.00    -0.022 C 
ENDBRANCH  20  25
ENDBRANCH  19  20
ENDBRANCH  18  19
ENDBRANCH  17  18
ENDBRANCH  16  17
ENDBRANCH   2  16
TORSDOF 7
ENDMDL
MODEL 6
REMARK VINA RESULT:      -8.1      2.580      5.291
REMARK  Name = 4934
REMARK  7 active torsions:
REMARK  status: ('A' for Active; 'I' for Inactive)
REMARK    1  A    between atoms: C_2  and  C_16
REMARK    2  A    between atoms: C_16  and  O_17
REMARK    3  A    between atoms: O_17  and  C_18
REMARK    4  A    between atoms: C_18  and  C_19
REMARK    5  A    between atoms: C_19  and  N_20
REMARK    6  A    between atoms: N_20  and  C_22
REMARK    7  A    between atoms: N_20  and  C_25
REMARK                            x       y       z     vdW  Elec       q    Type
REMARK                         _______ _______ _______ _____ _____    ______ ____
ROOT
ATOM      1  O   UNL     1      32.100  -7.819 -20.579  0.00  0.00    -0.470 OA
ATOM      2  C   UNL     1      31.840  -9.501 -22.957  0.00  0.00    +0.078 C 
ATOM      3  C   UNL     1      31.770 -10.035 -21.550  0.00  0.00    +0.040 C 
ATOM      4  C   UNL     1      31.799  -7.996 -22.996  0.00  0.00    +0.028 C 
ATOM      5  C   UNL     1      31.917  -9.177 -20.455  0.00  0.00    +0.139 C 
ATOM      6  C   UNL     1      31.944  -7.251 -21.822  0.00  0.00    +0.210 C 
ATOM      7  C   UNL     1      31.571 -11.404 -21.316  0.00  0.00    +0.003 C 
ATOM      8  C   UNL     1      31.629  -7.319 -24.214  0.00  0.00    -0.000 C 
ATOM      9  C   UNL     1      31.882  -9.677 -19.151  0.00  0.00    +0.037 C 
ATOM     10  C   UNL     1      31.935  -5.853 -21.863  0.00  0.00    +0.021 C 
ATOM     11  C   UNL     1      31.529 -11.903 -20.014  0.00  0.00    +0.000 C 
ATOM     12  C   UNL     1      31.615  -5.925 -24.253  0.00  0.00    -0.000 C 
ATOM     13  C   UNL     1      31.687 -11.040 -18.932  0.00  0.00    +0.003 C 
ATOM     14  C   UNL     1      31.770  -5.192 -23.078  0.00  0.00    -0.001 C 
ENDROOT
BRANCH   2  16
ATOM     15  O   UNL     1      34.154  -9.417 -23.628  0.00  0.00    -0.245 OA
ATOM     16  C   UNL     1      33.079 -10.002 -23.640  0.00  0.00    +0.341 C 
BRANCH  16  17
ATOM     17  O   UNL     1      32.809 -11.187 -24.260  0.00  0.00    -0.448 OA
BRANCH  17  18
ATOM     18  C   UNL     1      33.937 -12.044 -24.464  0.00  0.00    +0.187 C 
BRANCH  18  19
ATOM     19  C   UNL     1      34.211 -12.835 -23.200  0.00  0.00    -0.025 C 
BRANCH  19  20
ATOM     20  N   UNL     1      33.649 -14.202 -23.345  0.00  0.00    +0.394 N 
ATOM     21  C   UNL     1      32.160 -14.142 -23.713  0.00  0.00    -0.095 C 
BRANCH  20  22
ATOM     22  C   UNL     1      34.383 -14.978 -24.446  0.00  0.00    -0.054 C 
ATOM     23  C   UNL     1      33.396 -15.278 -25.563  0.00  0.00    -0.022 C 
ATOM     24  C   UNL     1      34.966 -16.243 -23.838  0.00  0.00    -0.022 C 
ENDBRANCH  20  22
BRANCH  20  25
ATOM     25  C   UNL     1      33.785 -14.988 -22.034  0.00  0.00    -0.054 C 
ATOM     26  C   UNL     1      32.397 -15.202 -21.453  0.00  0.00    -0.022 C 
ATOM     27  C   UNL     1      34.688 -14.204 -21.094  0.00  0.00    -0.022 C 
ENDBRANCH  20  25
ENDBRANCH  19  20
ENDBRANCH  18  19
ENDBRANCH  17  18
ENDBRANCH  16  17
ENDBRANCH   2  16
TORSDOF 7
ENDMDL
MODEL 7
REMARK VINA RESULT:      -8.1      7.285     10.975
REMARK  Name = 4934
REMARK  7 active torsions:
REMARK  status: ('A' for Active; 'I' for Inactive)
REMARK    1  A    between atoms: C_2  and  C_16
REMARK    2  A    between atoms: C_16  and  O_17
REMARK    3  A    between atoms: O_17  and  C_18
REMARK    4  A    between atoms: C_18  and  C_19
REMARK    5  A    between atoms: C_19  and  N_20
REMARK    6  A    between atoms: N_20  and  C_22
REMARK    7  A    between atoms: N_20  and  C_25
REMARK                            x       y       z     vdW  Elec       q    Type
REMARK                         _______ _______ _______ _____ _____    ______ ____
ROOT
ATOM      1  O   UNL     1      36.812 -21.393 -18.834  0.00  0.00    -0.470 OA
ATOM      2  C   UNL     1      34.162 -22.219 -17.916  0.00  0.00    +0.078 C 
ATOM      3  C   UNL     1      35.418 -22.408 -17.105  0.00  0.00    +0.040 C 
ATOM      4  C   UNL     1      34.387 -21.337 -19.116  0.00  0.00    +0.028 C 
ATOM      5  C   UNL     1      36.658 -22.003 -17.612  0.00  0.00    +0.139 C 
ATOM      6  C   UNL     1      35.684 -20.991 -19.510  0.00  0.00    +0.210 C 
ATOM      7  C   UNL     1      35.365 -23.007 -15.838  0.00  0.00    +0.003 C 
ATOM      8  C   UNL     1      33.300 -20.862 -19.866  0.00  0.00    -0.000 C 
ATOM      9  C   UNL     1      37.826 -22.207 -16.873  0.00  0.00    +0.037 C 
ATOM     10  C   UNL     1      35.893 -20.198 -20.642  0.00  0.00    +0.021 C 
ATOM     11  C   UNL     1      36.531 -23.204 -15.097  0.00  0.00    +0.000 C 
ATOM     12  C   UNL     1      33.510 -20.065 -20.992  0.00  0.00    -0.000 C 
ATOM     13  C   UNL     1      37.761 -22.806 -15.616  0.00  0.00    +0.003 C 
ATOM     14  C   UNL     1      34.807 -19.735 -21.381  0.00  0.00    -0.001 C 
ENDROOT
BRANCH   2  16
ATOM     15  O   UNL     1      33.909 -24.102 -19.398  0.00  0.00    -0.245 OA
ATOM     16  C   UNL     1      33.617 -23.549 -18.346  0.00  0.00    +0.341 C 
BRANCH  16  17
ATOM     17  O   UNL     1      32.765 -24.023 -17.391  0.00  0.00    -0.448 OA
BRANCH  17  18
ATOM     18  C   UNL     1      31.934 -23.039 -16.768  0.00  0.00    +0.187 C 
BRANCH  18  19
ATOM     19  C   UNL     1      30.477 -23.420 -16.943  0.00  0.00    -0.025 C 
BRANCH  19  20
ATOM     20  N   UNL     1      29.861 -23.628 -15.609  0.00  0.00    +0.394 N 
ATOM     21  C   UNL     1      30.476 -22.679 -14.571  0.00  0.00    -0.095 C 
BRANCH  20  22
ATOM     22  C   UNL     1      28.350 -23.366 -15.659  0.00  0.00    -0.054 C 
ATOM     23  C   UNL     1      27.915 -23.334 -17.116  0.00  0.00    -0.022 C 
ATOM     24  C   UNL     1      28.063 -22.056 -14.944  0.00  0.00    -0.022 C 
ENDBRANCH  20  22
BRANCH  20  25
ATOM     25  C   UNL     1      30.080 -25.069 -15.127  0.00  0.00    -0.054 C 
ATOM     26  C   UNL     1      28.775 -25.586 -14.542  0.00  0.00    -0.022 C 
ATOM     27  C   UNL     1      31.208 -25.069 -14.108  0.00  0.00    -0.022 C 
ENDBRANCH  20  25
ENDBRANCH  19  20
ENDBRANCH  18  19
ENDBRANCH  17  18
ENDBRANCH  16  17
ENDBRANCH   2  16
TORSDOF 7
ENDMDL
MODEL 8
REMARK VINA RESULT:      -8.0      2.320      4.863
REMARK  Name = 4934
REMARK  7 active torsions:
REMARK  status: ('A' for Active; 'I' for Inactive)
REMARK    1  A    between atoms: C_2  and  C_16
REMARK    2  A    between atoms: C_16  and  O_17
REMARK    3  A    between atoms: O_17  and  C_18
REMARK    4  A    between atoms: C_18  and  C_19
REMARK    5  A    between atoms: C_19  and  N_20
REMARK    6  A    between atoms: N_20  and  C_22
REMARK    7  A    between atoms: N_20  and  C_25
REMARK                            x       y       z     vdW  Elec       q    Type
REMARK                         _______ _______ _______ _____ _____    ______ ____
ROOT
ATOM      1  O   UNL     1      32.092  -7.627 -20.729  0.00  0.00    -0.470 OA
ATOM      2  C   UNL     1      31.809  -9.546 -22.916  0.00  0.00    +0.078 C 
ATOM      3  C   UNL     1      31.743  -9.930 -21.461  0.00  0.00    +0.040 C 
ATOM      4  C   UNL     1      31.776  -8.053 -23.112  0.00  0.00    +0.028 C 
ATOM      5  C   UNL     1      31.902  -8.963 -20.463  0.00  0.00    +0.139 C 
ATOM      6  C   UNL     1      31.932  -7.190 -22.023  0.00  0.00    +0.210 C 
ATOM      7  C   UNL     1      31.538 -11.266 -21.084  0.00  0.00    +0.003 C 
ATOM      8  C   UNL     1      31.603  -7.506 -24.393  0.00  0.00    -0.000 C 
ATOM      9  C   UNL     1      31.872  -9.323 -19.113  0.00  0.00    +0.037 C 
ATOM     10  C   UNL     1      31.931  -5.804 -22.211  0.00  0.00    +0.021 C 
ATOM     11  C   UNL     1      31.501 -11.625 -19.737  0.00  0.00    +0.000 C 
ATOM     12  C   UNL     1      31.596  -6.124 -24.578  0.00  0.00    -0.000 C 
ATOM     13  C   UNL     1      31.670 -10.655 -18.752  0.00  0.00    +0.003 C 
ATOM     14  C   UNL     1      31.762  -5.273 -23.487  0.00  0.00    -0.001 C 
ENDROOT
BRANCH   2  16
ATOM     15  O   UNL     1      34.138  -9.583 -23.535  0.00  0.00    -0.245 OA
ATOM     16  C   UNL     1      33.040 -10.124 -23.550  0.00  0.00    +0.341 C 
BRANCH  16  17
ATOM     17  O   UNL     1      32.735 -11.321 -24.129  0.00  0.00    -0.448 OA
BRANCH  17  18
ATOM     18  C   UNL     1      33.527 -12.432 -23.697  0.00  0.00    +0.187 C 
BRANCH  18  19
ATOM     19  C   UNL     1      32.659 -13.672 -23.608  0.00  0.00    -0.025 C 
BRANCH  19  20
ATOM     20  N   UNL     1      33.525 -14.867 -23.452  0.00  0.00    +0.394 N 
ATOM     21  C   UNL     1      34.991 -14.455 -23.257  0.00  0.00    -0.095 C 
BRANCH  20  22
ATOM     22  C   UNL     1      33.096 -15.695 -22.233  0.00  0.00    -0.054 C 
ATOM     23  C   UNL     1      32.329 -14.791 -21.282  0.00  0.00    -0.022 C 
ATOM     24  C   UNL     1      34.340 -16.286 -21.589  0.00  0.00    -0.022 C 
ENDBRANCH  20  22
BRANCH  20  25
ATOM     25  C   UNL     1      33.443 -15.765 -24.693  0.00  0.00    -0.054 C 
ATOM     26  C   UNL     1      34.787 -16.450 -24.884  0.00  0.00    -0.022 C 
ATOM     27  C   UNL     1      33.061 -14.904 -25.887  0.00  0.00    -0.022 C 
ENDBRANCH  20  25
ENDBRANCH  19  20
ENDBRANCH  18  19
ENDBRANCH  17  18
ENDBRANCH  16  17
ENDBRANCH   2  16
TORSDOF 7
ENDMDL
MODEL 9
REMARK VINA RESULT:      -7.8      9.748     12.697
REMARK  Name = 4934
REMARK  7 active torsions:
REMARK  status: ('A' for Active; 'I' for Inactive)
REMARK    1  A    between atoms: C_2  and  C_16
REMARK    2  A    between atoms: C_16  and  O_17
REMARK    3  A    between atoms: O_17  and  C_18
REMARK    4  A    between atoms: C_18  and  C_19
REMARK    5  A    between atoms: C_19  and  N_20
REMARK    6  A    between atoms: N_20  and  C_22
REMARK    7  A    between atoms: N_20  and  C_25
REMARK                            x       y       z     vdW  Elec       q    Type
REMARK                         _______ _______ _______ _____ _____    ______ ____
ROOT
ATOM      1  O   UNL     1      31.035 -22.627 -17.373  0.00  0.00    -0.470 OA
ATOM      2  C   UNL     1      32.422 -24.102 -15.263  0.00  0.00    +0.078 C 
ATOM      3  C   UNL     1      30.931 -24.163 -15.478  0.00  0.00    +0.040 C 
ATOM      4  C   UNL     1      33.131 -23.414 -16.400  0.00  0.00    +0.028 C 
ATOM      5  C   UNL     1      30.329 -23.419 -16.498  0.00  0.00    +0.139 C 
ATOM      6  C   UNL     1      32.407 -22.713 -17.369  0.00  0.00    +0.210 C 
ATOM      7  C   UNL     1      30.124 -24.955 -14.647  0.00  0.00    +0.003 C 
ATOM      8  C   UNL     1      34.531 -23.454 -16.495  0.00  0.00    -0.000 C 
ATOM      9  C   UNL     1      28.944 -23.452 -16.677  0.00  0.00    +0.037 C 
ATOM     10  C   UNL     1      33.069 -22.049 -18.407  0.00  0.00    +0.021 C 
ATOM     11  C   UNL     1      28.741 -24.993 -14.830  0.00  0.00    +0.000 C 
ATOM     12  C   UNL     1      35.190 -22.797 -17.534  0.00  0.00    -0.000 C 
ATOM     13  C   UNL     1      28.151 -24.240 -15.843  0.00  0.00    +0.003 C 
ATOM     14  C   UNL     1      34.459 -22.093 -18.489  0.00  0.00    -0.001 C 
ENDROOT
BRANCH   2  16
ATOM     15  O   UNL     1      32.381 -22.272 -13.696  0.00  0.00    -0.245 OA
ATOM     16  C   UNL     1      32.731 -23.412 -13.967  0.00  0.00    +0.341 C 
BRANCH  16  17
ATOM     17  O   UNL     1      33.449 -24.251 -13.166  0.00  0.00    -0.448 OA
BRANCH  17  18
ATOM     18  C   UNL     1      34.825 -23.899 -12.984  0.00  0.00    +0.187 C 
BRANCH  18  19
ATOM     19  C   UNL     1      35.705 -25.067 -13.382  0.00  0.00    -0.025 C 
BRANCH  19  20
ATOM     20  N   UNL     1      37.057 -24.564 -13.736  0.00  0.00    +0.394 N 
ATOM     21  C   UNL     1      37.037 -23.041 -13.929  0.00  0.00    -0.095 C 
BRANCH  20  22
ATOM     22  C   UNL     1      38.068 -24.893 -12.630  0.00  0.00    -0.054 C 
ATOM     23  C   UNL     1      37.523 -26.050 -11.808  0.00  0.00    -0.022 C 
ATOM     24  C   UNL     1      38.289 -23.645 -11.792  0.00  0.00    -0.022 C 
ENDBRANCH  20  22
BRANCH  20  25
ATOM     25  C   UNL     1      37.551 -25.203 -15.041  0.00  0.00    -0.054 C 
ATOM     26  C   UNL     1      36.790 -26.501 -15.261  0.00  0.00    -0.022 C 
ATOM     27  C   UNL     1      39.051 -25.426 -14.930  0.00  0.00    -0.022 C 
ENDBRANCH  20  25
ENDBRANCH  19  20
ENDBRANCH  18  19
ENDBRANCH  17  18
ENDBRANCH  16  17
ENDBRANCH   2  16
TORSDOF 7
ENDMDL
