MODEL 1
REMARK VINA RESULT:      -9.6      0.000      0.000
REMARK  Name = 23897
REMARK  3 active torsions:
REMARK  status: ('A' for Active; 'I' for Inactive)
REMARK    1  A    between atoms: C_3  and  C_15
REMARK    2  A    between atoms: C_9  and  C_13
REMARK    3  A    between atoms: C_15  and  N_17
REMARK                            x       y       z     vdW  Elec       q    Type
REMARK                         _______ _______ _______ _____ _____    ______ ____
ROOT
ATOM      1  O   UNL     1      37.015 -19.766 -20.455  0.00  0.00    -0.291 OA
ATOM      2  N   UNL     1      33.114 -21.770 -19.193  0.00  0.00    -0.360 N 
ATOM      3  C   UNL     1      35.035 -18.840 -21.522  0.00  0.00    +0.042 C 
ATOM      4  C   UNL     1      33.747 -19.481 -22.089  0.00  0.00    +0.012 C 
ATOM      5  C   UNL     1      32.816 -20.002 -20.981  0.00  0.00    +0.044 C 
ATOM      6  C   UNL     1      34.980 -20.744 -19.841  0.00  0.00    +0.043 A 
ATOM      7  C   UNL     1      33.616 -20.815 -20.032  0.00  0.00    +0.036 A 
ATOM      8  C   UNL     1      35.796 -19.810 -20.596  0.00  0.00    +0.171 C 
ATOM      9  C   UNL     1      35.317 -21.701 -18.856  0.00  0.00    -0.007 A 
ATOM     10  C   UNL     1      34.144 -22.320 -18.472  0.00  0.00    +0.030 A 
ATOM     11  C   UNL     1      33.893 -23.389 -17.485  0.00  0.00    +0.049 C 
ATOM     12  H   UNL     1      32.165 -22.023 -19.119  0.00  0.00    +0.165 HD
ENDROOT
BRANCH   9  13
ATOM     13  C   UNL     1      36.665 -21.994 -18.326  0.00  0.00    +0.028 C 
ATOM     14  C   UNL     1      36.866 -21.479 -16.897  0.00  0.00    +0.005 C 
ENDBRANCH   9  13
BRANCH   3  15
ATOM     15  C   UNL     1      35.931 -18.362 -22.661  0.00  0.00    -0.069 C 
BRANCH  15  17
ATOM     16  O   UNL     1      33.522 -15.067 -23.637  0.00  0.00    -0.358 OA
ATOM     17  N   UNL     1      35.508 -17.039 -23.115  0.00  0.00    +0.391 N 
ATOM     18  C   UNL     1      34.598 -17.149 -24.264  0.00  0.00    -0.045 C 
ATOM     19  C   UNL     1      34.855 -16.298 -22.027  0.00  0.00    -0.045 C 
ATOM     20  C   UNL     1      34.160 -15.757 -24.713  0.00  0.00    +0.119 C 
ATOM     21  C   UNL     1      34.409 -14.927 -22.527  0.00  0.00    +0.119 C 
ATOM     22  H   UNL     1      36.339 -16.526 -23.405  0.00  0.00    -0.079 HD
ENDBRANCH  15  17
ENDBRANCH   3  15
TORSDOF 3
ENDMDL
MODEL 2
REMARK VINA RESULT:      -9.2      2.018      6.831
REMARK  Name = 23897
REMARK  3 active torsions:
REMARK  status: ('A' for Active; 'I' for Inactive)
REMARK    1  A    between atoms: C_3  and  C_15
REMARK    2  A    between atoms: C_9  and  C_13
REMARK    3  A    between atoms: C_15  and  N_17
REMARK                            x       y       z     vdW  Elec       q    Type
REMARK                         _______ _______ _______ _____ _____    ______ ____
ROOT
ATOM      1  O   UNL     1      35.279 -16.167 -21.258  0.00  0.00    -0.291 OA
ATOM      2  N   UNL     1      33.803 -16.428 -25.569  0.00  0.00    -0.360 N 
ATOM      3  C   UNL     1      35.869 -18.241 -22.384  0.00  0.00    +0.042 C 
ATOM      4  C   UNL     1      35.105 -19.162 -23.364  0.00  0.00    +0.012 C 
ATOM      5  C   UNL     1      34.955 -18.533 -24.760  0.00  0.00    +0.044 C 
ATOM      6  C   UNL     1      34.560 -16.358 -23.476  0.00  0.00    +0.043 A 
ATOM      7  C   UNL     1      34.454 -17.145 -24.604  0.00  0.00    +0.036 A 
ATOM      8  C   UNL     1      35.211 -16.850 -22.276  0.00  0.00    +0.171 C 
ATOM      9  C   UNL     1      33.939 -15.121 -23.768  0.00  0.00    -0.007 A 
ATOM     10  C   UNL     1      33.481 -15.192 -25.068  0.00  0.00    +0.030 A 
ATOM     11  C   UNL     1      32.762 -14.202 -25.895  0.00  0.00    +0.049 C 
ATOM     12  H   UNL     1      33.597 -16.749 -26.477  0.00  0.00    +0.165 HD
ENDROOT
BRANCH   9  13
ATOM     13  C   UNL     1      33.801 -13.962 -22.862  0.00  0.00    +0.028 C 
ATOM     14  C   UNL     1      32.520 -14.012 -22.023  0.00  0.00    +0.005 C 
ENDBRANCH   9  13
BRANCH   3  15
ATOM     15  C   UNL     1      35.969 -18.901 -21.011  0.00  0.00    -0.069 C 
BRANCH  15  17
ATOM     16  O   UNL     1      33.029 -21.461 -19.457  0.00  0.00    -0.358 OA
ATOM     17  N   UNL     1      34.985 -19.975 -20.895  0.00  0.00    +0.391 N 
ATOM     18  C   UNL     1      35.364 -20.916 -19.832  0.00  0.00    -0.045 C 
ATOM     19  C   UNL     1      33.646 -19.430 -20.632  0.00  0.00    -0.045 C 
ATOM     20  C   UNL     1      34.316 -22.021 -19.721  0.00  0.00    +0.119 C 
ATOM     21  C   UNL     1      32.639 -20.570 -20.501  0.00  0.00    +0.119 C 
ATOM     22  H   UNL     1      34.964 -20.477 -21.782  0.00  0.00    -0.079 HD
ENDBRANCH  15  17
ENDBRANCH   3  15
TORSDOF 3
ENDMDL
MODEL 3
REMARK VINA RESULT:      -9.1      5.050      9.345
REMARK  Name = 23897
REMARK  3 active torsions:
REMARK  status: ('A' for Active; 'I' for Inactive)
REMARK    1  A    between atoms: C_3  and  C_15
REMARK    2  A    between atoms: C_9  and  C_13
REMARK    3  A    between atoms: C_15  and  N_17
REMARK                            x       y       z     vdW  Elec       q    Type
REMARK                         _______ _______ _______ _____ _____    ______ ____
ROOT
ATOM      1  O   UNL     1      31.892 -13.247 -22.691  0.00  0.00    -0.291 OA
ATOM      2  N   UNL     1      33.324  -8.925 -23.006  0.00  0.00    -0.360 N 
ATOM      3  C   UNL     1      33.656 -12.905 -24.331  0.00  0.00    +0.042 C 
ATOM      4  C   UNL     1      33.940 -11.779 -25.352  0.00  0.00    +0.012 C 
ATOM      5  C   UNL     1      34.418 -10.482 -24.676  0.00  0.00    +0.044 C 
ATOM      6  C   UNL     1      32.678 -11.053 -22.893  0.00  0.00    +0.043 A 
ATOM      7  C   UNL     1      33.499 -10.165 -23.555  0.00  0.00    +0.036 A 
ATOM      8  C   UNL     1      32.645 -12.458 -23.255  0.00  0.00    +0.171 C 
ATOM      9  C   UNL     1      31.972 -10.320 -21.910  0.00  0.00    -0.007 A 
ATOM     10  C   UNL     1      32.392  -9.008 -22.002  0.00  0.00    +0.030 A 
ATOM     11  C   UNL     1      31.998  -7.811 -21.231  0.00  0.00    +0.049 C 
ATOM     12  H   UNL     1      33.792  -8.105 -23.286  0.00  0.00    +0.165 HD
ENDROOT
BRANCH   9  13
ATOM     13  C   UNL     1      30.973 -10.846 -20.957  0.00  0.00    +0.028 C 
ATOM     14  C   UNL     1      31.585 -11.237 -19.609  0.00  0.00    +0.005 C 
ENDBRANCH   9  13
BRANCH   3  15
ATOM     15  C   UNL     1      33.164 -14.157 -25.050  0.00  0.00    -0.069 C 
BRANCH  15  17
ATOM     16  O   UNL     1      35.527 -17.270 -23.520  0.00  0.00    -0.358 OA
ATOM     17  N   UNL     1      33.581 -15.354 -24.321  0.00  0.00    +0.391 N 
ATOM     18  C   UNL     1      34.073 -16.383 -25.248  0.00  0.00    -0.045 C 
ATOM     19  C   UNL     1      34.618 -15.028 -23.333  0.00  0.00    -0.045 C 
ATOM     20  C   UNL     1      34.513 -17.617 -24.464  0.00  0.00    +0.119 C 
ATOM     21  C   UNL     1      35.047 -16.294 -22.595  0.00  0.00    +0.119 C 
ATOM     22  H   UNL     1      32.766 -15.720 -23.830  0.00  0.00    -0.079 HD
ENDBRANCH  15  17
ENDBRANCH   3  15
TORSDOF 3
ENDMDL
MODEL 4
REMARK VINA RESULT:      -9.1      4.285      9.130
REMARK  Name = 23897
REMARK  3 active torsions:
REMARK  status: ('A' for Active; 'I' for Inactive)
REMARK    1  A    between atoms: C_3  and  C_15
REMARK    2  A    between atoms: C_9  and  C_13
REMARK    3  A    between atoms: C_15  and  N_17
REMARK                            x       y       z     vdW  Elec       q    Type
REMARK                         _______ _______ _______ _____ _____    ______ ____
ROOT
ATOM      1  O   UNL     1      33.589 -23.286 -17.232  0.00  0.00    -0.291 OA
ATOM      2  N   UNL     1      36.898 -20.677 -18.983  0.00  0.00    -0.360 N 
ATOM      3  C   UNL     1      35.518 -23.021 -15.773  0.00  0.00    +0.042 C 
ATOM      4  C   UNL     1      37.041 -22.986 -16.038  0.00  0.00    +0.012 C 
ATOM      5  C   UNL     1      37.484 -21.690 -16.738  0.00  0.00    +0.044 C 
ATOM      6  C   UNL     1      35.317 -21.949 -18.068  0.00  0.00    +0.043 A 
ATOM      7  C   UNL     1      36.589 -21.446 -17.896  0.00  0.00    +0.036 A 
ATOM      8  C   UNL     1      34.708 -22.809 -17.069  0.00  0.00    +0.171 C 
ATOM      9  C   UNL     1      34.842 -21.473 -19.312  0.00  0.00    -0.007 A 
ATOM     10  C   UNL     1      35.838 -20.688 -19.856  0.00  0.00    +0.030 A 
ATOM     11  C   UNL     1      35.895 -19.941 -21.128  0.00  0.00    +0.049 C 
ATOM     12  H   UNL     1      37.744 -20.192 -19.118  0.00  0.00    +0.165 HD
ENDROOT
BRANCH   9  13
ATOM     13  C   UNL     1      33.527 -21.753 -19.926  0.00  0.00    +0.028 C 
ATOM     14  C   UNL     1      32.726 -20.482 -20.224  0.00  0.00    +0.005 C 
ENDBRANCH   9  13
BRANCH   3  15
ATOM     15  C   UNL     1      35.130 -24.334 -15.101  0.00  0.00    -0.069 C 
BRANCH  15  17
ATOM     16  O   UNL     1      36.449 -25.858 -11.419  0.00  0.00    -0.358 OA
ATOM     17  N   UNL     1      35.882 -24.506 -13.859  0.00  0.00    +0.391 N 
ATOM     18  C   UNL     1      34.995 -24.392 -12.693  0.00  0.00    -0.045 C 
ATOM     19  C   UNL     1      36.572 -25.803 -13.842  0.00  0.00    -0.045 C 
ATOM     20  C   UNL     1      35.799 -24.586 -11.410  0.00  0.00    +0.119 C 
ATOM     21  C   UNL     1      37.338 -25.965 -12.532  0.00  0.00    +0.119 C 
ATOM     22  H   UNL     1      36.580 -23.765 -13.811  0.00  0.00    -0.079 HD
ENDBRANCH  15  17
ENDBRANCH   3  15
TORSDOF 3
ENDMDL
MODEL 5
REMARK VINA RESULT:      -9.0      3.078      5.657
REMARK  Name = 23897
REMARK  3 active torsions:
REMARK  status: ('A' for Active; 'I' for Inactive)
REMARK    1  A    between atoms: C_3  and  C_15
REMARK    2  A    between atoms: C_9  and  C_13
REMARK    3  A    between atoms: C_15  and  N_17
REMARK                            x       y       z     vdW  Elec       q    Type
REMARK                         _______ _______ _______ _____ _____    ______ ____
ROOT
ATOM      1  O   UNL     1      34.583 -15.772 -24.622  0.00  0.00    -0.291 OA
ATOM      2  N   UNL     1      35.215 -17.645 -20.508  0.00  0.00    -0.360 N 
ATOM      3  C   UNL     1      34.260 -14.228 -22.770  0.00  0.00    +0.042 C 
ATOM      4  C   UNL     1      33.605 -14.376 -21.377  0.00  0.00    +0.012 C 
ATOM      5  C   UNL     1      34.453 -15.231 -20.420  0.00  0.00    +0.044 C 
ATOM      6  C   UNL     1      34.903 -16.669 -22.485  0.00  0.00    +0.043 A 
ATOM      7  C   UNL     1      34.846 -16.479 -21.120  0.00  0.00    +0.036 A 
ATOM      8  C   UNL     1      34.566 -15.599 -23.407  0.00  0.00    +0.171 C 
ATOM      9  C   UNL     1      35.313 -18.005 -22.706  0.00  0.00    -0.007 A 
ATOM     10  C   UNL     1      35.499 -18.584 -21.467  0.00  0.00    +0.030 A 
ATOM     11  C   UNL     1      35.922 -19.948 -21.092  0.00  0.00    +0.049 C 
ATOM     12  H   UNL     1      35.267 -17.787 -19.535  0.00  0.00    +0.165 HD
ENDROOT
BRANCH   9  13
ATOM     13  C   UNL     1      35.510 -18.668 -24.012  0.00  0.00    +0.028 C 
ATOM     14  C   UNL     1      34.195 -19.121 -24.654  0.00  0.00    +0.005 C 
ENDBRANCH   9  13
BRANCH   3  15
ATOM     15  C   UNL     1      33.369 -13.393 -23.685  0.00  0.00    -0.069 C 
BRANCH  15  17
ATOM     16  O   UNL     1      32.774  -9.238 -23.667  0.00  0.00    -0.358 OA
ATOM     17  N   UNL     1      33.474 -11.978 -23.336  0.00  0.00    +0.391 N 
ATOM     18  C   UNL     1      33.960 -11.193 -24.479  0.00  0.00    -0.045 C 
ATOM     19  C   UNL     1      32.178 -11.455 -22.881  0.00  0.00    -0.045 C 
ATOM     20  C   UNL     1      34.049  -9.718 -24.095  0.00  0.00    +0.119 C 
ATOM     21  C   UNL     1      32.308  -9.974 -22.535  0.00  0.00    +0.119 C 
ATOM     22  H   UNL     1      34.145 -11.892 -22.573  0.00  0.00    -0.079 HD
ENDBRANCH  15  17
ENDBRANCH   3  15
TORSDOF 3
ENDMDL
MODEL 6
REMARK VINA RESULT:      -8.9      4.083      6.792
REMARK  Name = 23897
REMARK  3 active torsions:
REMARK  status: ('A' for Active; 'I' for Inactive)
REMARK    1  A    between atoms: C_3  and  C_15
REMARK    2  A    between atoms: C_9  and  C_13
REMARK    3  A    between atoms: C_15  and  N_17
REMARK                            x       y       z     vdW  Elec       q    Type
REMARK                         _______ _______ _______ _____ _____    ______ ____
ROOT
ATOM      1  O   UNL     1      34.607 -14.217 -22.424  0.00  0.00    -0.291 OA
ATOM      2  N   UNL     1      33.876 -17.382 -25.629  0.00  0.00    -0.360 N 
ATOM      3  C   UNL     1      33.322 -13.420 -24.329  0.00  0.00    +0.042 C 
ATOM      4  C   UNL     1      33.429 -13.671 -25.851  0.00  0.00    +0.012 C 
ATOM      5  C   UNL     1      32.989 -15.092 -26.242  0.00  0.00    +0.044 C 
ATOM      6  C   UNL     1      34.188 -15.796 -24.098  0.00  0.00    +0.043 A 
ATOM      7  C   UNL     1      33.666 -16.062 -25.346  0.00  0.00    +0.036 A 
ATOM      8  C   UNL     1      34.114 -14.467 -23.520  0.00  0.00    +0.171 C 
ATOM      9  C   UNL     1      34.746 -17.002 -23.611  0.00  0.00    -0.007 A 
ATOM     10  C   UNL     1      34.538 -17.966 -24.577  0.00  0.00    +0.030 A 
ATOM     11  C   UNL     1      34.904 -19.396 -24.610  0.00  0.00    +0.049 C 
ATOM     12  H   UNL     1      33.598 -17.841 -26.454  0.00  0.00    +0.165 HD
ENDROOT
BRANCH   9  13
ATOM     13  C   UNL     1      35.425 -17.206 -22.314  0.00  0.00    +0.028 C 
ATOM     14  C   UNL     1      34.470 -17.670 -21.210  0.00  0.00    +0.005 C 
ENDBRANCH   9  13
BRANCH   3  15
ATOM     15  C   UNL     1      33.791 -12.007 -23.993  0.00  0.00    -0.069 C 
BRANCH  15  17
ATOM     16  O   UNL     1      31.379  -9.548 -21.595  0.00  0.00    -0.358 OA
ATOM     17  N   UNL     1      32.666 -11.201 -23.522  0.00  0.00    +0.391 N 
ATOM     18  C   UNL     1      32.110 -11.758 -22.281  0.00  0.00    -0.045 C 
ATOM     19  C   UNL     1      33.077  -9.806 -23.309  0.00  0.00    -0.045 C 
ATOM     20  C   UNL     1      30.946 -10.893 -21.802  0.00  0.00    +0.119 C 
ATOM     21  C   UNL     1      31.891  -8.988 -22.805  0.00  0.00    +0.119 C 
ATOM     22  H   UNL     1      31.944 -11.221 -24.241  0.00  0.00    -0.079 HD
ENDBRANCH  15  17
ENDBRANCH   3  15
TORSDOF 3
ENDMDL
MODEL 7
REMARK VINA RESULT:      -8.8      6.429     10.740
REMARK  Name = 23897
REMARK  3 active torsions:
REMARK  status: ('A' for Active; 'I' for Inactive)
REMARK    1  A    between atoms: C_3  and  C_15
REMARK    2  A    between atoms: C_9  and  C_13
REMARK    3  A    between atoms: C_15  and  N_17
REMARK                            x       y       z     vdW  Elec       q    Type
REMARK                         _______ _______ _______ _____ _____    ______ ____
ROOT
ATOM      1  O   UNL     1      34.825 -10.485 -24.080  0.00  0.00    -0.291 OA
ATOM      2  N   UNL     1      31.392  -8.192 -22.134  0.00  0.00    -0.360 N 
ATOM      3  C   UNL     1      32.947 -11.884 -23.421  0.00  0.00    +0.042 C 
ATOM      4  C   UNL     1      32.017 -11.885 -22.186  0.00  0.00    +0.012 C 
ATOM      5  C   UNL     1      31.037 -10.699 -22.189  0.00  0.00    +0.044 C 
ATOM      6  C   UNL     1      33.026  -9.367 -23.086  0.00  0.00    +0.043 A 
ATOM      7  C   UNL     1      31.799  -9.455 -22.464  0.00  0.00    +0.036 A 
ATOM      8  C   UNL     1      33.717 -10.554 -23.556  0.00  0.00    +0.171 C 
ATOM      9  C   UNL     1      33.380  -7.998 -23.125  0.00  0.00    -0.007 A 
ATOM     10  C   UNL     1      32.351  -7.295 -22.531  0.00  0.00    +0.030 A 
ATOM     11  C   UNL     1      32.179  -5.847 -22.296  0.00  0.00    +0.049 C 
ATOM     12  H   UNL     1      30.546  -7.964 -21.684  0.00  0.00    +0.165 HD
ENDROOT
BRANCH   9  13
ATOM     13  C   UNL     1      34.614  -7.415 -23.693  0.00  0.00    +0.028 C 
ATOM     14  C   UNL     1      34.364  -6.647 -24.994  0.00  0.00    +0.005 C 
ENDBRANCH   9  13
BRANCH   3  15
ATOM     15  C   UNL     1      33.912 -13.064 -23.356  0.00  0.00    -0.069 C 
BRANCH  15  17
ATOM     16  O   UNL     1      33.686 -15.922 -26.421  0.00  0.00    -0.358 OA
ATOM     17  N   UNL     1      33.434 -14.153 -24.205  0.00  0.00    +0.391 N 
ATOM     18  C   UNL     1      33.236 -13.689 -25.586  0.00  0.00    -0.045 C 
ATOM     19  C   UNL     1      34.373 -15.283 -24.184  0.00  0.00    -0.045 C 
ATOM     20  C   UNL     1      32.749 -14.845 -26.456  0.00  0.00    +0.119 C 
ATOM     21  C   UNL     1      33.860 -16.401 -25.087  0.00  0.00    +0.119 C 
ATOM     22  H   UNL     1      32.537 -14.468 -23.836  0.00  0.00    -0.079 HD
ENDBRANCH  15  17
ENDBRANCH   3  15
TORSDOF 3
ENDMDL
MODEL 8
REMARK VINA RESULT:      -8.8      7.171     11.011
REMARK  Name = 23897
REMARK  3 active torsions:
REMARK  status: ('A' for Active; 'I' for Inactive)
REMARK    1  A    between atoms: C_3  and  C_15
REMARK    2  A    between atoms: C_9  and  C_13
REMARK    3  A    between atoms: C_15  and  N_17
REMARK                            x       y       z     vdW  Elec       q    Type
REMARK                         _______ _______ _______ _____ _____    ______ ____
ROOT
ATOM      1  O   UNL     1      31.836  -9.192 -22.134  0.00  0.00    -0.291 OA
ATOM      2  N   UNL     1      34.053 -12.677 -24.073  0.00  0.00    -0.360 N 
ATOM      3  C   UNL     1      33.431  -8.523 -23.844  0.00  0.00    +0.042 C 
ATOM      4  C   UNL     1      34.848  -9.020 -24.215  0.00  0.00    +0.012 C 
ATOM      5  C   UNL     1      34.825 -10.406 -24.883  0.00  0.00    +0.044 C 
ATOM      6  C   UNL     1      32.998 -10.935 -23.175  0.00  0.00    +0.043 A 
ATOM      7  C   UNL     1      33.980 -11.313 -24.066  0.00  0.00    +0.036 A 
ATOM      8  C   UNL     1      32.686  -9.535 -22.950  0.00  0.00    +0.171 C 
ATOM      9  C   UNL     1      32.462 -12.118 -22.615  0.00  0.00    -0.007 A 
ATOM     10  C   UNL     1      33.132 -13.180 -23.189  0.00  0.00    +0.030 A 
ATOM     11  C   UNL     1      32.991 -14.636 -22.985  0.00  0.00    +0.049 C 
ATOM     12  H   UNL     1      34.668 -13.214 -24.625  0.00  0.00    +0.165 HD
ENDROOT
BRANCH   9  13
ATOM     13  C   UNL     1      31.387 -12.214 -21.605  0.00  0.00    +0.028 C 
ATOM     14  C   UNL     1      31.899 -12.041 -20.172  0.00  0.00    +0.005 C 
ENDBRANCH   9  13
BRANCH   3  15
ATOM     15  C   UNL     1      33.513  -7.158 -23.166  0.00  0.00    -0.069 C 
BRANCH  15  17
ATOM     16  O   UNL     1      30.672  -4.075 -23.367  0.00  0.00    -0.358 OA
ATOM     17  N   UNL     1      32.243  -6.448 -23.307  0.00  0.00    +0.391 N 
ATOM     18  C   UNL     1      31.919  -5.710 -22.078  0.00  0.00    -0.045 C 
ATOM     19  C   UNL     1      32.285  -5.527 -24.451  0.00  0.00    -0.045 C 
ATOM     20  C   UNL     1      30.597  -4.968 -22.254  0.00  0.00    +0.119 C 
ATOM     21  C   UNL     1      30.955  -4.788 -24.571  0.00  0.00    +0.119 C 
ATOM     22  H   UNL     1      31.514  -7.141 -23.474  0.00  0.00    -0.079 HD
ENDBRANCH  15  17
ENDBRANCH   3  15
TORSDOF 3
ENDMDL
MODEL 9
REMARK VINA RESULT:      -8.7      4.018      8.612
REMARK  Name = 23897
REMARK  3 active torsions:
REMARK  status: ('A' for Active; 'I' for Inactive)
REMARK    1  A    between atoms: C_3  and  C_15
REMARK    2  A    between atoms: C_9  and  C_13
REMARK    3  A    between atoms: C_15  and  N_17
REMARK                            x       y       z     vdW  Elec       q    Type
REMARK                         _______ _______ _______ _____ _____    ______ ____
ROOT
ATOM      1  O   UNL     1      36.566 -22.822 -16.825  0.00  0.00    -0.291 OA
ATOM      2  N   UNL     1      32.741 -21.780 -19.086  0.00  0.00    -0.360 N 
ATOM      3  C   UNL     1      34.552 -23.790 -15.864  0.00  0.00    +0.042 C 
ATOM      4  C   UNL     1      33.117 -23.250 -15.662  0.00  0.00    +0.012 C 
ATOM      5  C   UNL     1      32.342 -23.137 -16.986  0.00  0.00    +0.044 C 
ATOM      6  C   UNL     1      34.571 -22.334 -17.946  0.00  0.00    +0.043 A 
ATOM      7  C   UNL     1      33.196 -22.438 -17.978  0.00  0.00    +0.036 A 
ATOM      8  C   UNL     1      35.345 -22.939 -16.877  0.00  0.00    +0.171 C 
ATOM      9  C   UNL     1      34.961 -21.575 -19.074  0.00  0.00    -0.007 A 
ATOM     10  C   UNL     1      33.810 -21.247 -19.762  0.00  0.00    +0.030 A 
ATOM     11  C   UNL     1      33.614 -20.473 -21.004  0.00  0.00    +0.049 C 
ATOM     12  H   UNL     1      31.797 -21.701 -19.356  0.00  0.00    +0.165 HD
ENDROOT
BRANCH   9  13
ATOM     13  C   UNL     1      36.338 -21.199 -19.458  0.00  0.00    +0.028 C 
ATOM     14  C   UNL     1      36.398 -19.887 -20.246  0.00  0.00    +0.005 C 
ENDBRANCH   9  13
BRANCH   3  15
ATOM     15  C   UNL     1      35.282 -23.860 -14.526  0.00  0.00    -0.069 C 
BRANCH  15  17
ATOM     16  O   UNL     1      38.340 -26.662 -13.886  0.00  0.00    -0.358 OA
ATOM     17  N   UNL     1      36.526 -24.613 -14.669  0.00  0.00    +0.391 N 
ATOM     18  C   UNL     1      37.354 -24.486 -13.462  0.00  0.00    -0.045 C 
ATOM     19  C   UNL     1      36.250 -26.030 -14.943  0.00  0.00    -0.045 C 
ATOM     20  C   UNL     1      38.641 -25.289 -13.630  0.00  0.00    +0.119 C 
ATOM     21  C   UNL     1      37.563 -26.798 -15.075  0.00  0.00    +0.119 C 
ATOM     22  H   UNL     1      37.039 -24.223 -15.459  0.00  0.00    -0.079 HD
ENDBRANCH  15  17
ENDBRANCH   3  15
TORSDOF 3
ENDMDL
