MODEL 1
REMARK VINA RESULT:     -10.6      0.000      0.000
REMARK  Name = 444425
REMARK  13 active torsions:
REMARK  status: ('A' for Active; 'I' for Inactive)
REMARK    1  A    between atoms: CA_1  and  C_4
REMARK    2  A    between atoms: CA_1  and  N_18
REMARK    3  A    between atoms: CA_1  and  CB_35
REMARK    4  A    between atoms: N_3  and  CA_6
REMARK    5  A    between atoms: CA_6  and  CB_7
REMARK    6  A    between atoms: CA_6  and  C_14
REMARK    7  A    between atoms: CB_7  and  CG_8
REMARK    8  A    between atoms: C_14  and  O_15
REMARK    9  A    between atoms: C_19  and  CA_21
REMARK   10  A    between atoms: CA_21  and  N_24
REMARK   11  A    between atoms: C_25  and  O_27
REMARK   12  A    between atoms: O_27  and  C_28
REMARK   13  A    between atoms: C_28  and  C_29
REMARK                            x       y       z     vdW  Elec       q    Type
REMARK                         _______ _______ _______ _____ _____    ______ ____
ROOT
ATOM      1  CA  UNL     1      34.113 -11.944 -24.424  0.00  0.00    +0.148 C 
ENDROOT
BRANCH   1   4
ATOM      2  O   UNL     1      34.806  -9.664 -23.971  0.00  0.00    -0.273 OA
ATOM      3  N   UNL     1      32.758 -10.390 -23.156  0.00  0.00    -0.302 N 
ATOM      4  C   UNL     1      33.961 -10.546 -23.828  0.00  0.00    +0.240 C 
ATOM      5  H   UNL     1      32.149 -11.161 -23.098  0.00  0.00    +0.150 HD
BRANCH   3   6
ATOM      6  CA  UNL     1      32.357  -9.147 -22.537  0.00  0.00    +0.105 C 
BRANCH   6   7
ATOM      7  CB  UNL     1      31.199  -8.499 -23.313  0.00  0.00    +0.048 C 
BRANCH   7   8
ATOM      8  CG  UNL     1      31.352  -7.004 -23.463  0.00  0.00    -0.020 C 
ATOM      9  CD1 UNL     1      31.990  -6.478 -24.587  0.00  0.00    -0.004 C 
ATOM     10  CD2 UNL     1      30.855  -6.149 -22.479  0.00  0.00    -0.004 C 
ATOM     11  CE1 UNL     1      32.132  -5.098 -24.726  0.00  0.00    -0.000 C 
ATOM     12  CE2 UNL     1      30.996  -4.768 -22.619  0.00  0.00    -0.000 C 
ATOM     13  CZ  UNL     1      31.635  -4.242 -23.742  0.00  0.00    -0.000 C 
ENDBRANCH   7   8
ENDBRANCH   6   7
BRANCH   6  14
ATOM     14  C   UNL     1      31.955  -9.401 -21.083  0.00  0.00    +0.157 C 
BRANCH  14  15
ATOM     15  O   UNL     1      32.600  -8.451 -20.242  0.00  0.00    -0.380 OA
ATOM     16  H   UNL     1      32.170  -7.587 -20.341  0.00  0.00    +0.211 HD
ENDBRANCH  14  15
ENDBRANCH   6  14
ENDBRANCH   3   6
ENDBRANCH   1   4
BRANCH   1  18
ATOM     17  O   UNL     1      34.974 -14.548 -23.555  0.00  0.00    -0.273 OA
ATOM     18  N   UNL     1      33.377 -12.864 -23.595  0.00  0.00    -0.297 N 
ATOM     19  C   UNL     1      33.875 -14.107 -23.224  0.00  0.00    +0.241 C 
ATOM     20  H   UNL     1      32.482 -12.601 -23.278  0.00  0.00    +0.150 HD
BRANCH  19  21
ATOM     21  CA  UNL     1      32.919 -14.861 -22.309  0.00  0.00    +0.151 C 
ATOM     22  CB  UNL     1      32.461 -13.980 -21.158  0.00  0.00    +0.031 C 
BRANCH  21  24
ATOM     23  O   UNL     1      34.972 -15.021 -20.260  0.00  0.00    -0.226 OA
ATOM     24  N   UNL     1      33.597 -16.037 -21.830  0.00  0.00    -0.264 N 
ATOM     25  C   ACE A   0      34.566 -16.021 -20.846  0.00  0.00    +0.402 C 
ATOM     26  H   UNL     1      33.355 -16.904 -22.227  0.00  0.00    +0.153 HD
BRANCH  25  27
ATOM     27  O   UNL     1      35.015 -17.291 -20.615  0.00  0.00    -0.430 OA
BRANCH  27  28
ATOM     28  C   UNL     1      34.496 -18.304 -21.484  0.00  0.00    +0.237 C 
BRANCH  28  29
ATOM     29  C   UNL     1      34.485 -19.615 -20.755  0.00  0.00    +0.021 C 
ATOM     30  C   UNL     1      35.684 -20.275 -20.487  0.00  0.00    -0.001 C 
ATOM     31  C   UNL     1      33.274 -20.175 -20.343  0.00  0.00    -0.001 C 
ATOM     32  C   UNL     1      35.673 -21.495 -19.810  0.00  0.00    -0.000 C 
ATOM     33  C   UNL     1      33.264 -21.394 -19.665  0.00  0.00    -0.000 C 
ATOM     34  C   UNL     1      34.464 -22.053 -19.398  0.00  0.00    -0.000 C 
ENDBRANCH  28  29
ENDBRANCH  27  28
ENDBRANCH  25  27
ENDBRANCH  21  24
ENDBRANCH  19  21
ENDBRANCH   1  18
BRANCH   1  35
ATOM     35  CB  UNL     1      33.690 -11.995 -25.908  0.00  0.00    +0.027 C 
ATOM     36  CG1 UNL     1      34.815 -11.593 -26.867  0.00  0.00    +0.002 C 
ATOM     37  CG2 UNL     1      33.159 -13.383 -26.282  0.00  0.00    +0.002 C 
ENDBRANCH   1  35
TORSDOF 13
ENDMDL
MODEL 2
REMARK VINA RESULT:     -10.4      1.847      2.905
REMARK  Name = 444425
REMARK  13 active torsions:
REMARK  status: ('A' for Active; 'I' for Inactive)
REMARK    1  A    between atoms: CA_1  and  C_4
REMARK    2  A    between atoms: CA_1  and  N_18
REMARK    3  A    between atoms: CA_1  and  CB_35
REMARK    4  A    between atoms: N_3  and  CA_6
REMARK    5  A    between atoms: CA_6  and  CB_7
REMARK    6  A    between atoms: CA_6  and  C_14
REMARK    7  A    between atoms: CB_7  and  CG_8
REMARK    8  A    between atoms: C_14  and  O_15
REMARK    9  A    between atoms: C_19  and  CA_21
REMARK   10  A    between atoms: CA_21  and  N_24
REMARK   11  A    between atoms: C_25  and  O_27
REMARK   12  A    between atoms: O_27  and  C_28
REMARK   13  A    between atoms: C_28  and  C_29
REMARK                            x       y       z     vdW  Elec       q    Type
REMARK                         _______ _______ _______ _____ _____    ______ ____
ROOT
ATOM      1  CA  UNL     1      32.824 -12.952 -23.471  0.00  0.00    +0.148 C 
ENDROOT
BRANCH   1   4
ATOM      2  O   UNL     1      33.525 -12.131 -25.643  0.00  0.00    -0.273 OA
ATOM      3  N   UNL     1      33.841 -10.778 -23.784  0.00  0.00    -0.302 N 
ATOM      4  C   UNL     1      33.439 -11.937 -24.433  0.00  0.00    +0.240 C 
ATOM      5  H   UNL     1      33.728 -10.723 -22.808  0.00  0.00    +0.150 HD
BRANCH   3   6
ATOM      6  CA  UNL     1      34.416  -9.649 -24.477  0.00  0.00    +0.105 C 
BRANCH   6   7
ATOM      7  CB  UNL     1      34.525  -8.431 -23.543  0.00  0.00    +0.048 C 
BRANCH   7   8
ATOM      8  CG  UNL     1      33.412  -7.430 -23.747  0.00  0.00    -0.020 C 
ATOM      9  CD1 UNL     1      33.553  -6.415 -24.693  0.00  0.00    -0.004 C 
ATOM     10  CD2 UNL     1      32.245  -7.521 -22.989  0.00  0.00    -0.004 C 
ATOM     11  CE1 UNL     1      32.526  -5.490 -24.881  0.00  0.00    -0.000 C 
ATOM     12  CE2 UNL     1      31.217  -6.597 -23.178  0.00  0.00    -0.000 C 
ATOM     13  CZ  UNL     1      31.357  -5.581 -24.123  0.00  0.00    -0.000 C 
ENDBRANCH   7   8
ENDBRANCH   6   7
BRANCH   6  14
ATOM     14  C   UNL     1      35.793 -10.028 -25.026  0.00  0.00    +0.157 C 
BRANCH  14  15
ATOM     15  O   UNL     1      35.679 -10.346 -26.409  0.00  0.00    -0.380 OA
ATOM     16  H   UNL     1      34.741 -10.431 -26.644  0.00  0.00    +0.211 HD
ENDBRANCH  14  15
ENDBRANCH   6  14
ENDBRANCH   3   6
ENDBRANCH   1   4
BRANCH   1  18
ATOM     17  O   UNL     1      32.944 -15.196 -25.268  0.00  0.00    -0.273 OA
ATOM     18  N   UNL     1      33.715 -14.081 -23.384  0.00  0.00    -0.297 N 
ATOM     19  C   UNL     1      33.701 -15.123 -24.302  0.00  0.00    +0.241 C 
ATOM     20  H   UNL     1      34.362 -14.115 -22.641  0.00  0.00    +0.150 HD
BRANCH  19  21
ATOM     21  CA  UNL     1      34.774 -16.164 -24.007  0.00  0.00    +0.151 C 
ATOM     22  CB  UNL     1      35.090 -16.984 -25.248  0.00  0.00    +0.031 C 
BRANCH  21  24
ATOM     23  O   UNL     1      35.060 -15.721 -21.151  0.00  0.00    -0.226 OA
ATOM     24  N   UNL     1      34.301 -16.999 -22.934  0.00  0.00    -0.264 N 
ATOM     25  C   ACE A   0      34.483 -16.709 -21.595  0.00  0.00    +0.402 C 
ATOM     26  H   UNL     1      33.820 -17.825 -23.168  0.00  0.00    +0.153 HD
BRANCH  25  27
ATOM     27  O   UNL     1      33.922 -17.691 -20.828  0.00  0.00    -0.430 OA
BRANCH  27  28
ATOM     28  C   UNL     1      33.674 -18.936 -21.490  0.00  0.00    +0.237 C 
BRANCH  28  29
ATOM     29  C   UNL     1      34.146 -20.059 -20.614  0.00  0.00    +0.021 C 
ATOM     30  C   UNL     1      35.512 -20.287 -20.448  0.00  0.00    -0.001 C 
ATOM     31  C   UNL     1      33.219 -20.875 -19.965  0.00  0.00    -0.001 C 
ATOM     32  C   UNL     1      35.951 -21.331 -19.634  0.00  0.00    -0.000 C 
ATOM     33  C   UNL     1      33.659 -21.920 -19.151  0.00  0.00    -0.000 C 
ATOM     34  C   UNL     1      35.025 -22.147 -18.985  0.00  0.00    -0.000 C 
ENDBRANCH  28  29
ENDBRANCH  27  28
ENDBRANCH  25  27
ENDBRANCH  21  24
ENDBRANCH  19  21
ENDBRANCH   1  18
BRANCH   1  35
ATOM     35  CB  UNL     1      32.497 -12.331 -22.096  0.00  0.00    +0.027 C 
ATOM     36  CG1 UNL     1      31.222 -11.481 -22.108  0.00  0.00    +0.002 C 
ATOM     37  CG2 UNL     1      32.392 -13.411 -21.015  0.00  0.00    +0.002 C 
ENDBRANCH   1  35
TORSDOF 13
ENDMDL
MODEL 3
REMARK VINA RESULT:     -10.4      1.564      3.062
REMARK  Name = 444425
REMARK  13 active torsions:
REMARK  status: ('A' for Active; 'I' for Inactive)
REMARK    1  A    between atoms: CA_1  and  C_4
REMARK    2  A    between atoms: CA_1  and  N_18
REMARK    3  A    between atoms: CA_1  and  CB_35
REMARK    4  A    between atoms: N_3  and  CA_6
REMARK    5  A    between atoms: CA_6  and  CB_7
REMARK    6  A    between atoms: CA_6  and  C_14
REMARK    7  A    between atoms: CB_7  and  CG_8
REMARK    8  A    between atoms: C_14  and  O_15
REMARK    9  A    between atoms: C_19  and  CA_21
REMARK   10  A    between atoms: CA_21  and  N_24
REMARK   11  A    between atoms: C_25  and  O_27
REMARK   12  A    between atoms: O_27  and  C_28
REMARK   13  A    between atoms: C_28  and  C_29
REMARK                            x       y       z     vdW  Elec       q    Type
REMARK                         _______ _______ _______ _____ _____    ______ ____
ROOT
ATOM      1  CA  UNL     1      31.850 -11.254 -22.077  0.00  0.00    +0.148 C 
ENDROOT
BRANCH   1   4
ATOM      2  O   UNL     1      31.179  -9.268 -23.297  0.00  0.00    -0.273 OA
ATOM      3  N   UNL     1      33.413  -9.896 -23.330  0.00  0.00    -0.302 N 
ATOM      4  C   UNL     1      32.080 -10.038 -22.973  0.00  0.00    +0.240 C 
ATOM      5  H   UNL     1      34.058 -10.571 -23.018  0.00  0.00    +0.150 HD
BRANCH   3   6
ATOM      6  CA  UNL     1      33.898  -8.803 -24.140  0.00  0.00    +0.105 C 
BRANCH   6   7
ATOM      7  CB  UNL     1      34.130  -7.548 -23.283  0.00  0.00    +0.048 C 
BRANCH   7   8
ATOM      8  CG  UNL     1      33.027  -6.525 -23.420  0.00  0.00    -0.020 C 
ATOM      9  CD1 UNL     1      32.763  -5.948 -24.662  0.00  0.00    -0.004 C 
ATOM     10  CD2 UNL     1      32.272  -6.159 -22.306  0.00  0.00    -0.004 C 
ATOM     11  CE1 UNL     1      31.744  -5.004 -24.790  0.00  0.00    -0.000 C 
ATOM     12  CE2 UNL     1      31.253  -5.216 -22.433  0.00  0.00    -0.000 C 
ATOM     13  CZ  UNL     1      30.989  -4.638 -23.675  0.00  0.00    -0.000 C 
ENDBRANCH   7   8
ENDBRANCH   6   7
BRANCH   6  14
ATOM     14  C   UNL     1      35.190  -9.217 -24.847  0.00  0.00    +0.157 C 
BRANCH  14  15
ATOM     15  O   UNL     1      35.229 -10.635 -24.967  0.00  0.00    -0.380 OA
ATOM     16  H   UNL     1      36.153 -10.930 -25.004  0.00  0.00    +0.211 HD
ENDBRANCH  14  15
ENDBRANCH   6  14
ENDBRANCH   3   6
ENDBRANCH   1   4
BRANCH   1  18
ATOM     17  O   UNL     1      31.722 -14.081 -21.559  0.00  0.00    -0.273 OA
ATOM     18  N   UNL     1      32.859 -12.234 -22.387  0.00  0.00    -0.297 N 
ATOM     19  C   UNL     1      32.710 -13.585 -22.098  0.00  0.00    +0.241 C 
ATOM     20  H   UNL     1      33.691 -11.934 -22.822  0.00  0.00    +0.150 HD
BRANCH  19  21
ATOM     21  CA  UNL     1      33.899 -14.410 -22.571  0.00  0.00    +0.151 C 
ATOM     22  CB  UNL     1      34.107 -14.255 -24.070  0.00  0.00    +0.031 C 
BRANCH  21  24
ATOM     23  O   UNL     1      34.956 -15.868 -20.292  0.00  0.00    -0.226 OA
ATOM     24  N   UNL     1      33.659 -15.784 -22.215  0.00  0.00    -0.264 N 
ATOM     25  C   ACE A   0      34.207 -16.399 -21.105  0.00  0.00    +0.402 C 
ATOM     26  H   UNL     1      33.070 -16.316 -22.795  0.00  0.00    +0.153 HD
BRANCH  25  27
ATOM     27  O   UNL     1      33.790 -17.699 -21.042  0.00  0.00    -0.430 OA
BRANCH  27  28
ATOM     28  C   UNL     1      34.695 -18.671 -21.576  0.00  0.00    +0.237 C 
BRANCH  28  29
ATOM     29  C   UNL     1      34.661 -19.898 -20.714  0.00  0.00    +0.021 C 
ATOM     30  C   UNL     1      33.439 -20.426 -20.300  0.00  0.00    -0.001 C 
ATOM     31  C   UNL     1      35.853 -20.513 -20.326  0.00  0.00    -0.001 C 
ATOM     32  C   UNL     1      33.407 -21.567 -19.498  0.00  0.00    -0.000 C 
ATOM     33  C   UNL     1      35.821 -21.654 -19.524  0.00  0.00    -0.000 C 
ATOM     34  C   UNL     1      34.597 -22.181 -19.111  0.00  0.00    -0.000 C 
ENDBRANCH  28  29
ENDBRANCH  27  28
ENDBRANCH  25  27
ENDBRANCH  21  24
ENDBRANCH  19  21
ENDBRANCH   1  18
BRANCH   1  35
ATOM     35  CB  UNL     1      31.811 -10.878 -20.580  0.00  0.00    +0.027 C 
ATOM     36  CG1 UNL     1      32.275  -9.443 -20.308  0.00  0.00    +0.002 C 
ATOM     37  CG2 UNL     1      30.411 -11.091 -19.995  0.00  0.00    +0.002 C 
ENDBRANCH   1  35
TORSDOF 13
ENDMDL
MODEL 4
REMARK VINA RESULT:     -10.4      1.430      1.794
REMARK  Name = 444425
REMARK  13 active torsions:
REMARK  status: ('A' for Active; 'I' for Inactive)
REMARK    1  A    between atoms: CA_1  and  C_4
REMARK    2  A    between atoms: CA_1  and  N_18
REMARK    3  A    between atoms: CA_1  and  CB_35
REMARK    4  A    between atoms: N_3  and  CA_6
REMARK    5  A    between atoms: CA_6  and  CB_7
REMARK    6  A    between atoms: CA_6  and  C_14
REMARK    7  A    between atoms: CB_7  and  CG_8
REMARK    8  A    between atoms: C_14  and  O_15
REMARK    9  A    between atoms: C_19  and  CA_21
REMARK   10  A    between atoms: CA_21  and  N_24
REMARK   11  A    between atoms: C_25  and  O_27
REMARK   12  A    between atoms: O_27  and  C_28
REMARK   13  A    between atoms: C_28  and  C_29
REMARK                            x       y       z     vdW  Elec       q    Type
REMARK                         _______ _______ _______ _____ _____    ______ ____
ROOT
ATOM      1  CA  UNL     1      33.783 -13.238 -24.345  0.00  0.00    +0.148 C 
ENDROOT
BRANCH   1   4
ATOM      2  O   UNL     1      34.336 -10.876 -24.347  0.00  0.00    -0.273 OA
ATOM      3  N   UNL     1      32.632 -11.622 -22.958  0.00  0.00    -0.302 N 
ATOM      4  C   UNL     1      33.644 -11.785 -23.893  0.00  0.00    +0.240 C 
ATOM      5  H   UNL     1      32.136 -12.417 -22.659  0.00  0.00    +0.150 HD
BRANCH   3   6
ATOM      6  CA  UNL     1      32.274 -10.337 -22.404  0.00  0.00    +0.105 C 
BRANCH   6   7
ATOM      7  CB  UNL     1      31.570  -9.464 -23.456  0.00  0.00    +0.048 C 
BRANCH   7   8
ATOM      8  CG  UNL     1      31.600  -7.992 -23.118  0.00  0.00    -0.020 C 
ATOM      9  CD1 UNL     1      31.114  -7.057 -24.033  0.00  0.00    -0.004 C 
ATOM     10  CD2 UNL     1      32.111  -7.568 -21.892  0.00  0.00    -0.004 C 
ATOM     11  CE1 UNL     1      31.142  -5.698 -23.722  0.00  0.00    -0.000 C 
ATOM     12  CE2 UNL     1      32.138  -6.208 -21.580  0.00  0.00    -0.000 C 
ATOM     13  CZ  UNL     1      31.654  -5.274 -22.495  0.00  0.00    -0.000 C 
ENDBRANCH   7   8
ENDBRANCH   6   7
BRANCH   6  14
ATOM     14  C   UNL     1      31.375 -10.535 -21.181  0.00  0.00    +0.157 C 
BRANCH  14  15
ATOM     15  O   UNL     1      30.404 -11.536 -21.466  0.00  0.00    -0.380 OA
ATOM     16  H   UNL     1      30.659 -12.013 -22.272  0.00  0.00    +0.211 HD
ENDBRANCH  14  15
ENDBRANCH   6  14
ENDBRANCH   3   6
ENDBRANCH   1   4
BRANCH   1  18
ATOM     17  O   UNL     1      35.260 -15.428 -23.206  0.00  0.00    -0.273 OA
ATOM     18  N   UNL     1      33.367 -14.085 -23.257  0.00  0.00    -0.297 N 
ATOM     19  C   UNL     1      34.151 -15.124 -22.771  0.00  0.00    +0.241 C 
ATOM     20  H   UNL     1      32.490 -13.921 -22.839  0.00  0.00    +0.150 HD
BRANCH  19  21
ATOM     21  CA  UNL     1      33.501 -15.831 -21.589  0.00  0.00    +0.151 C 
ATOM     22  CB  UNL     1      32.958 -14.826 -20.585  0.00  0.00    +0.031 C 
BRANCH  21  24
ATOM     23  O   UNL     1      34.100 -18.593 -22.263  0.00  0.00    -0.226 OA
ATOM     24  N   UNL     1      34.487 -16.692 -20.988  0.00  0.00    -0.264 N 
ATOM     25  C   ACE A   0      34.705 -18.000 -21.374  0.00  0.00    +0.402 C 
ATOM     26  H   UNL     1      35.037 -16.326 -20.259  0.00  0.00    +0.153 HD
BRANCH  25  27
ATOM     27  O   UNL     1      35.701 -18.548 -20.616  0.00  0.00    -0.430 OA
BRANCH  27  28
ATOM     28  C   UNL     1      36.070 -19.892 -20.945  0.00  0.00    +0.237 C 
BRANCH  28  29
ATOM     29  C   UNL     1      35.527 -20.819 -19.898  0.00  0.00    +0.021 C 
ATOM     30  C   UNL     1      36.357 -21.279 -18.876  0.00  0.00    -0.001 C 
ATOM     31  C   UNL     1      34.191 -21.221 -19.944  0.00  0.00    -0.001 C 
ATOM     32  C   UNL     1      35.853 -22.141 -17.901  0.00  0.00    -0.000 C 
ATOM     33  C   UNL     1      33.687 -22.083 -18.970  0.00  0.00    -0.000 C 
ATOM     34  C   UNL     1      34.519 -22.542 -17.948  0.00  0.00    -0.000 C 
ENDBRANCH  28  29
ENDBRANCH  27  28
ENDBRANCH  25  27
ENDBRANCH  21  24
ENDBRANCH  19  21
ENDBRANCH   1  18
BRANCH   1  35
ATOM     35  CB  UNL     1      33.018 -13.517 -25.656  0.00  0.00    +0.027 C 
ATOM     36  CG1 UNL     1      33.537 -12.698 -26.842  0.00  0.00    +0.002 C 
ATOM     37  CG2 UNL     1      33.046 -15.009 -26.003  0.00  0.00    +0.002 C 
ENDBRANCH   1  35
TORSDOF 13
ENDMDL
MODEL 5
REMARK VINA RESULT:     -10.3      1.758     10.752
REMARK  Name = 444425
REMARK  13 active torsions:
REMARK  status: ('A' for Active; 'I' for Inactive)
REMARK    1  A    between atoms: CA_1  and  C_4
REMARK    2  A    between atoms: CA_1  and  N_18
REMARK    3  A    between atoms: CA_1  and  CB_35
REMARK    4  A    between atoms: N_3  and  CA_6
REMARK    5  A    between atoms: CA_6  and  CB_7
REMARK    6  A    between atoms: CA_6  and  C_14
REMARK    7  A    between atoms: CB_7  and  CG_8
REMARK    8  A    between atoms: C_14  and  O_15
REMARK    9  A    between atoms: C_19  and  CA_21
REMARK   10  A    between atoms: CA_21  and  N_24
REMARK   11  A    between atoms: C_25  and  O_27
REMARK   12  A    between atoms: O_27  and  C_28
REMARK   13  A    between atoms: C_28  and  C_29
REMARK                            x       y       z     vdW  Elec       q    Type
REMARK                         _______ _______ _______ _____ _____    ______ ____
ROOT
ATOM      1  CA  UNL     1      33.233 -13.601 -24.092  0.00  0.00    +0.148 C 
ENDROOT
BRANCH   1   4
ATOM      2  O   UNL     1      34.904 -14.196 -22.437  0.00  0.00    -0.273 OA
ATOM      3  N   UNL     1      33.995 -15.874 -23.758  0.00  0.00    -0.302 N 
ATOM      4  C   UNL     1      34.150 -14.561 -23.336  0.00  0.00    +0.240 C 
ATOM      5  H   UNL     1      33.363 -16.061 -24.489  0.00  0.00    +0.150 HD
BRANCH   3   6
ATOM      6  CA  UNL     1      34.719 -16.978 -23.172  0.00  0.00    +0.105 C 
BRANCH   6   7
ATOM      7  CB  UNL     1      34.101 -17.384 -21.824  0.00  0.00    +0.048 C 
BRANCH   7   8
ATOM      8  CG  UNL     1      34.765 -18.594 -21.210  0.00  0.00    -0.020 C 
ATOM      9  CD1 UNL     1      33.990 -19.675 -20.788  0.00  0.00    -0.004 C 
ATOM     10  CD2 UNL     1      36.151 -18.632 -21.067  0.00  0.00    -0.004 C 
ATOM     11  CE1 UNL     1      34.602 -20.792 -20.221  0.00  0.00    -0.000 C 
ATOM     12  CE2 UNL     1      36.764 -19.750 -20.501  0.00  0.00    -0.000 C 
ATOM     13  CZ  UNL     1      35.990 -20.830 -20.078  0.00  0.00    -0.000 C 
ENDBRANCH   7   8
ENDBRANCH   6   7
BRANCH   6  14
ATOM     14  C   UNL     1      34.723 -18.163 -24.140  0.00  0.00    +0.157 C 
BRANCH  14  15
ATOM     15  O   UNL     1      34.615 -17.684 -25.475  0.00  0.00    -0.380 OA
ATOM     16  H   UNL     1      35.498 -17.461 -25.810  0.00  0.00    +0.211 HD
ENDBRANCH  14  15
ENDBRANCH   6  14
ENDBRANCH   3   6
ENDBRANCH   1   4
BRANCH   1  18
ATOM     17  O   UNL     1      31.720 -13.649 -21.646  0.00  0.00    -0.273 OA
ATOM     18  N   UNL     1      32.951 -12.481 -23.230  0.00  0.00    -0.297 N 
ATOM     19  C   UNL     1      32.208 -12.600 -22.062  0.00  0.00    +0.241 C 
ATOM     20  H   UNL     1      33.301 -11.595 -23.479  0.00  0.00    +0.150 HD
BRANCH  19  21
ATOM     21  CA  UNL     1      32.099 -11.278 -21.314  0.00  0.00    +0.151 C 
ATOM     22  CB  UNL     1      31.074 -11.371 -20.194  0.00  0.00    +0.031 C 
BRANCH  21  24
ATOM     23  O   UNL     1      32.651  -8.431 -21.153  0.00  0.00    -0.226 OA
ATOM     24  N   UNL     1      31.745 -10.256 -22.264  0.00  0.00    -0.264 N 
ATOM     25  C   ACE A   0      32.050  -8.918 -22.106  0.00  0.00    +0.402 C 
ATOM     26  H   UNL     1      31.258 -10.527 -23.075  0.00  0.00    +0.153 HD
BRANCH  25  27
ATOM     27  O   UNL     1      31.582  -8.205 -23.173  0.00  0.00    -0.430 OA
BRANCH  27  28
ATOM     28  C   UNL     1      31.678  -6.781 -23.064  0.00  0.00    +0.237 C 
BRANCH  28  29
ATOM     29  C   UNL     1      32.516  -6.259 -24.194  0.00  0.00    +0.021 C 
ATOM     30  C   UNL     1      33.785  -6.788 -24.424  0.00  0.00    -0.001 C 
ATOM     31  C   UNL     1      32.024  -5.244 -25.017  0.00  0.00    -0.001 C 
ATOM     32  C   UNL     1      34.564  -6.303 -25.475  0.00  0.00    -0.000 C 
ATOM     33  C   UNL     1      32.803  -4.758 -26.067  0.00  0.00    -0.000 C 
ATOM     34  C   UNL     1      34.073  -5.289 -26.296  0.00  0.00    -0.000 C 
ENDBRANCH  28  29
ENDBRANCH  27  28
ENDBRANCH  25  27
ENDBRANCH  21  24
ENDBRANCH  19  21
ENDBRANCH   1  18
BRANCH   1  35
ATOM     35  CB  UNL     1      33.824 -13.181 -25.456  0.00  0.00    +0.027 C 
ATOM     36  CG1 UNL     1      33.087 -13.801 -26.647  0.00  0.00    +0.002 C 
ATOM     37  CG2 UNL     1      33.851 -11.656 -25.598  0.00  0.00    +0.002 C 
ENDBRANCH   1  35
TORSDOF 13
ENDMDL
MODEL 6
REMARK VINA RESULT:     -10.2      1.600      2.595
REMARK  Name = 444425
REMARK  13 active torsions:
REMARK  status: ('A' for Active; 'I' for Inactive)
REMARK    1  A    between atoms: CA_1  and  C_4
REMARK    2  A    between atoms: CA_1  and  N_18
REMARK    3  A    between atoms: CA_1  and  CB_35
REMARK    4  A    between atoms: N_3  and  CA_6
REMARK    5  A    between atoms: CA_6  and  CB_7
REMARK    6  A    between atoms: CA_6  and  C_14
REMARK    7  A    between atoms: CB_7  and  CG_8
REMARK    8  A    between atoms: C_14  and  O_15
REMARK    9  A    between atoms: C_19  and  CA_21
REMARK   10  A    between atoms: CA_21  and  N_24
REMARK   11  A    between atoms: C_25  and  O_27
REMARK   12  A    between atoms: O_27  and  C_28
REMARK   13  A    between atoms: C_28  and  C_29
REMARK                            x       y       z     vdW  Elec       q    Type
REMARK                         _______ _______ _______ _____ _____    ______ ____
ROOT
ATOM      1  CA  UNL     1      32.412 -12.076 -22.676  0.00  0.00    +0.148 C 
ENDROOT
BRANCH   1   4
ATOM      2  O   UNL     1      33.993 -10.772 -23.975  0.00  0.00    -0.273 OA
ATOM      3  N   UNL     1      32.231  -9.675 -22.933  0.00  0.00    -0.302 N 
ATOM      4  C   UNL     1      32.990 -10.789 -23.263  0.00  0.00    +0.240 C 
ATOM      5  H   UNL     1      31.444  -9.798 -22.355  0.00  0.00    +0.150 HD
BRANCH   3   6
ATOM      6  CA  UNL     1      32.545  -8.345 -23.400  0.00  0.00    +0.105 C 
BRANCH   6   7
ATOM      7  CB  UNL     1      31.291  -7.454 -23.393  0.00  0.00    +0.048 C 
BRANCH   7   8
ATOM      8  CG  UNL     1      31.552  -6.063 -23.922  0.00  0.00    -0.020 C 
ATOM      9  CD1 UNL     1      32.203  -5.894 -25.145  0.00  0.00    -0.004 C 
ATOM     10  CD2 UNL     1      31.143  -4.950 -23.190  0.00  0.00    -0.004 C 
ATOM     11  CE1 UNL     1      32.444  -4.610 -25.634  0.00  0.00    -0.000 C 
ATOM     12  CE2 UNL     1      31.383  -3.665 -23.679  0.00  0.00    -0.000 C 
ATOM     13  CZ  UNL     1      32.034  -3.495 -24.901  0.00  0.00    -0.000 C 
ENDBRANCH   7   8
ENDBRANCH   6   7
BRANCH   6  14
ATOM     14  C   UNL     1      33.641  -7.736 -22.523  0.00  0.00    +0.157 C 
BRANCH  14  15
ATOM     15  O   UNL     1      34.898  -7.870 -23.177  0.00  0.00    -0.380 OA
ATOM     16  H   UNL     1      35.155  -7.016 -23.560  0.00  0.00    +0.211 HD
ENDBRANCH  14  15
ENDBRANCH   6  14
ENDBRANCH   3   6
ENDBRANCH   1   4
BRANCH   1  18
ATOM     17  O   UNL     1      32.256 -14.257 -24.545  0.00  0.00    -0.273 OA
ATOM     18  N   UNL     1      33.382 -13.125 -22.860  0.00  0.00    -0.297 N 
ATOM     19  C   UNL     1      33.221 -14.143 -23.792  0.00  0.00    +0.241 C 
ATOM     20  H   UNL     1      34.193 -13.121 -22.301  0.00  0.00    +0.150 HD
BRANCH  19  21
ATOM     21  CA  UNL     1      34.410 -15.094 -23.816  0.00  0.00    +0.151 C 
ATOM     22  CB  UNL     1      34.645 -15.634 -25.218  0.00  0.00    +0.031 C 
BRANCH  21  24
ATOM     23  O   UNL     1      35.036 -15.164 -20.981  0.00  0.00    -0.226 OA
ATOM     24  N   UNL     1      34.149 -16.158 -22.882  0.00  0.00    -0.264 N 
ATOM     25  C   ACE A   0      34.483 -16.105 -21.542  0.00  0.00    +0.402 C 
ATOM     26  H   UNL     1      33.706 -16.969 -23.217  0.00  0.00    +0.153 HD
BRANCH  25  27
ATOM     27  O   UNL     1      34.106 -17.264 -20.924  0.00  0.00    -0.430 OA
BRANCH  27  28
ATOM     28  C   UNL     1      34.125 -18.441 -21.739  0.00  0.00    +0.237 C 
BRANCH  28  29
ATOM     29  C   UNL     1      34.314 -19.643 -20.861  0.00  0.00    +0.021 C 
ATOM     30  C   UNL     1      33.205 -20.302 -20.332  0.00  0.00    -0.001 C 
ATOM     31  C   UNL     1      35.601 -20.102 -20.574  0.00  0.00    -0.001 C 
ATOM     32  C   UNL     1      33.381 -21.419 -19.516  0.00  0.00    -0.000 C 
ATOM     33  C   UNL     1      35.776 -21.219 -19.757  0.00  0.00    -0.000 C 
ATOM     34  C   UNL     1      34.666 -21.878 -19.229  0.00  0.00    -0.000 C 
ENDBRANCH  28  29
ENDBRANCH  27  28
ENDBRANCH  25  27
ENDBRANCH  21  24
ENDBRANCH  19  21
ENDBRANCH   1  18
BRANCH   1  35
ATOM     35  CB  UNL     1      31.980 -11.902 -21.204  0.00  0.00    +0.027 C 
ATOM     36  CG1 UNL     1      30.531 -11.427 -21.054  0.00  0.00    +0.002 C 
ATOM     37  CG2 UNL     1      32.187 -13.198 -20.413  0.00  0.00    +0.002 C 
ENDBRANCH   1  35
TORSDOF 13
ENDMDL
MODEL 7
REMARK VINA RESULT:     -10.2      1.781      3.283
REMARK  Name = 444425
REMARK  13 active torsions:
REMARK  status: ('A' for Active; 'I' for Inactive)
REMARK    1  A    between atoms: CA_1  and  C_4
REMARK    2  A    between atoms: CA_1  and  N_18
REMARK    3  A    between atoms: CA_1  and  CB_35
REMARK    4  A    between atoms: N_3  and  CA_6
REMARK    5  A    between atoms: CA_6  and  CB_7
REMARK    6  A    between atoms: CA_6  and  C_14
REMARK    7  A    between atoms: CB_7  and  CG_8
REMARK    8  A    between atoms: C_14  and  O_15
REMARK    9  A    between atoms: C_19  and  CA_21
REMARK   10  A    between atoms: CA_21  and  N_24
REMARK   11  A    between atoms: C_25  and  O_27
REMARK   12  A    between atoms: O_27  and  C_28
REMARK   13  A    between atoms: C_28  and  C_29
REMARK                            x       y       z     vdW  Elec       q    Type
REMARK                         _______ _______ _______ _____ _____    ______ ____
ROOT
ATOM      1  CA  UNL     1      31.689 -12.605 -22.174  0.00  0.00    +0.148 C 
ENDROOT
BRANCH   1   4
ATOM      2  O   UNL     1      30.810 -10.381 -22.581  0.00  0.00    -0.273 OA
ATOM      3  N   UNL     1      33.023 -10.822 -23.124  0.00  0.00    -0.302 N 
ATOM      4  C   UNL     1      31.762 -11.155 -22.651  0.00  0.00    +0.240 C 
ATOM      5  H   UNL     1      33.719 -11.519 -23.138  0.00  0.00    +0.150 HD
BRANCH   3   6
ATOM      6  CA  UNL     1      33.362  -9.500 -23.596  0.00  0.00    +0.105 C 
BRANCH   6   7
ATOM      7  CB  UNL     1      33.334  -8.484 -22.442  0.00  0.00    +0.048 C 
BRANCH   7   8
ATOM      8  CG  UNL     1      32.525  -7.249 -22.762  0.00  0.00    -0.020 C 
ATOM      9  CD1 UNL     1      31.695  -6.689 -21.790  0.00  0.00    -0.004 C 
ATOM     10  CD2 UNL     1      32.609  -6.668 -24.027  0.00  0.00    -0.004 C 
ATOM     11  CE1 UNL     1      30.948  -5.549 -22.085  0.00  0.00    -0.000 C 
ATOM     12  CE2 UNL     1      31.862  -5.527 -24.321  0.00  0.00    -0.000 C 
ATOM     13  CZ  UNL     1      31.032  -4.968 -23.351  0.00  0.00    -0.000 C 
ENDBRANCH   7   8
ENDBRANCH   6   7
BRANCH   6  14
ATOM     14  C   UNL     1      34.742  -9.526 -24.256  0.00  0.00    +0.157 C 
BRANCH  14  15
ATOM     15  O   UNL     1      35.051 -10.856 -24.655  0.00  0.00    -0.380 OA
ATOM     16  H   UNL     1      35.988 -11.036 -24.480  0.00  0.00    +0.211 HD
ENDBRANCH  14  15
ENDBRANCH   6  14
ENDBRANCH   3   6
ENDBRANCH   1   4
BRANCH   1  18
ATOM     17  O   UNL     1      34.455 -13.233 -22.653  0.00  0.00    -0.273 OA
ATOM     18  N   UNL     1      32.214 -13.446 -23.219  0.00  0.00    -0.297 N 
ATOM     19  C   UNL     1      33.573 -13.694 -23.374  0.00  0.00    +0.241 C 
ATOM     20  H   UNL     1      31.584 -13.863 -23.850  0.00  0.00    +0.150 HD
BRANCH  19  21
ATOM     21  CA  UNL     1      33.855 -14.652 -24.523  0.00  0.00    +0.151 C 
ATOM     22  CB  UNL     1      32.767 -14.567 -25.582  0.00  0.00    +0.031 C 
BRANCH  21  24
ATOM     23  O   UNL     1      35.011 -17.003 -25.777  0.00  0.00    -0.226 OA
ATOM     24  N   UNL     1      33.955 -15.982 -23.980  0.00  0.00    -0.264 N 
ATOM     25  C   ACE A   0      34.524 -17.047 -24.652  0.00  0.00    +0.402 C 
ATOM     26  H   UNL     1      33.596 -16.141 -23.078  0.00  0.00    +0.153 HD
BRANCH  25  27
ATOM     27  O   UNL     1      34.467 -18.169 -23.874  0.00  0.00    -0.430 OA
BRANCH  27  28
ATOM     28  C   UNL     1      35.376 -18.210 -22.769  0.00  0.00    +0.237 C 
BRANCH  28  29
ATOM     29  C   UNL     1      34.853 -19.169 -21.740  0.00  0.00    +0.021 C 
ATOM     30  C   UNL     1      35.741 -19.911 -20.963  0.00  0.00    -0.001 C 
ATOM     31  C   UNL     1      33.477 -19.316 -21.558  0.00  0.00    -0.001 C 
ATOM     32  C   UNL     1      35.256 -20.803 -20.006  0.00  0.00    -0.000 C 
ATOM     33  C   UNL     1      32.991 -20.207 -20.601  0.00  0.00    -0.000 C 
ATOM     34  C   UNL     1      33.881 -20.950 -19.824  0.00  0.00    -0.000 C 
ENDBRANCH  28  29
ENDBRANCH  27  28
ENDBRANCH  25  27
ENDBRANCH  21  24
ENDBRANCH  19  21
ENDBRANCH   1  18
BRANCH   1  35
ATOM     35  CB  UNL     1      32.399 -12.810 -20.818  0.00  0.00    +0.027 C 
ATOM     36  CG1 UNL     1      31.876 -11.879 -19.719  0.00  0.00    +0.002 C 
ATOM     37  CG2 UNL     1      32.295 -14.267 -20.358  0.00  0.00    +0.002 C 
ENDBRANCH   1  35
TORSDOF 13
ENDMDL
MODEL 8
REMARK VINA RESULT:     -10.0      3.994      7.003
REMARK  Name = 444425
REMARK  13 active torsions:
REMARK  status: ('A' for Active; 'I' for Inactive)
REMARK    1  A    between atoms: CA_1  and  C_4
REMARK    2  A    between atoms: CA_1  and  N_18
REMARK    3  A    between atoms: CA_1  and  CB_35
REMARK    4  A    between atoms: N_3  and  CA_6
REMARK    5  A    between atoms: CA_6  and  CB_7
REMARK    6  A    between atoms: CA_6  and  C_14
REMARK    7  A    between atoms: CB_7  and  CG_8
REMARK    8  A    between atoms: C_14  and  O_15
REMARK    9  A    between atoms: C_19  and  CA_21
REMARK   10  A    between atoms: CA_21  and  N_24
REMARK   11  A    between atoms: C_25  and  O_27
REMARK   12  A    between atoms: O_27  and  C_28
REMARK   13  A    between atoms: C_28  and  C_29
REMARK                            x       y       z     vdW  Elec       q    Type
REMARK                         _______ _______ _______ _____ _____    ______ ____
ROOT
ATOM      1  CA  UNL     1      34.897 -18.288 -22.785  0.00  0.00    +0.148 C 
ENDROOT
BRANCH   1   4
ATOM      2  O   UNL     1      33.418 -17.138 -21.244  0.00  0.00    -0.273 OA
ATOM      3  N   UNL     1      34.792 -15.875 -22.624  0.00  0.00    -0.302 N 
ATOM      4  C   UNL     1      34.266 -17.060 -22.131  0.00  0.00    +0.240 C 
ATOM      5  H   UNL     1      35.469 -15.923 -23.337  0.00  0.00    +0.150 HD
BRANCH   3   6
ATOM      6  CA  UNL     1      34.390 -14.575 -22.140  0.00  0.00    +0.105 C 
BRANCH   6   7
ATOM      7  CB  UNL     1      33.066 -14.135 -22.786  0.00  0.00    +0.048 C 
BRANCH   7   8
ATOM      8  CG  UNL     1      33.244 -13.585 -24.181  0.00  0.00    -0.020 C 
ATOM      9  CD1 UNL     1      32.902 -14.364 -25.287  0.00  0.00    -0.004 C 
ATOM     10  CD2 UNL     1      33.749 -12.298 -24.364  0.00  0.00    -0.004 C 
ATOM     11  CE1 UNL     1      33.065 -13.855 -26.575  0.00  0.00    -0.000 C 
ATOM     12  CE2 UNL     1      33.912 -11.789 -25.653  0.00  0.00    -0.000 C 
ATOM     13  CZ  UNL     1      33.571 -12.567 -26.758  0.00  0.00    -0.000 C 
ENDBRANCH   7   8
ENDBRANCH   6   7
BRANCH   6  14
ATOM     14  C   UNL     1      34.258 -14.611 -20.616  0.00  0.00    +0.157 C 
BRANCH  14  15
ATOM     15  O   UNL     1      32.887 -14.485 -20.257  0.00  0.00    -0.380 OA
ATOM     16  H   UNL     1      32.399 -14.072 -20.987  0.00  0.00    +0.211 HD
ENDBRANCH  14  15
ENDBRANCH   6  14
ENDBRANCH   3   6
ENDBRANCH   1   4
BRANCH   1  18
ATOM     17  O   UNL     1      36.461 -19.207 -20.552  0.00  0.00    -0.273 OA
ATOM     18  N   UNL     1      34.622 -19.430 -21.951  0.00  0.00    -0.297 N 
ATOM     19  C   UNL     1      35.437 -19.799 -20.889  0.00  0.00    +0.241 C 
ATOM     20  H   UNL     1      33.821 -19.971 -22.141  0.00  0.00    +0.150 HD
BRANCH  19  21
ATOM     21  CA  UNL     1      34.896 -21.011 -20.142  0.00  0.00    +0.151 C 
ATOM     22  CB  UNL     1      33.422 -20.833 -19.812  0.00  0.00    +0.031 C 
BRANCH  21  24
ATOM     23  O   UNL     1      34.659 -23.109 -18.147  0.00  0.00    -0.226 OA
ATOM     24  N   UNL     1      35.682 -21.186 -18.948  0.00  0.00    -0.264 N 
ATOM     25  C   ACE A   0      35.499 -22.220 -18.050  0.00  0.00    +0.402 C 
ATOM     26  H   UNL     1      36.391 -20.531 -18.761  0.00  0.00    +0.153 HD
BRANCH  25  27
ATOM     27  O   UNL     1      36.396 -22.110 -17.026  0.00  0.00    -0.430 OA
BRANCH  27  28
ATOM     28  C   UNL     1      35.933 -22.536 -15.740  0.00  0.00    +0.237 C 
BRANCH  28  29
ATOM     29  C   UNL     1      36.631 -23.810 -15.365  0.00  0.00    +0.021 C 
ATOM     30  C   UNL     1      37.998 -23.799 -15.086  0.00  0.00    -0.001 C 
ATOM     31  C   UNL     1      35.914 -25.005 -15.291  0.00  0.00    -0.001 C 
ATOM     32  C   UNL     1      38.648 -24.983 -14.737  0.00  0.00    -0.000 C 
ATOM     33  C   UNL     1      36.565 -26.188 -14.942  0.00  0.00    -0.000 C 
ATOM     34  C   UNL     1      37.932 -26.177 -14.664  0.00  0.00    -0.000 C 
ENDBRANCH  28  29
ENDBRANCH  27  28
ENDBRANCH  25  27
ENDBRANCH  21  24
ENDBRANCH  19  21
ENDBRANCH   1  18
BRANCH   1  35
ATOM     35  CB  UNL     1      34.428 -18.478 -24.244  0.00  0.00    +0.027 C 
ATOM     36  CG1 UNL     1      34.886 -17.350 -25.174  0.00  0.00    +0.002 C 
ATOM     37  CG2 UNL     1      34.888 -19.829 -24.799  0.00  0.00    +0.002 C 
ENDBRANCH   1  35
TORSDOF 13
ENDMDL
MODEL 9
REMARK VINA RESULT:     -10.0      2.293     10.451
REMARK  Name = 444425
REMARK  13 active torsions:
REMARK  status: ('A' for Active; 'I' for Inactive)
REMARK    1  A    between atoms: CA_1  and  C_4
REMARK    2  A    between atoms: CA_1  and  N_18
REMARK    3  A    between atoms: CA_1  and  CB_35
REMARK    4  A    between atoms: N_3  and  CA_6
REMARK    5  A    between atoms: CA_6  and  CB_7
REMARK    6  A    between atoms: CA_6  and  C_14
REMARK    7  A    between atoms: CB_7  and  CG_8
REMARK    8  A    between atoms: C_14  and  O_15
REMARK    9  A    between atoms: C_19  and  CA_21
REMARK   10  A    between atoms: CA_21  and  N_24
REMARK   11  A    between atoms: C_25  and  O_27
REMARK   12  A    between atoms: O_27  and  C_28
REMARK   13  A    between atoms: C_28  and  C_29
REMARK                            x       y       z     vdW  Elec       q    Type
REMARK                         _______ _______ _______ _____ _____    ______ ____
ROOT
ATOM      1  CA  UNL     1      33.109 -11.579 -23.935  0.00  0.00    +0.148 C 
ENDROOT
BRANCH   1   4
ATOM      2  O   UNL     1      32.402 -13.820 -24.539  0.00  0.00    -0.273 OA
ATOM      3  N   UNL     1      33.398 -13.485 -22.470  0.00  0.00    -0.302 N 
ATOM      4  C   UNL     1      32.909 -13.076 -23.702  0.00  0.00    +0.240 C 
ATOM      5  H   UNL     1      33.786 -12.807 -21.870  0.00  0.00    +0.150 HD
BRANCH   3   6
ATOM      6  CA  UNL     1      33.365 -14.859 -22.027  0.00  0.00    +0.105 C 
BRANCH   6   7
ATOM      7  CB  UNL     1      34.746 -15.517 -22.181  0.00  0.00    +0.048 C 
BRANCH   7   8
ATOM      8  CG  UNL     1      34.712 -16.775 -23.016  0.00  0.00    -0.020 C 
ATOM      9  CD1 UNL     1      34.904 -18.018 -22.412  0.00  0.00    -0.004 C 
ATOM     10  CD2 UNL     1      34.488 -16.694 -24.390  0.00  0.00    -0.004 C 
ATOM     11  CE1 UNL     1      34.872 -19.180 -23.183  0.00  0.00    -0.000 C 
ATOM     12  CE2 UNL     1      34.456 -17.856 -25.161  0.00  0.00    -0.000 C 
ATOM     13  CZ  UNL     1      34.648 -19.099 -24.558  0.00  0.00    -0.000 C 
ENDBRANCH   7   8
ENDBRANCH   6   7
BRANCH   6  14
ATOM     14  C   UNL     1      32.900 -14.921 -20.571  0.00  0.00    +0.157 C 
BRANCH  14  15
ATOM     15  O   UNL     1      32.505 -13.622 -20.145  0.00  0.00    -0.380 OA
ATOM     16  H   UNL     1      31.555 -13.623 -19.947  0.00  0.00    +0.211 HD
ENDBRANCH  14  15
ENDBRANCH   6  14
ENDBRANCH   3   6
ENDBRANCH   1   4
BRANCH   1  18
ATOM     17  O   UNL     1      30.765 -10.503 -22.661  0.00  0.00    -0.273 OA
ATOM     18  N   UNL     1      33.049 -10.917 -22.657  0.00  0.00    -0.297 N 
ATOM     19  C   UNL     1      31.865 -10.427 -22.118  0.00  0.00    +0.241 C 
ATOM     20  H   UNL     1      33.882 -10.807 -22.142  0.00  0.00    +0.150 HD
BRANCH  19  21
ATOM     21  CA  UNL     1      32.070  -9.816 -20.739  0.00  0.00    +0.151 C 
ATOM     22  CB  UNL     1      31.152 -10.465 -19.715  0.00  0.00    +0.031 C 
BRANCH  21  24
ATOM     23  O   UNL     1      33.790  -7.794 -21.917  0.00  0.00    -0.226 OA
ATOM     24  N   UNL     1      31.827  -8.400 -20.838  0.00  0.00    -0.264 N 
ATOM     25  C   ACE A   0      32.706  -7.507 -21.419  0.00  0.00    +0.402 C 
ATOM     26  H   UNL     1      30.985  -8.049 -20.471  0.00  0.00    +0.153 HD
BRANCH  25  27
ATOM     27  O   UNL     1      32.190  -6.243 -21.357  0.00  0.00    -0.430 OA
BRANCH  27  28
ATOM     28  C   UNL     1      31.047  -5.994 -22.182  0.00  0.00    +0.237 C 
BRANCH  28  29
ATOM     29  C   UNL     1      31.479  -5.238 -23.404  0.00  0.00    +0.021 C 
ATOM     30  C   UNL     1      32.152  -5.898 -24.431  0.00  0.00    -0.001 C 
ATOM     31  C   UNL     1      31.206  -3.873 -23.514  0.00  0.00    -0.001 C 
ATOM     32  C   UNL     1      32.554  -5.195 -25.568  0.00  0.00    -0.000 C 
ATOM     33  C   UNL     1      31.608  -3.170 -24.650  0.00  0.00    -0.000 C 
ATOM     34  C   UNL     1      32.281  -3.832 -25.677  0.00  0.00    -0.000 C 
ENDBRANCH  28  29
ENDBRANCH  27  28
ENDBRANCH  25  27
ENDBRANCH  21  24
ENDBRANCH  19  21
ENDBRANCH   1  18
BRANCH   1  35
ATOM     35  CB  UNL     1      34.409 -11.278 -24.712  0.00  0.00    +0.027 C 
ATOM     36  CG1 UNL     1      34.296 -11.577 -26.210  0.00  0.00    +0.002 C 
ATOM     37  CG2 UNL     1      34.851  -9.826 -24.503  0.00  0.00    +0.002 C 
ENDBRANCH   1  35
TORSDOF 13
ENDMDL
