MODEL 1
REMARK VINA RESULT:     -10.6      0.000      0.000
REMARK  Name = 15139
REMARK  7 active torsions:
REMARK  status: ('A' for Active; 'I' for Inactive)
REMARK    1  A    between atoms: N_1  and  C_16
REMARK    2  A    between atoms: N_2  and  C_8
REMARK    3  A    between atoms: C_9  and  O_14
REMARK    4  A    between atoms: C_16  and  C_17
REMARK    5  A    between atoms: C_17  and  C_18
REMARK    6  A    between atoms: C_18  and  C_20
REMARK    7  A    between atoms: C_20  and  C_22
REMARK                            x       y       z     vdW  Elec       q    Type
REMARK                         _______ _______ _______ _____ _____    ______ ____
ROOT
ATOM      1  N   UNL     1      34.104 -16.257 -24.319  0.00  0.00    +0.389 N 
ATOM      2  N   UNL     1      33.501 -13.511 -23.814  0.00  0.00    -0.309 N 
ATOM      3  C   UNL     1      34.936 -15.471 -23.398  0.00  0.00    -0.055 C 
ATOM      4  C   UNL     1      33.603 -15.396 -25.397  0.00  0.00    -0.055 C 
ATOM      5  C   UNL     1      34.132 -14.329 -22.771  0.00  0.00    +0.068 C 
ATOM      6  C   UNL     1      32.755 -14.251 -24.837  0.00  0.00    +0.068 C 
ATOM      7  H   UNL     1      33.310 -16.636 -23.803  0.00  0.00    -0.080 HD
ENDROOT
BRANCH   2   8
ATOM      8  C   UNL     1      33.118 -12.206 -23.485  0.00  0.00    +0.082 C 
ATOM      9  C   UNL     1      33.636 -11.087 -24.168  0.00  0.00    +0.152 C 
ATOM     10  C   UNL     1      32.191 -11.975 -22.447  0.00  0.00    +0.018 C 
ATOM     11  C   UNL     1      33.245  -9.792 -23.829  0.00  0.00    +0.038 C 
ATOM     12  C   UNL     1      31.800 -10.679 -22.109  0.00  0.00    +0.001 C 
ATOM     13  C   UNL     1      32.326  -9.588 -22.799  0.00  0.00    +0.003 C 
BRANCH   9  14
ATOM     14  O   UNL     1      34.536 -11.265 -25.177  0.00  0.00    -0.470 OA
ATOM     15  C   UNL     1      35.456 -10.204 -25.418  0.00  0.00    +0.253 C 
ENDBRANCH   9  14
ENDBRANCH   2   8
BRANCH   1  16
ATOM     16  C   UNL     1      34.868 -17.377 -24.869  0.00  0.00    -0.077 C 
BRANCH  16  17
ATOM     17  C   UNL     1      34.416 -18.690 -24.227  0.00  0.00    -0.015 C 
BRANCH  17  18
ATOM     18  C   UNL     1      35.246 -19.048 -22.991  0.00  0.00    +0.067 C 
BRANCH  18  20
ATOM     19  O   UNL     1      33.949 -17.790 -21.391  0.00  0.00    -0.291 OA
ATOM     20  C   UNL     1      34.495 -18.851 -21.681  0.00  0.00    +0.173 C 
BRANCH  20  22
ATOM     21  F   UNL     1      34.158 -23.139 -18.121  0.00  0.00    -0.204 F 
ATOM     22  C   UNL     1      34.405 -19.996 -20.731  0.00  0.00    +0.035 C 
ATOM     23  C   UNL     1      33.165 -20.375 -20.269  0.00  0.00    +0.005 C 
ATOM     24  C   UNL     1      35.565 -20.632 -20.350  0.00  0.00    +0.005 C 
ATOM     25  C   UNL     1      33.080 -21.447 -19.379  0.00  0.00    +0.030 C 
ATOM     26  C   UNL     1      35.481 -21.703 -19.462  0.00  0.00    +0.030 C 
ATOM     27  C   UNL     1      34.238 -22.111 -18.976  0.00  0.00    +0.140 C 
ENDBRANCH  20  22
ENDBRANCH  18  20
ENDBRANCH  17  18
ENDBRANCH  16  17
ENDBRANCH   1  16
TORSDOF 7
ENDMDL
MODEL 2
REMARK VINA RESULT:     -10.5      1.047      1.852
REMARK  Name = 15139
REMARK  7 active torsions:
REMARK  status: ('A' for Active; 'I' for Inactive)
REMARK    1  A    between atoms: N_1  and  C_16
REMARK    2  A    between atoms: N_2  and  C_8
REMARK    3  A    between atoms: C_9  and  O_14
REMARK    4  A    between atoms: C_16  and  C_17
REMARK    5  A    between atoms: C_17  and  C_18
REMARK    6  A    between atoms: C_18  and  C_20
REMARK    7  A    between atoms: C_20  and  C_22
REMARK                            x       y       z     vdW  Elec       q    Type
REMARK                         _______ _______ _______ _____ _____    ______ ____
ROOT
ATOM      1  N   UNL     1      33.801 -16.079 -24.509  0.00  0.00    +0.389 N 
ATOM      2  N   UNL     1      33.812 -13.238 -24.219  0.00  0.00    -0.309 N 
ATOM      3  C   UNL     1      34.749 -15.430 -23.595  0.00  0.00    -0.055 C 
ATOM      4  C   UNL     1      33.552 -15.213 -25.668  0.00  0.00    -0.055 C 
ATOM      5  C   UNL     1      34.197 -14.094 -23.090  0.00  0.00    +0.068 C 
ATOM      6  C   UNL     1      32.962 -13.869 -25.234  0.00  0.00    +0.068 C 
ATOM      7  H   UNL     1      32.921 -16.232 -24.017  0.00  0.00    -0.080 HD
ENDROOT
BRANCH   2   8
ATOM      8  C   UNL     1      33.720 -11.859 -23.997  0.00  0.00    +0.082 C 
ATOM      9  C   UNL     1      32.737 -11.308 -23.150  0.00  0.00    +0.152 C 
ATOM     10  C   UNL     1      34.622 -10.974 -24.624  0.00  0.00    +0.018 C 
ATOM     11  C   UNL     1      32.658  -9.932 -22.938  0.00  0.00    +0.038 C 
ATOM     12  C   UNL     1      34.543  -9.598 -24.411  0.00  0.00    +0.001 C 
ATOM     13  C   UNL     1      33.561  -9.077 -23.568  0.00  0.00    +0.003 C 
BRANCH   9  14
ATOM     14  O   UNL     1      31.844 -12.128 -22.525  0.00  0.00    -0.470 OA
ATOM     15  C   UNL     1      31.221 -11.625 -21.345  0.00  0.00    +0.253 C 
ENDBRANCH   9  14
ENDBRANCH   2   8
BRANCH   1  16
ATOM     16  C   UNL     1      34.314 -17.379 -24.941  0.00  0.00    -0.077 C 
BRANCH  16  17
ATOM     17  C   UNL     1      35.289 -17.934 -23.901  0.00  0.00    -0.015 C 
BRANCH  17  18
ATOM     18  C   UNL     1      34.658 -19.032 -23.041  0.00  0.00    +0.067 C 
BRANCH  18  20
ATOM     19  O   UNL     1      35.318 -17.801 -21.072  0.00  0.00    -0.291 OA
ATOM     20  C   UNL     1      34.928 -18.862 -21.551  0.00  0.00    +0.173 C 
BRANCH  20  22
ATOM     21  F   UNL     1      34.028 -23.204 -18.158  0.00  0.00    -0.204 F 
ATOM     22  C   UNL     1      34.687 -20.022 -20.646  0.00  0.00    +0.035 C 
ATOM     23  C   UNL     1      33.390 -20.353 -20.328  0.00  0.00    +0.005 C 
ATOM     24  C   UNL     1      35.772 -20.717 -20.160  0.00  0.00    +0.005 C 
ATOM     25  C   UNL     1      33.165 -21.439 -19.480  0.00  0.00    +0.030 C 
ATOM     26  C   UNL     1      35.547 -21.802 -19.313  0.00  0.00    +0.030 C 
ATOM     27  C   UNL     1      34.243 -22.163 -18.973  0.00  0.00    +0.140 C 
ENDBRANCH  20  22
ENDBRANCH  18  20
ENDBRANCH  17  18
ENDBRANCH  16  17
ENDBRANCH   1  16
TORSDOF 7
ENDMDL
MODEL 3
REMARK VINA RESULT:     -10.0      2.918      4.867
REMARK  Name = 15139
REMARK  7 active torsions:
REMARK  status: ('A' for Active; 'I' for Inactive)
REMARK    1  A    between atoms: N_1  and  C_16
REMARK    2  A    between atoms: N_2  and  C_8
REMARK    3  A    between atoms: C_9  and  O_14
REMARK    4  A    between atoms: C_16  and  C_17
REMARK    5  A    between atoms: C_17  and  C_18
REMARK    6  A    between atoms: C_18  and  C_20
REMARK    7  A    between atoms: C_20  and  C_22
REMARK                            x       y       z     vdW  Elec       q    Type
REMARK                         _______ _______ _______ _____ _____    ______ ____
ROOT
ATOM      1  N   UNL     1      32.391 -12.284 -23.078  0.00  0.00    +0.389 N 
ATOM      2  N   UNL     1      32.138  -9.441 -22.981  0.00  0.00    -0.309 N 
ATOM      3  C   UNL     1      31.698 -11.639 -21.956  0.00  0.00    -0.055 C 
ATOM      4  C   UNL     1      33.483 -11.424 -23.552  0.00  0.00    -0.055 C 
ATOM      5  C   UNL     1      31.104 -10.292 -22.380  0.00  0.00    +0.068 C 
ATOM      6  C   UNL     1      32.950 -10.070 -24.027  0.00  0.00    +0.068 C 
ATOM      7  H   UNL     1      31.727 -12.424 -23.840  0.00  0.00    -0.080 HD
ENDROOT
BRANCH   2   8
ATOM      8  C   UNL     1      31.916  -8.060 -23.012  0.00  0.00    +0.082 C 
ATOM      9  C   UNL     1      32.336  -7.217 -21.962  0.00  0.00    +0.152 C 
ATOM     10  C   UNL     1      31.258  -7.467 -24.110  0.00  0.00    +0.018 C 
ATOM     11  C   UNL     1      32.108  -5.842 -22.007  0.00  0.00    +0.038 C 
ATOM     12  C   UNL     1      31.031  -6.092 -24.155  0.00  0.00    +0.001 C 
ATOM     13  C   UNL     1      31.456  -5.279 -23.104  0.00  0.00    +0.003 C 
BRANCH   9  14
ATOM     14  O   UNL     1      32.975  -7.749 -20.881  0.00  0.00    -0.470 OA
ATOM     15  C   UNL     1      32.176  -8.043 -19.738  0.00  0.00    +0.253 C 
ENDBRANCH   9  14
ENDBRANCH   2   8
BRANCH   1  16
ATOM     16  C   UNL     1      32.906 -13.593 -22.677  0.00  0.00    -0.077 C 
BRANCH  16  17
ATOM     17  C   UNL     1      32.649 -13.829 -21.187  0.00  0.00    -0.015 C 
BRANCH  17  18
ATOM     18  C   UNL     1      32.695 -15.313 -20.818  0.00  0.00    +0.067 C 
BRANCH  18  20
ATOM     19  O   UNL     1      35.002 -15.511 -20.136  0.00  0.00    -0.291 OA
ATOM     20  C   UNL     1      34.098 -15.905 -20.867  0.00  0.00    +0.173 C 
BRANCH  20  22
ATOM     21  F   UNL     1      35.125 -20.058 -24.455  0.00  0.00    -0.204 F 
ATOM     22  C   UNL     1      34.372 -17.014 -21.825  0.00  0.00    +0.035 C 
ATOM     23  C   UNL     1      34.296 -18.312 -21.372  0.00  0.00    +0.005 C 
ATOM     24  C   UNL     1      34.691 -16.699 -23.127  0.00  0.00    +0.005 C 
ATOM     25  C   UNL     1      34.552 -19.350 -22.269  0.00  0.00    +0.030 C 
ATOM     26  C   UNL     1      34.947 -17.737 -24.023  0.00  0.00    +0.030 C 
ATOM     27  C   UNL     1      34.877 -19.063 -23.594  0.00  0.00    +0.140 C 
ENDBRANCH  20  22
ENDBRANCH  18  20
ENDBRANCH  17  18
ENDBRANCH  16  17
ENDBRANCH   1  16
TORSDOF 7
ENDMDL
MODEL 4
REMARK VINA RESULT:     -10.0      3.868      6.908
REMARK  Name = 15139
REMARK  7 active torsions:
REMARK  status: ('A' for Active; 'I' for Inactive)
REMARK    1  A    between atoms: N_1  and  C_16
REMARK    2  A    between atoms: N_2  and  C_8
REMARK    3  A    between atoms: C_9  and  O_14
REMARK    4  A    between atoms: C_16  and  C_17
REMARK    5  A    between atoms: C_17  and  C_18
REMARK    6  A    between atoms: C_18  and  C_20
REMARK    7  A    between atoms: C_20  and  C_22
REMARK                            x       y       z     vdW  Elec       q    Type
REMARK                         _______ _______ _______ _____ _____    ______ ____
ROOT
ATOM      1  N   UNL     1      35.195 -21.001 -19.222  0.00  0.00    +0.389 N 
ATOM      2  N   UNL     1      34.976 -19.360 -21.548  0.00  0.00    -0.309 N 
ATOM      3  C   UNL     1      36.351 -20.812 -20.108  0.00  0.00    -0.055 C 
ATOM      4  C   UNL     1      33.956 -20.988 -20.008  0.00  0.00    -0.055 C 
ATOM      5  C   UNL     1      36.261 -19.474 -20.848  0.00  0.00    +0.068 C 
ATOM      6  C   UNL     1      33.786 -19.658 -20.746  0.00  0.00    +0.068 C 
ATOM      7  H   UNL     1      35.167 -20.235 -18.549  0.00  0.00    -0.080 HD
ENDROOT
BRANCH   2   8
ATOM      8  C   UNL     1      34.886 -18.456 -22.613  0.00  0.00    +0.082 C 
ATOM      9  C   UNL     1      34.971 -17.063 -22.412  0.00  0.00    +0.152 C 
ATOM     10  C   UNL     1      34.706 -18.922 -23.932  0.00  0.00    +0.018 C 
ATOM     11  C   UNL     1      34.880 -16.173 -23.483  0.00  0.00    +0.038 C 
ATOM     12  C   UNL     1      34.615 -18.032 -25.002  0.00  0.00    +0.001 C 
ATOM     13  C   UNL     1      34.703 -16.659 -24.778  0.00  0.00    +0.003 C 
BRANCH   9  14
ATOM     14  O   UNL     1      35.145 -16.569 -21.153  0.00  0.00    -0.470 OA
ATOM     15  C   UNL     1      34.343 -15.451 -20.780  0.00  0.00    +0.253 C 
ENDBRANCH   9  14
ENDBRANCH   2   8
BRANCH   1  16
ATOM     16  C   UNL     1      35.319 -22.256 -18.480  0.00  0.00    -0.077 C 
BRANCH  16  17
ATOM     17  C   UNL     1      36.354 -22.108 -17.362  0.00  0.00    -0.015 C 
BRANCH  17  18
ATOM     18  C   UNL     1      35.739 -22.297 -15.973  0.00  0.00    +0.067 C 
BRANCH  18  20
ATOM     19  O   UNL     1      35.289 -24.669 -15.977  0.00  0.00    -0.291 OA
ATOM     20  C   UNL     1      34.847 -23.528 -15.869  0.00  0.00    +0.173 C 
BRANCH  20  22
ATOM     21  F   UNL     1      29.397 -22.808 -14.892  0.00  0.00    -0.204 F 
ATOM     22  C   UNL     1      33.392 -23.335 -15.608  0.00  0.00    +0.035 C 
ATOM     23  C   UNL     1      32.952 -23.314 -14.304  0.00  0.00    +0.005 C 
ATOM     24  C   UNL     1      32.542 -23.186 -16.681  0.00  0.00    +0.005 C 
ATOM     25  C   UNL     1      31.590 -23.134 -14.060  0.00  0.00    +0.030 C 
ATOM     26  C   UNL     1      31.181 -23.006 -16.437  0.00  0.00    +0.030 C 
ATOM     27  C   UNL     1      30.705 -22.979 -15.126  0.00  0.00    +0.140 C 
ENDBRANCH  20  22
ENDBRANCH  18  20
ENDBRANCH  17  18
ENDBRANCH  16  17
ENDBRANCH   1  16
TORSDOF 7
ENDMDL
MODEL 5
REMARK VINA RESULT:      -9.8      3.672      6.553
REMARK  Name = 15139
REMARK  7 active torsions:
REMARK  status: ('A' for Active; 'I' for Inactive)
REMARK    1  A    between atoms: N_1  and  C_16
REMARK    2  A    between atoms: N_2  and  C_8
REMARK    3  A    between atoms: C_9  and  O_14
REMARK    4  A    between atoms: C_16  and  C_17
REMARK    5  A    between atoms: C_17  and  C_18
REMARK    6  A    between atoms: C_18  and  C_20
REMARK    7  A    between atoms: C_20  and  C_22
REMARK                            x       y       z     vdW  Elec       q    Type
REMARK                         _______ _______ _______ _____ _____    ______ ____
ROOT
ATOM      1  N   UNL     1      35.477 -20.551 -19.535  0.00  0.00    +0.389 N 
ATOM      2  N   UNL     1      35.062 -18.866 -21.803  0.00  0.00    -0.309 N 
ATOM      3  C   UNL     1      36.599 -20.205 -20.417  0.00  0.00    -0.055 C 
ATOM      4  C   UNL     1      34.238 -20.649 -20.316  0.00  0.00    -0.055 C 
ATOM      5  C   UNL     1      36.356 -18.861 -21.111  0.00  0.00    +0.068 C 
ATOM      6  C   UNL     1      33.918 -19.321 -21.007  0.00  0.00    +0.068 C 
ATOM      7  H   UNL     1      35.369 -19.816 -18.836  0.00  0.00    -0.080 HD
ENDROOT
BRANCH   2   8
ATOM      8  C   UNL     1      34.865 -17.942 -22.835  0.00  0.00    +0.082 C 
ATOM      9  C   UNL     1      34.787 -16.557 -22.586  0.00  0.00    +0.152 C 
ATOM     10  C   UNL     1      34.738 -18.380 -24.170  0.00  0.00    +0.018 C 
ATOM     11  C   UNL     1      34.591 -15.647 -23.625  0.00  0.00    +0.038 C 
ATOM     12  C   UNL     1      34.543 -17.470 -25.209  0.00  0.00    +0.001 C 
ATOM     13  C   UNL     1      34.469 -16.105 -24.937  0.00  0.00    +0.003 C 
BRANCH   9  14
ATOM     14  O   UNL     1      34.903 -16.090 -21.310  0.00  0.00    -0.470 OA
ATOM     15  C   UNL     1      34.367 -14.797 -21.042  0.00  0.00    +0.253 C 
ENDBRANCH   9  14
ENDBRANCH   2   8
BRANCH   1  16
ATOM     16  C   UNL     1      35.745 -21.808 -18.836  0.00  0.00    -0.077 C 
BRANCH  16  17
ATOM     17  C   UNL     1      34.495 -22.690 -18.839  0.00  0.00    -0.015 C 
BRANCH  17  18
ATOM     18  C   UNL     1      34.020 -23.029 -17.423  0.00  0.00    +0.067 C 
BRANCH  18  20
ATOM     19  O   UNL     1      31.830 -22.236 -18.055  0.00  0.00    -0.291 OA
ATOM     20  C   UNL     1      32.532 -22.784 -17.210  0.00  0.00    +0.173 C 
BRANCH  20  22
ATOM     21  F   UNL     1      30.194 -24.513 -12.444  0.00  0.00    -0.204 F 
ATOM     22  C   UNL     1      31.908 -23.246 -15.938  0.00  0.00    +0.035 C 
ATOM     23  C   UNL     1      30.574 -23.587 -15.942  0.00  0.00    +0.005 C 
ATOM     24  C   UNL     1      32.688 -23.314 -14.805  0.00  0.00    +0.005 C 
ATOM     25  C   UNL     1      29.989 -24.019 -14.751  0.00  0.00    +0.030 C 
ATOM     26  C   UNL     1      32.104 -23.746 -13.615  0.00  0.00    +0.030 C 
ATOM     27  C   UNL     1      30.754 -24.099 -13.588  0.00  0.00    +0.140 C 
ENDBRANCH  20  22
ENDBRANCH  18  20
ENDBRANCH  17  18
ENDBRANCH  16  17
ENDBRANCH   1  16
TORSDOF 7
ENDMDL
MODEL 6
REMARK VINA RESULT:      -9.8      1.610      2.582
REMARK  Name = 15139
REMARK  7 active torsions:
REMARK  status: ('A' for Active; 'I' for Inactive)
REMARK    1  A    between atoms: N_1  and  C_16
REMARK    2  A    between atoms: N_2  and  C_8
REMARK    3  A    between atoms: C_9  and  O_14
REMARK    4  A    between atoms: C_16  and  C_17
REMARK    5  A    between atoms: C_17  and  C_18
REMARK    6  A    between atoms: C_18  and  C_20
REMARK    7  A    between atoms: C_20  and  C_22
REMARK                            x       y       z     vdW  Elec       q    Type
REMARK                         _______ _______ _______ _____ _____    ______ ____
ROOT
ATOM      1  N   UNL     1      32.374 -13.805 -22.376  0.00  0.00    +0.389 N 
ATOM      2  N   UNL     1      32.780 -11.029 -22.907  0.00  0.00    -0.309 N 
ATOM      3  C   UNL     1      32.129 -12.805 -21.328  0.00  0.00    -0.055 C 
ATOM      4  C   UNL     1      33.480 -13.367 -23.235  0.00  0.00    -0.055 C 
ATOM      5  C   UNL     1      31.761 -11.450 -21.938  0.00  0.00    +0.068 C 
ATOM      6  C   UNL     1      33.159 -12.030 -23.908  0.00  0.00    +0.068 C 
ATOM      7  H   UNL     1      31.532 -13.899 -22.944  0.00  0.00    -0.080 HD
ENDROOT
BRANCH   2   8
ATOM      8  C   UNL     1      32.865  -9.668 -23.221  0.00  0.00    +0.082 C 
ATOM      9  C   UNL     1      34.037  -9.105 -23.767  0.00  0.00    +0.152 C 
ATOM     10  C   UNL     1      31.766  -8.813 -22.998  0.00  0.00    +0.018 C 
ATOM     11  C   UNL     1      34.108  -7.746 -24.076  0.00  0.00    +0.038 C 
ATOM     12  C   UNL     1      31.836  -7.455 -23.307  0.00  0.00    +0.001 C 
ATOM     13  C   UNL     1      33.007  -6.922 -23.846  0.00  0.00    +0.003 C 
BRANCH   9  14
ATOM     14  O   UNL     1      35.125  -9.894 -23.999  0.00  0.00    -0.470 OA
ATOM     15  C   UNL     1      35.528 -10.057 -25.356  0.00  0.00    +0.253 C 
ENDBRANCH   9  14
ENDBRANCH   2   8
BRANCH   1  16
ATOM     16  C   UNL     1      32.671 -15.108 -21.781  0.00  0.00    -0.077 C 
BRANCH  16  17
ATOM     17  C   UNL     1      34.135 -15.478 -22.022  0.00  0.00    -0.015 C 
BRANCH  17  18
ATOM     18  C   UNL     1      34.594 -16.639 -21.137  0.00  0.00    +0.067 C 
BRANCH  18  20
ATOM     19  O   UNL     1      34.689 -18.060 -23.086  0.00  0.00    -0.291 OA
ATOM     20  C   UNL     1      34.623 -17.978 -21.862  0.00  0.00    +0.173 C 
BRANCH  20  22
ATOM     21  F   UNL     1      34.494 -22.665 -18.829  0.00  0.00    -0.204 F 
ATOM     22  C   UNL     1      34.588 -19.230 -21.053  0.00  0.00    +0.035 C 
ATOM     23  C   UNL     1      33.366 -19.750 -20.692  0.00  0.00    +0.005 C 
ATOM     24  C   UNL     1      35.781 -19.818 -20.695  0.00  0.00    +0.005 C 
ATOM     25  C   UNL     1      33.333 -20.921 -19.935  0.00  0.00    +0.030 C 
ATOM     26  C   UNL     1      35.748 -20.989 -19.938  0.00  0.00    +0.030 C 
ATOM     27  C   UNL     1      34.524 -21.541 -19.558  0.00  0.00    +0.140 C 
ENDBRANCH  20  22
ENDBRANCH  18  20
ENDBRANCH  17  18
ENDBRANCH  16  17
ENDBRANCH   1  16
TORSDOF 7
ENDMDL
MODEL 7
REMARK VINA RESULT:      -9.7      2.224      3.682
REMARK  Name = 15139
REMARK  7 active torsions:
REMARK  status: ('A' for Active; 'I' for Inactive)
REMARK    1  A    between atoms: N_1  and  C_16
REMARK    2  A    between atoms: N_2  and  C_8
REMARK    3  A    between atoms: C_9  and  O_14
REMARK    4  A    between atoms: C_16  and  C_17
REMARK    5  A    between atoms: C_17  and  C_18
REMARK    6  A    between atoms: C_18  and  C_20
REMARK    7  A    between atoms: C_20  and  C_22
REMARK                            x       y       z     vdW  Elec       q    Type
REMARK                         _______ _______ _______ _____ _____    ______ ____
ROOT
ATOM      1  N   UNL     1      32.682 -13.152 -23.359  0.00  0.00    +0.389 N 
ATOM      2  N   UNL     1      32.416 -10.465 -22.426  0.00  0.00    -0.309 N 
ATOM      3  C   UNL     1      32.061 -12.876 -22.056  0.00  0.00    -0.055 C 
ATOM      4  C   UNL     1      33.732 -12.163 -23.631  0.00  0.00    -0.055 C 
ATOM      5  C   UNL     1      31.431 -11.481 -22.034  0.00  0.00    +0.068 C 
ATOM      6  C   UNL     1      33.159 -10.744 -23.659  0.00  0.00    +0.068 C 
ATOM      7  H   UNL     1      31.968 -13.083 -24.085  0.00  0.00    -0.080 HD
ENDROOT
BRANCH   2   8
ATOM      8  C   UNL     1      32.183  -9.140 -22.042  0.00  0.00    +0.082 C 
ATOM      9  C   UNL     1      32.308  -8.724 -20.700  0.00  0.00    +0.152 C 
ATOM     10  C   UNL     1      31.812  -8.174 -23.000  0.00  0.00    +0.018 C 
ATOM     11  C   UNL     1      32.073  -7.400 -20.331  0.00  0.00    +0.038 C 
ATOM     12  C   UNL     1      31.578  -6.849 -22.631  0.00  0.00    +0.001 C 
ATOM     13  C   UNL     1      31.708  -6.462 -21.297  0.00  0.00    +0.003 C 
BRANCH   9  14
ATOM     14  O   UNL     1      32.664  -9.626 -19.741  0.00  0.00    -0.470 OA
ATOM     15  C   UNL     1      31.620 -10.144 -18.920  0.00  0.00    +0.253 C 
ENDBRANCH   9  14
ENDBRANCH   2   8
BRANCH   1  16
ATOM     16  C   UNL     1      33.232 -14.507 -23.388  0.00  0.00    -0.077 C 
BRANCH  16  17
ATOM     17  C   UNL     1      34.267 -14.681 -22.275  0.00  0.00    -0.015 C 
BRANCH  17  18
ATOM     18  C   UNL     1      34.112 -16.016 -21.542  0.00  0.00    +0.067 C 
BRANCH  18  20
ATOM     19  O   UNL     1      35.475 -17.027 -23.257  0.00  0.00    -0.291 OA
ATOM     20  C   UNL     1      34.913 -17.148 -22.173  0.00  0.00    +0.173 C 
BRANCH  20  22
ATOM     21  F   UNL     1      35.355 -21.975 -19.402  0.00  0.00    -0.204 F 
ATOM     22  C   UNL     1      35.031 -18.437 -21.433  0.00  0.00    +0.035 C 
ATOM     23  C   UNL     1      33.881 -19.127 -21.122  0.00  0.00    +0.005 C 
ATOM     24  C   UNL     1      36.285 -18.889 -21.089  0.00  0.00    +0.005 C 
ATOM     25  C   UNL     1      33.992 -20.334 -20.429  0.00  0.00    +0.030 C 
ATOM     26  C   UNL     1      36.395 -20.095 -20.397  0.00  0.00    +0.030 C 
ATOM     27  C   UNL     1      35.248 -20.818 -20.068  0.00  0.00    +0.140 C 
ENDBRANCH  20  22
ENDBRANCH  18  20
ENDBRANCH  17  18
ENDBRANCH  16  17
ENDBRANCH   1  16
TORSDOF 7
ENDMDL
MODEL 8
REMARK VINA RESULT:      -9.7      5.699     11.891
REMARK  Name = 15139
REMARK  7 active torsions:
REMARK  status: ('A' for Active; 'I' for Inactive)
REMARK    1  A    between atoms: N_1  and  C_16
REMARK    2  A    between atoms: N_2  and  C_8
REMARK    3  A    between atoms: C_9  and  O_14
REMARK    4  A    between atoms: C_16  and  C_17
REMARK    5  A    between atoms: C_17  and  C_18
REMARK    6  A    between atoms: C_18  and  C_20
REMARK    7  A    between atoms: C_20  and  C_22
REMARK                            x       y       z     vdW  Elec       q    Type
REMARK                         _______ _______ _______ _____ _____    ______ ____
ROOT
ATOM      1  N   UNL     1      34.643 -22.271 -17.530  0.00  0.00    +0.389 N 
ATOM      2  N   UNL     1      36.148 -23.299 -15.332  0.00  0.00    -0.309 N 
ATOM      3  C   UNL     1      34.180 -23.462 -16.806  0.00  0.00    -0.055 C 
ATOM      4  C   UNL     1      36.110 -22.240 -17.556  0.00  0.00    -0.055 C 
ATOM      5  C   UNL     1      34.689 -23.458 -15.362  0.00  0.00    +0.068 C 
ATOM      6  C   UNL     1      36.684 -22.198 -16.137  0.00  0.00    +0.068 C 
ATOM      7  H   UNL     1      34.304 -21.439 -17.047  0.00  0.00    -0.080 HD
ENDROOT
BRANCH   2   8
ATOM      8  C   UNL     1      36.831 -23.714 -14.183  0.00  0.00    +0.082 C 
ATOM      9  C   UNL     1      37.570 -24.915 -14.153  0.00  0.00    +0.152 C 
ATOM     10  C   UNL     1      36.799 -22.930 -13.011  0.00  0.00    +0.018 C 
ATOM     11  C   UNL     1      38.246 -25.316 -13.001  0.00  0.00    +0.038 C 
ATOM     12  C   UNL     1      37.476 -23.331 -11.859  0.00  0.00    +0.001 C 
ATOM     13  C   UNL     1      38.199 -24.523 -11.854  0.00  0.00    +0.003 C 
BRANCH   9  14
ATOM     14  O   UNL     1      37.627 -25.703 -15.264  0.00  0.00    -0.470 OA
ATOM     15  C   UNL     1      36.733 -26.812 -15.318  0.00  0.00    +0.253 C 
ENDBRANCH   9  14
ENDBRANCH   2   8
BRANCH   1  16
ATOM     16  C   UNL     1      34.105 -22.258 -18.890  0.00  0.00    -0.077 C 
BRANCH  16  17
ATOM     17  C   UNL     1      35.075 -21.545 -19.835  0.00  0.00    -0.015 C 
BRANCH  17  18
ATOM     18  C   UNL     1      34.436 -20.330 -20.513  0.00  0.00    +0.067 C 
BRANCH  18  20
ATOM     19  O   UNL     1      36.508 -19.095 -20.419  0.00  0.00    -0.291 OA
ATOM     20  C   UNL     1      35.454 -19.312 -21.011  0.00  0.00    +0.173 C 
BRANCH  20  22
ATOM     21  F   UNL     1      34.368 -16.533 -25.731  0.00  0.00    -0.204 F 
ATOM     22  C   UNL     1      35.163 -18.570 -22.271  0.00  0.00    +0.035 C 
ATOM     23  C   UNL     1      34.849 -19.288 -23.403  0.00  0.00    +0.005 C 
ATOM     24  C   UNL     1      35.221 -17.194 -22.256  0.00  0.00    +0.005 C 
ATOM     25  C   UNL     1      34.578 -18.594 -24.582  0.00  0.00    +0.030 C 
ATOM     26  C   UNL     1      34.949 -16.500 -23.435  0.00  0.00    +0.030 C 
ATOM     27  C   UNL     1      34.627 -17.201 -24.598  0.00  0.00    +0.140 C 
ENDBRANCH  20  22
ENDBRANCH  18  20
ENDBRANCH  17  18
ENDBRANCH  16  17
ENDBRANCH   1  16
TORSDOF 7
ENDMDL
MODEL 9
REMARK VINA RESULT:      -9.7      4.653      7.417
REMARK  Name = 15139
REMARK  7 active torsions:
REMARK  status: ('A' for Active; 'I' for Inactive)
REMARK    1  A    between atoms: N_1  and  C_16
REMARK    2  A    between atoms: N_2  and  C_8
REMARK    3  A    between atoms: C_9  and  O_14
REMARK    4  A    between atoms: C_16  and  C_17
REMARK    5  A    between atoms: C_17  and  C_18
REMARK    6  A    between atoms: C_18  and  C_20
REMARK    7  A    between atoms: C_20  and  C_22
REMARK                            x       y       z     vdW  Elec       q    Type
REMARK                         _______ _______ _______ _____ _____    ______ ____
ROOT
ATOM      1  N   UNL     1      35.176 -20.882 -19.378  0.00  0.00    +0.389 N 
ATOM      2  N   UNL     1      34.956 -19.203 -21.678  0.00  0.00    -0.309 N 
ATOM      3  C   UNL     1      36.335 -20.669 -20.256  0.00  0.00    -0.055 C 
ATOM      4  C   UNL     1      33.940 -20.865 -20.170  0.00  0.00    -0.055 C 
ATOM      5  C   UNL     1      36.239 -19.320 -20.973  0.00  0.00    +0.068 C 
ATOM      6  C   UNL     1      33.765 -19.524 -20.886  0.00  0.00    +0.068 C 
ATOM      7  H   UNL     1      35.140 -20.128 -18.693  0.00  0.00    -0.080 HD
ENDROOT
BRANCH   2   8
ATOM      8  C   UNL     1      34.864 -18.282 -22.727  0.00  0.00    +0.082 C 
ATOM      9  C   UNL     1      34.946 -16.892 -22.504  0.00  0.00    +0.152 C 
ATOM     10  C   UNL     1      34.686 -18.727 -24.054  0.00  0.00    +0.018 C 
ATOM     11  C   UNL     1      34.853 -15.986 -23.560  0.00  0.00    +0.038 C 
ATOM     12  C   UNL     1      34.594 -17.820 -25.110  0.00  0.00    +0.001 C 
ATOM     13  C   UNL     1      34.677 -16.450 -24.863  0.00  0.00    +0.003 C 
BRANCH   9  14
ATOM     14  O   UNL     1      35.117 -16.418 -21.237  0.00  0.00    -0.470 OA
ATOM     15  C   UNL     1      34.287 -15.331 -20.834  0.00  0.00    +0.253 C 
ENDBRANCH   9  14
ENDBRANCH   2   8
BRANCH   1  16
ATOM     16  C   UNL     1      35.306 -22.148 -18.657  0.00  0.00    -0.077 C 
BRANCH  16  17
ATOM     17  C   UNL     1      36.264 -21.986 -17.474  0.00  0.00    -0.015 C 
BRANCH  17  18
ATOM     18  C   UNL     1      35.769 -22.714 -16.222  0.00  0.00    +0.067 C 
BRANCH  18  20
ATOM     19  O   UNL     1      38.068 -22.981 -15.540  0.00  0.00    -0.291 OA
ATOM     20  C   UNL     1      36.881 -23.041 -15.234  0.00  0.00    +0.173 C 
BRANCH  20  22
ATOM     21  F   UNL     1      35.486 -24.488 -10.024  0.00  0.00    -0.204 F 
ATOM     22  C   UNL     1      36.508 -23.428 -13.843  0.00  0.00    +0.035 C 
ATOM     23  C   UNL     1      35.255 -23.950 -13.616  0.00  0.00    +0.005 C 
ATOM     24  C   UNL     1      37.431 -23.248 -12.837  0.00  0.00    +0.005 C 
ATOM     25  C   UNL     1      34.906 -24.312 -12.314  0.00  0.00    +0.030 C 
ATOM     26  C   UNL     1      37.083 -23.609 -11.536  0.00  0.00    +0.030 C 
ATOM     27  C   UNL     1      35.820 -24.142 -11.275  0.00  0.00    +0.140 C 
ENDBRANCH  20  22
ENDBRANCH  18  20
ENDBRANCH  17  18
ENDBRANCH  16  17
ENDBRANCH   1  16
TORSDOF 7
ENDMDL
