MODEL 1
REMARK VINA RESULT:      -4.5      0.000      0.000
REMARK  Name = 16873
REMARK  1 active torsions:
REMARK  status: ('A' for Active; 'I' for Inactive)
REMARK    1  A    between atoms: C_6  and  S_9
REMARK                            x       y       z     vdW  Elec       q    Type
REMARK                         _______ _______ _______ _____ _____    ______ ____
ROOT
ATOM      1  S   UNL     1      41.835 -13.564 -16.133  0.00  0.00    -0.025 S 
ATOM      2  N   UNL     1      40.580 -15.319 -14.752  0.00  0.00    -0.125 NA
ATOM      3  N   UNL     1      40.989 -15.972 -15.902  0.00  0.00    -0.133 NA
ATOM      4  N   UNL     1      40.699 -13.173 -13.749  0.00  0.00    -0.336 N 
ATOM      5  C   UNL     1      40.956 -14.059 -14.745  0.00  0.00    +0.180 A 
ATOM      6  C   UNL     1      41.653 -15.170 -16.707  0.00  0.00    +0.157 A 
ATOM      7  H   UNL     1      41.017 -12.244 -13.821  0.00  0.00    +0.144 HD
ATOM      8  H   UNL     1      40.195 -13.460 -12.954  0.00  0.00    +0.144 HD
ENDROOT
BRANCH   6   9
ATOM      9  S   UNL     1      42.293 -15.716 -18.236  0.00  0.00    -0.114 S 
ATOM     10  H   UNL     1      43.506 -16.300 -18.038  0.00  0.00    +0.109 HD
ENDBRANCH   6   9
TORSDOF 1
ENDMDL
MODEL 2
REMARK VINA RESULT:      -4.4      2.019      3.654
REMARK  Name = 16873
REMARK  1 active torsions:
REMARK  status: ('A' for Active; 'I' for Inactive)
REMARK    1  A    between atoms: C_6  and  S_9
REMARK                            x       y       z     vdW  Elec       q    Type
REMARK                         _______ _______ _______ _____ _____    ______ ____
ROOT
ATOM      1  S   UNL     1      41.462 -14.542 -17.694  0.00  0.00    -0.025 S 
ATOM      2  N   UNL     1      42.343 -16.841 -16.985  0.00  0.00    -0.125 NA
ATOM      3  N   UNL     1      41.954 -16.213 -15.815  0.00  0.00    -0.133 NA
ATOM      4  N   UNL     1      42.424 -16.428 -19.320  0.00  0.00    -0.336 N 
ATOM      5  C   UNL     1      42.140 -16.080 -18.039  0.00  0.00    +0.180 A 
ATOM      6  C   UNL     1      41.477 -15.008 -16.044  0.00  0.00    +0.157 A 
ATOM      7  H   UNL     1      42.241 -15.798 -20.054  0.00  0.00    +0.144 HD
ATOM      8  H   UNL     1      42.813 -17.311 -19.514  0.00  0.00    +0.144 HD
ENDROOT
BRANCH   6   9
ATOM      9  S   UNL     1      40.908 -13.978 -14.755  0.00  0.00    -0.114 S 
ATOM     10  H   UNL     1      39.740 -13.389 -15.126  0.00  0.00    +0.109 HD
ENDBRANCH   6   9
TORSDOF 1
ENDMDL
MODEL 3
REMARK VINA RESULT:      -4.3      9.909     10.533
REMARK  Name = 16873
REMARK  1 active torsions:
REMARK  status: ('A' for Active; 'I' for Inactive)
REMARK    1  A    between atoms: C_6  and  S_9
REMARK                            x       y       z     vdW  Elec       q    Type
REMARK                         _______ _______ _______ _____ _____    ______ ____
ROOT
ATOM      1  S   UNL     1      35.162 -21.070 -19.855  0.00  0.00    -0.025 S 
ATOM      2  N   UNL     1      32.704 -20.462 -20.244  0.00  0.00    -0.125 NA
ATOM      3  N   UNL     1      33.437 -19.496 -20.912  0.00  0.00    -0.133 NA
ATOM      4  N   UNL     1      33.046 -22.402 -18.922  0.00  0.00    -0.336 N 
ATOM      5  C   UNL     1      33.481 -21.343 -19.651  0.00  0.00    +0.180 A 
ATOM      6  C   UNL     1      34.732 -19.697 -20.789  0.00  0.00    +0.157 A 
ATOM      7  H   UNL     1      33.695 -23.016 -18.509  0.00  0.00    +0.144 HD
ATOM      8  H   UNL     1      32.080 -22.556 -18.806  0.00  0.00    +0.144 HD
ENDROOT
BRANCH   6   9
ATOM      9  S   UNL     1      35.906 -18.636 -21.527  0.00  0.00    -0.114 S 
ATOM     10  H   UNL     1      35.338 -17.423 -21.760  0.00  0.00    +0.109 HD
ENDBRANCH   6   9
TORSDOF 1
ENDMDL
MODEL 4
REMARK VINA RESULT:      -4.3     16.049     16.150
REMARK  Name = 16873
REMARK  1 active torsions:
REMARK  status: ('A' for Active; 'I' for Inactive)
REMARK    1  A    between atoms: C_6  and  S_9
REMARK                            x       y       z     vdW  Elec       q    Type
REMARK                         _______ _______ _______ _____ _____    ______ ____
ROOT
ATOM      1  S   UNL     1      27.724 -22.279 -15.663  0.00  0.00    -0.025 S 
ATOM      2  N   UNL     1      27.273 -23.284 -17.976  0.00  0.00    -0.125 NA
ATOM      3  N   UNL     1      28.088 -24.194 -17.326  0.00  0.00    -0.133 NA
ATOM      4  N   UNL     1      26.234 -21.186 -17.589  0.00  0.00    -0.336 N 
ATOM      5  C   UNL     1      27.007 -22.239 -17.221  0.00  0.00    +0.180 A 
ATOM      6  C   UNL     1      28.397 -23.791 -16.112  0.00  0.00    +0.157 A 
ATOM      7  H   UNL     1      26.084 -20.442 -16.962  0.00  0.00    +0.144 HD
ATOM      8  H   UNL     1      25.824 -21.166 -18.484  0.00  0.00    +0.144 HD
ENDROOT
BRANCH   6   9
ATOM      9  S   UNL     1      29.414 -24.737 -15.055  0.00  0.00    -0.114 S 
ATOM     10  H   UNL     1      28.691 -25.153 -13.981  0.00  0.00    +0.109 HD
ENDBRANCH   6   9
TORSDOF 1
ENDMDL
MODEL 5
REMARK VINA RESULT:      -4.3     10.993     11.825
REMARK  Name = 16873
REMARK  1 active torsions:
REMARK  status: ('A' for Active; 'I' for Inactive)
REMARK    1  A    between atoms: C_6  and  S_9
REMARK                            x       y       z     vdW  Elec       q    Type
REMARK                         _______ _______ _______ _____ _____    ______ ____
ROOT
ATOM      1  S   UNL     1      34.578 -15.922 -23.574  0.00  0.00    -0.025 S 
ATOM      2  N   UNL     1      34.590 -17.622 -25.491  0.00  0.00    -0.125 NA
ATOM      3  N   UNL     1      33.881 -16.531 -25.964  0.00  0.00    -0.133 NA
ATOM      4  N   UNL     1      35.729 -18.330 -23.534  0.00  0.00    -0.336 N 
ATOM      5  C   UNL     1      35.010 -17.435 -24.258  0.00  0.00    +0.180 A 
ATOM      6  C   UNL     1      33.801 -15.575 -25.063  0.00  0.00    +0.157 A 
ATOM      7  H   UNL     1      36.006 -18.112 -22.615  0.00  0.00    +0.144 HD
ATOM      8  H   UNL     1      35.976 -19.197 -23.929  0.00  0.00    +0.144 HD
ENDROOT
BRANCH   6   9
ATOM      9  S   UNL     1      32.964 -14.075 -25.378  0.00  0.00    -0.114 S 
ATOM     10  H   UNL     1      33.831 -13.036 -25.246  0.00  0.00    +0.109 HD
ENDBRANCH   6   9
TORSDOF 1
ENDMDL
MODEL 6
REMARK VINA RESULT:      -4.2      9.275     10.142
REMARK  Name = 16873
REMARK  1 active torsions:
REMARK  status: ('A' for Active; 'I' for Inactive)
REMARK    1  A    between atoms: C_6  and  S_9
REMARK                            x       y       z     vdW  Elec       q    Type
REMARK                         _______ _______ _______ _____ _____    ______ ____
ROOT
ATOM      1  S   UNL     1      33.314 -19.885 -20.860  0.00  0.00    -0.025 S 
ATOM      2  N   UNL     1      35.164 -21.051 -19.526  0.00  0.00    -0.125 NA
ATOM      3  N   UNL     1      35.792 -20.032 -20.221  0.00  0.00    -0.133 NA
ATOM      4  N   UNL     1      33.000 -21.975 -19.231  0.00  0.00    -0.336 N 
ATOM      5  C   UNL     1      33.872 -21.086 -19.769  0.00  0.00    +0.180 A 
ATOM      6  C   UNL     1      34.940 -19.347 -20.954  0.00  0.00    +0.157 A 
ATOM      7  H   UNL     1      32.045 -21.933 -19.465  0.00  0.00    +0.144 HD
ATOM      8  H   UNL     1      33.323 -22.664 -18.605  0.00  0.00    +0.144 HD
ENDROOT
BRANCH   6   9
ATOM      9  S   UNL     1      35.445 -17.999 -21.942  0.00  0.00    -0.114 S 
ATOM     10  H   UNL     1      36.567 -17.442 -21.410  0.00  0.00    +0.109 HD
ENDBRANCH   6   9
TORSDOF 1
ENDMDL
MODEL 7
REMARK VINA RESULT:      -4.2     11.403     11.858
REMARK  Name = 16873
REMARK  1 active torsions:
REMARK  status: ('A' for Active; 'I' for Inactive)
REMARK    1  A    between atoms: C_6  and  S_9
REMARK                            x       y       z     vdW  Elec       q    Type
REMARK                         _______ _______ _______ _____ _____    ______ ____
ROOT
ATOM      1  S   UNL     1      34.061 -15.472 -23.656  0.00  0.00    -0.025 S 
ATOM      2  N   UNL     1      33.797 -16.257 -26.080  0.00  0.00    -0.125 NA
ATOM      3  N   UNL     1      34.477 -17.273 -25.431  0.00  0.00    -0.133 NA
ATOM      4  N   UNL     1      32.862 -14.126 -25.624  0.00  0.00    -0.336 N 
ATOM      5  C   UNL     1      33.520 -15.258 -25.270  0.00  0.00    +0.180 A 
ATOM      6  C   UNL     1      34.679 -16.990 -24.162  0.00  0.00    +0.157 A 
ATOM      7  H   UNL     1      32.694 -13.424 -24.955  0.00  0.00    +0.144 HD
ATOM      8  H   UNL     1      32.552 -14.006 -26.551  0.00  0.00    +0.144 HD
ENDROOT
BRANCH   6   9
ATOM      9  S   UNL     1      35.513 -18.087 -23.090  0.00  0.00    -0.114 S 
ATOM     10  H   UNL     1      35.625 -17.521 -21.859  0.00  0.00    +0.109 HD
ENDBRANCH   6   9
TORSDOF 1
ENDMDL
MODEL 8
REMARK VINA RESULT:      -4.2     11.761     11.961
REMARK  Name = 16873
REMARK  1 active torsions:
REMARK  status: ('A' for Active; 'I' for Inactive)
REMARK    1  A    between atoms: C_6  and  S_9
REMARK                            x       y       z     vdW  Elec       q    Type
REMARK                         _______ _______ _______ _____ _____    ______ ____
ROOT
ATOM      1  S   UNL     1      37.333 -24.592 -14.195  0.00  0.00    -0.025 S 
ATOM      2  N   UNL     1      36.425 -26.647 -15.428  0.00  0.00    -0.125 NA
ATOM      3  N   UNL     1      37.796 -26.827 -15.361  0.00  0.00    -0.133 NA
ATOM      4  N   UNL     1      34.772 -25.078 -14.770  0.00  0.00    -0.336 N 
ATOM      5  C   UNL     1      36.052 -25.521 -14.857  0.00  0.00    +0.180 A 
ATOM      6  C   UNL     1      38.389 -25.828 -14.742  0.00  0.00    +0.157 A 
ATOM      7  H   UNL     1      34.576 -24.222 -14.325  0.00  0.00    +0.144 HD
ATOM      8  H   UNL     1      34.039 -25.613 -15.151  0.00  0.00    +0.144 HD
ENDROOT
BRANCH   6   9
ATOM      9  S   UNL     1      40.118 -25.780 -14.508  0.00  0.00    -0.114 S 
ATOM     10  H   UNL     1      40.393 -25.650 -13.182  0.00  0.00    +0.109 HD
ENDBRANCH   6   9
TORSDOF 1
ENDMDL
MODEL 9
REMARK VINA RESULT:      -4.1      8.704      9.260
REMARK  Name = 16873
REMARK  1 active torsions:
REMARK  status: ('A' for Active; 'I' for Inactive)
REMARK    1  A    between atoms: C_6  and  S_9
REMARK                            x       y       z     vdW  Elec       q    Type
REMARK                         _______ _______ _______ _____ _____    ______ ____
ROOT
ATOM      1  S   UNL     1      34.815 -16.618 -22.738  0.00  0.00    -0.025 S 
ATOM      2  N   UNL     1      34.918 -16.055 -20.241  0.00  0.00    -0.125 NA
ATOM      3  N   UNL     1      34.494 -14.896 -20.868  0.00  0.00    -0.133 NA
ATOM      4  N   UNL     1      35.539 -18.280 -20.779  0.00  0.00    -0.336 N 
ATOM      5  C   UNL     1      35.121 -17.029 -21.101  0.00  0.00    +0.180 A 
ATOM      6  C   UNL     1      34.399 -15.054 -22.171  0.00  0.00    +0.157 A 
ATOM      7  H   UNL     1      35.668 -18.954 -21.485  0.00  0.00    +0.144 HD
ATOM      8  H   UNL     1      35.714 -18.513 -19.839  0.00  0.00    +0.144 HD
ENDROOT
BRANCH   6   9
ATOM      9  S   UNL     1      33.887 -13.760 -23.224  0.00  0.00    -0.114 S 
ATOM     10  H   UNL     1      34.091 -14.121 -24.520  0.00  0.00    +0.109 HD
ENDBRANCH   6   9
TORSDOF 1
ENDMDL
