MODEL 1
REMARK VINA RESULT:      -7.8      0.000      0.000
REMARK  Name = 10661
REMARK  0 active torsions:
REMARK  status: ('A' for Active; 'I' for Inactive)
REMARK                            x       y       z     vdW  Elec       q    Type
REMARK                         _______ _______ _______ _____ _____    ______ ____
ROOT
ATOM      1 CL   UNL     1      36.578 -19.039 -20.997  0.00  0.00    -0.071 Cl
ATOM      2  O   UNL     1      34.768 -16.852 -25.844  0.00  0.00    -0.265 OA
ATOM      3  O   UNL     1      32.421 -13.519 -23.512  0.00  0.00    -0.246 OA
ATOM      4  N   UNL     1      33.622 -15.084 -22.281  0.00  0.00    -0.266 N 
ATOM      5  N   UNL     1      33.582 -15.169 -24.700  0.00  0.00    -0.246 N 
ATOM      6  N   UNL     1      35.605 -17.837 -23.154  0.00  0.00    -0.300 N 
ATOM      7  N   UNL     1      34.973 -16.866 -21.250  0.00  0.00    -0.292 N 
ATOM      8  C   UNL     1      34.442 -16.204 -22.324  0.00  0.00    +0.133 A 
ATOM      9  C   UNL     1      34.815 -16.781 -23.507  0.00  0.00    +0.134 A 
ATOM     10  C   UNL     1      34.418 -16.314 -24.796  0.00  0.00    +0.280 A 
ATOM     11  C   UNL     1      33.153 -14.515 -23.490  0.00  0.00    +0.335 A 
ATOM     12  C   UNL     1      33.252 -14.506 -20.995  0.00  0.00    +0.136 C 
ATOM     13  C   UNL     1      33.112 -14.596 -25.957  0.00  0.00    +0.138 C 
ATOM     14  C   UNL     1      35.670 -17.847 -21.785  0.00  0.00    +0.229 C 
ATOM     15  H   UNL     1      36.044 -18.471 -23.766  0.00  0.00    +0.150 HD
ATOM     16  H   UNL     1      34.859 -16.656 -20.295  0.00  0.00    +0.151 HD
ENDROOT
TORSDOF 0
ENDMDL
MODEL 2
REMARK VINA RESULT:      -7.7      1.784      3.150
REMARK  Name = 10661
REMARK  0 active torsions:
REMARK  status: ('A' for Active; 'I' for Inactive)
REMARK                            x       y       z     vdW  Elec       q    Type
REMARK                         _______ _______ _______ _____ _____    ______ ____
ROOT
ATOM      1 CL   UNL     1      36.044 -20.654 -20.305  0.00  0.00    -0.071 Cl
ATOM      2  O   UNL     1      34.882 -15.162 -20.451  0.00  0.00    -0.265 OA
ATOM      3  O   UNL     1      33.847 -15.458 -25.022  0.00  0.00    -0.246 OA
ATOM      4  N   UNL     1      34.509 -17.394 -23.916  0.00  0.00    -0.266 N 
ATOM      5  N   UNL     1      34.356 -15.282 -22.743  0.00  0.00    -0.246 N 
ATOM      6  N   UNL     1      35.444 -18.088 -20.612  0.00  0.00    -0.300 N 
ATOM      7  N   UNL     1      35.235 -19.267 -22.492  0.00  0.00    -0.292 N 
ATOM      8  C   UNL     1      34.913 -17.955 -22.711  0.00  0.00    +0.133 A 
ATOM      9  C   UNL     1      35.033 -17.208 -21.571  0.00  0.00    +0.134 A 
ATOM     10  C   UNL     1      34.765 -15.808 -21.489  0.00  0.00    +0.280 A 
ATOM     11  C   UNL     1      34.210 -16.011 -23.977  0.00  0.00    +0.335 A 
ATOM     12  C   UNL     1      34.397 -18.232 -25.103  0.00  0.00    +0.136 C 
ATOM     13  C   UNL     1      34.051 -13.856 -22.785  0.00  0.00    +0.138 C 
ATOM     14  C   UNL     1      35.551 -19.314 -21.214  0.00  0.00    +0.229 C 
ATOM     15  H   UNL     1      35.627 -17.881 -19.667  0.00  0.00    +0.150 HD
ATOM     16  H   UNL     1      35.232 -20.006 -23.141  0.00  0.00    +0.151 HD
ENDROOT
TORSDOF 0
ENDMDL
MODEL 3
REMARK VINA RESULT:      -7.5      2.801      4.429
REMARK  Name = 10661
REMARK  0 active torsions:
REMARK  status: ('A' for Active; 'I' for Inactive)
REMARK                            x       y       z     vdW  Elec       q    Type
REMARK                         _______ _______ _______ _____ _____    ______ ____
ROOT
ATOM      1 CL   UNL     1      31.602 -12.162 -21.011  0.00  0.00    -0.071 Cl
ATOM      2  O   UNL     1      34.752 -16.812 -21.096  0.00  0.00    -0.265 OA
ATOM      3  O   UNL     1      34.624 -16.864 -25.790  0.00  0.00    -0.246 OA
ATOM      4  N   UNL     1      33.504 -15.155 -24.678  0.00  0.00    -0.266 N 
ATOM      5  N   UNL     1      34.705 -16.862 -23.450  0.00  0.00    -0.246 N 
ATOM      6  N   UNL     1      33.077 -14.350 -21.296  0.00  0.00    -0.300 N 
ATOM      7  N   UNL     1      32.417 -13.479 -23.239  0.00  0.00    -0.292 N 
ATOM      8  C   UNL     1      33.172 -14.602 -23.448  0.00  0.00    +0.133 A 
ATOM      9  C   UNL     1      33.590 -15.157 -22.270  0.00  0.00    +0.134 A 
ATOM     10  C   UNL     1      34.392 -16.334 -22.169  0.00  0.00    +0.280 A 
ATOM     11  C   UNL     1      34.298 -16.328 -24.725  0.00  0.00    +0.335 A 
ATOM     12  C   UNL     1      33.035 -14.527 -25.906  0.00  0.00    +0.136 C 
ATOM     13  C   UNL     1      35.525 -18.068 -23.476  0.00  0.00    +0.138 C 
ATOM     14  C   UNL     1      32.379 -13.355 -21.928  0.00  0.00    +0.229 C 
ATOM     15  H   UNL     1      33.187 -14.462 -20.324  0.00  0.00    +0.150 HD
ATOM     16  H   UNL     1      31.999 -12.898 -23.914  0.00  0.00    +0.151 HD
ENDROOT
TORSDOF 0
ENDMDL
MODEL 4
REMARK VINA RESULT:      -7.3      2.974      4.855
REMARK  Name = 10661
REMARK  0 active torsions:
REMARK  status: ('A' for Active; 'I' for Inactive)
REMARK                            x       y       z     vdW  Elec       q    Type
REMARK                         _______ _______ _______ _____ _____    ______ ____
ROOT
ATOM      1 CL   UNL     1      33.417 -12.166 -23.624  0.00  0.00    -0.071 Cl
ATOM      2  O   UNL     1      35.082 -16.222 -20.114  0.00  0.00    -0.265 OA
ATOM      3  O   UNL     1      35.103 -19.324 -23.639  0.00  0.00    -0.246 OA
ATOM      4  N   UNL     1      34.491 -17.129 -24.108  0.00  0.00    -0.266 N 
ATOM      5  N   UNL     1      35.102 -17.798 -21.863  0.00  0.00    -0.246 N 
ATOM      6  N   UNL     1      34.201 -14.234 -22.157  0.00  0.00    -0.300 N 
ATOM      7  N   UNL     1      33.890 -14.749 -24.304  0.00  0.00    -0.292 N 
ATOM      8  C   UNL     1      34.292 -15.852 -23.599  0.00  0.00    +0.133 A 
ATOM      9  C   UNL     1      34.491 -15.563 -22.277  0.00  0.00    +0.134 A 
ATOM     10  C   UNL     1      34.912 -16.509 -21.296  0.00  0.00    +0.280 A 
ATOM     11  C   UNL     1      34.911 -18.168 -23.242  0.00  0.00    +0.335 A 
ATOM     12  C   UNL     1      34.266 -17.388 -25.525  0.00  0.00    +0.136 C 
ATOM     13  C   UNL     1      35.537 -18.854 -20.955  0.00  0.00    +0.138 C 
ATOM     14  C   UNL     1      33.845 -13.789 -23.404  0.00  0.00    +0.229 C 
ATOM     15  H   UNL     1      34.241 -13.697 -21.333  0.00  0.00    +0.150 HD
ATOM     16  H   UNL     1      33.682 -14.689 -25.264  0.00  0.00    +0.151 HD
ENDROOT
TORSDOF 0
ENDMDL
MODEL 5
REMARK VINA RESULT:      -7.2     11.008     13.068
REMARK  Name = 10661
REMARK  0 active torsions:
REMARK  status: ('A' for Active; 'I' for Inactive)
REMARK                            x       y       z     vdW  Elec       q    Type
REMARK                         _______ _______ _______ _____ _____    ______ ____
ROOT
ATOM      1 CL   UNL     1      31.874 -23.704 -13.553  0.00  0.00    -0.071 Cl
ATOM      2  O   UNL     1      36.749 -26.070 -12.077  0.00  0.00    -0.265 OA
ATOM      3  O   UNL     1      38.965 -23.740 -15.498  0.00  0.00    -0.246 OA
ATOM      4  N   UNL     1      36.676 -23.413 -15.248  0.00  0.00    -0.266 N 
ATOM      5  N   UNL     1      37.886 -24.914 -13.783  0.00  0.00    -0.246 N 
ATOM      6  N   UNL     1      34.281 -24.695 -13.037  0.00  0.00    -0.300 N 
ATOM      7  N   UNL     1      34.269 -23.267 -14.749  0.00  0.00    -0.292 N 
ATOM      8  C   UNL     1      35.534 -23.744 -14.530  0.00  0.00    +0.133 A 
ATOM      9  C   UNL     1      35.569 -24.623 -13.483  0.00  0.00    +0.134 A 
ATOM     10  C   UNL     1      36.746 -25.284 -13.020  0.00  0.00    +0.280 A 
ATOM     11  C   UNL     1      37.917 -23.997 -14.894  0.00  0.00    +0.335 A 
ATOM     12  C   UNL     1      36.587 -22.470 -16.356  0.00  0.00    +0.136 C 
ATOM     13  C   UNL     1      39.155 -25.524 -13.402  0.00  0.00    +0.138 C 
ATOM     14  C   UNL     1      33.536 -23.861 -13.830  0.00  0.00    +0.229 C 
ATOM     15  H   UNL     1      33.950 -25.241 -12.288  0.00  0.00    +0.150 HD
ATOM     16  H   UNL     1      33.976 -22.627 -15.436  0.00  0.00    +0.151 HD
ENDROOT
TORSDOF 0
ENDMDL
MODEL 6
REMARK VINA RESULT:      -7.2      2.823      4.066
REMARK  Name = 10661
REMARK  0 active torsions:
REMARK  status: ('A' for Active; 'I' for Inactive)
REMARK                            x       y       z     vdW  Elec       q    Type
REMARK                         _______ _______ _______ _____ _____    ______ ____
ROOT
ATOM      1 CL   UNL     1      32.871 -14.437 -26.812  0.00  0.00    -0.071 Cl
ATOM      2  O   UNL     1      35.551 -18.544 -24.074  0.00  0.00    -0.265 OA
ATOM      3  O   UNL     1      34.982 -16.263 -20.009  0.00  0.00    -0.246 OA
ATOM      4  N   UNL     1      34.135 -15.290 -21.944  0.00  0.00    -0.266 N 
ATOM      5  N   UNL     1      35.279 -17.423 -22.022  0.00  0.00    -0.246 N 
ATOM      6  N   UNL     1      34.101 -16.249 -25.313  0.00  0.00    -0.300 N 
ATOM      7  N   UNL     1      33.349 -14.508 -24.142  0.00  0.00    -0.292 N 
ATOM      8  C   UNL     1      33.972 -15.406 -23.319  0.00  0.00    +0.133 A 
ATOM      9  C   UNL     1      34.443 -16.486 -24.013  0.00  0.00    +0.134 A 
ATOM     10  C   UNL     1      35.137 -17.586 -23.426  0.00  0.00    +0.280 A 
ATOM     11  C   UNL     1      34.807 -16.314 -21.232  0.00  0.00    +0.335 A 
ATOM     12  C   UNL     1      33.614 -14.120 -21.249  0.00  0.00    +0.136 C 
ATOM     13  C   UNL     1      35.972 -18.488 -21.306  0.00  0.00    +0.138 C 
ATOM     14  C   UNL     1      33.444 -15.046 -25.340  0.00  0.00    +0.229 C 
ATOM     15  H   UNL     1      34.290 -16.831 -26.084  0.00  0.00    +0.150 HD
ATOM     16  H   UNL     1      32.926 -13.654 -23.895  0.00  0.00    +0.151 HD
ENDROOT
TORSDOF 0
ENDMDL
MODEL 7
REMARK VINA RESULT:      -7.2     12.806     13.422
REMARK  Name = 10661
REMARK  0 active torsions:
REMARK  status: ('A' for Active; 'I' for Inactive)
REMARK                            x       y       z     vdW  Elec       q    Type
REMARK                         _______ _______ _______ _____ _____    ______ ____
ROOT
ATOM      1 CL   UNL     1      31.868 -23.802 -13.687  0.00  0.00    -0.071 Cl
ATOM      2  O   UNL     1      36.303 -26.527 -15.798  0.00  0.00    -0.265 OA
ATOM      3  O   UNL     1      39.143 -24.349 -12.759  0.00  0.00    -0.246 OA
ATOM      4  N   UNL     1      36.870 -23.857 -12.688  0.00  0.00    -0.266 N 
ATOM      5  N   UNL     1      37.749 -25.450 -14.285  0.00  0.00    -0.246 N 
ATOM      6  N   UNL     1      34.101 -24.970 -14.521  0.00  0.00    -0.300 N 
ATOM      7  N   UNL     1      34.434 -23.537 -12.846  0.00  0.00    -0.292 N 
ATOM      8  C   UNL     1      35.618 -24.106 -13.233  0.00  0.00    +0.133 A 
ATOM      9  C   UNL     1      35.441 -24.991 -14.261  0.00  0.00    +0.134 A 
ATOM     10  C   UNL     1      36.490 -25.739 -14.875  0.00  0.00    +0.280 A 
ATOM     11  C   UNL     1      38.004 -24.532 -13.204  0.00  0.00    +0.335 A 
ATOM     12  C   UNL     1      37.008 -22.904 -11.593  0.00  0.00    +0.136 C 
ATOM     13  C   UNL     1      38.904 -26.158 -14.829  0.00  0.00    +0.138 C 
ATOM     14  C   UNL     1      33.538 -24.080 -13.644  0.00  0.00    +0.229 C 
ATOM     15  H   UNL     1      33.629 -25.494 -15.207  0.00  0.00    +0.150 HD
ATOM     16  H   UNL     1      34.288 -22.873 -12.135  0.00  0.00    +0.151 HD
ENDROOT
TORSDOF 0
ENDMDL
MODEL 8
REMARK VINA RESULT:      -7.1      2.886      4.015
REMARK  Name = 10661
REMARK  0 active torsions:
REMARK  status: ('A' for Active; 'I' for Inactive)
REMARK                            x       y       z     vdW  Elec       q    Type
REMARK                         _______ _______ _______ _____ _____    ______ ____
ROOT
ATOM      1 CL   UNL     1      33.464 -11.734 -24.333  0.00  0.00    -0.071 Cl
ATOM      2  O   UNL     1      34.359 -17.062 -25.868  0.00  0.00    -0.265 OA
ATOM      3  O   UNL     1      35.051 -18.281 -21.386  0.00  0.00    -0.246 OA
ATOM      4  N   UNL     1      34.564 -16.056 -21.858  0.00  0.00    -0.266 N 
ATOM      5  N   UNL     1      34.710 -17.702 -23.629  0.00  0.00    -0.246 N 
ATOM      6  N   UNL     1      33.920 -14.302 -24.821  0.00  0.00    -0.300 N 
ATOM      7  N   UNL     1      34.037 -13.787 -22.655  0.00  0.00    -0.292 N 
ATOM      8  C   UNL     1      34.281 -15.121 -22.845  0.00  0.00    +0.133 A 
ATOM      9  C   UNL     1      34.215 -15.464 -24.168  0.00  0.00    +0.134 A 
ATOM     10  C   UNL     1      34.423 -16.782 -24.674  0.00  0.00    +0.280 A 
ATOM     11  C   UNL     1      34.794 -17.407 -22.221  0.00  0.00    +0.335 A 
ATOM     12  C   UNL     1      34.624 -15.642 -20.462  0.00  0.00    +0.136 C 
ATOM     13  C   UNL     1      34.941 -19.087 -24.023  0.00  0.00    +0.138 C 
ATOM     14  C   UNL     1      33.823 -13.321 -23.869  0.00  0.00    +0.229 C 
ATOM     15  H   UNL     1      33.800 -14.190 -25.792  0.00  0.00    +0.150 HD
ATOM     16  H   UNL     1      34.025 -13.290 -21.806  0.00  0.00    +0.151 HD
ENDROOT
TORSDOF 0
ENDMDL
MODEL 9
REMARK VINA RESULT:      -7.0     10.008     11.724
REMARK  Name = 10661
REMARK  0 active torsions:
REMARK  status: ('A' for Active; 'I' for Inactive)
REMARK                            x       y       z     vdW  Elec       q    Type
REMARK                         _______ _______ _______ _____ _____    ______ ____
ROOT
ATOM      1 CL   UNL     1      27.909 -22.865 -16.082  0.00  0.00    -0.071 Cl
ATOM      2  O   UNL     1      32.324 -24.611 -13.081  0.00  0.00    -0.265 OA
ATOM      3  O   UNL     1      35.220 -23.467 -16.596  0.00  0.00    -0.246 OA
ATOM      4  N   UNL     1      32.942 -23.093 -16.881  0.00  0.00    -0.266 N 
ATOM      5  N   UNL     1      33.799 -24.046 -14.827  0.00  0.00    -0.246 N 
ATOM      6  N   UNL     1      30.136 -23.626 -14.854  0.00  0.00    -0.300 N 
ATOM      7  N   UNL     1      30.496 -22.813 -16.898  0.00  0.00    -0.292 N 
ATOM      8  C   UNL     1      31.677 -23.188 -16.316  0.00  0.00    +0.133 A 
ATOM      9  C   UNL     1      31.484 -23.691 -15.059  0.00  0.00    +0.134 A 
ATOM     10  C   UNL     1      32.527 -24.163 -14.206  0.00  0.00    +0.280 A 
ATOM     11  C   UNL     1      34.071 -23.527 -16.143  0.00  0.00    +0.335 A 
ATOM     12  C   UNL     1      33.097 -22.549 -18.225  0.00  0.00    +0.136 C 
ATOM     13  C   UNL     1      34.949 -24.496 -14.050  0.00  0.00    +0.138 C 
ATOM     14  C   UNL     1      29.585 -23.091 -15.989  0.00  0.00    +0.229 C 
ATOM     15  H   UNL     1      29.651 -23.910 -14.045  0.00  0.00    +0.150 HD
ATOM     16  H   UNL     1      30.360 -22.425 -17.792  0.00  0.00    +0.151 HD
ENDROOT
TORSDOF 0
ENDMDL
