MODEL 1
REMARK VINA RESULT:      -6.7      0.000      0.000
REMARK  Name = 5497016
REMARK  12 active torsions:
REMARK  status: ('A' for Active; 'I' for Inactive)
REMARK    1  A    between atoms: C_1  and  C_2
REMARK    2  A    between atoms: C_1  and  C_8
REMARK    3  A    between atoms: C_1  and  C_17
REMARK    4  A    between atoms: C_2  and  N_4
REMARK    5  A    between atoms: C_8  and  C_9
REMARK    6  A    between atoms: C_9  and  C_10
REMARK    7  A    between atoms: C_10  and  C_11
REMARK    8  A    between atoms: C_11  and  C_12
REMARK    9  A    between atoms: C_12  and  C_14
REMARK   10  A    between atoms: C_14  and  O_15
REMARK   11  A    between atoms: C_17  and  C_19
REMARK   12  A    between atoms: C_19  and  O_20
REMARK                            x       y       z     vdW  Elec       q    Type
REMARK                         _______ _______ _______ _____ _____    ______ ____
ROOT
ATOM      1  C   UNL     1      34.922 -24.520 -13.510  0.00  0.00    -0.009 C 
ENDROOT
BRANCH   1   2
ATOM      2  C   UNL     1      33.578 -24.082 -14.166  0.00  0.00    -0.065 C 
ATOM      3  C   UNL     1      33.774 -23.447 -15.545  0.00  0.00    -0.024 C 
BRANCH   2   4
ATOM      4  N   UNL     1      32.795 -23.162 -13.339  0.00  0.00    +0.382 N 
ATOM      5  H   UNL     1      32.325 -22.482 -13.939  0.00  0.00    -0.089 HD
ATOM      6  H   UNL     1      33.415 -22.674 -12.693  0.00  0.00    -0.089 HD
ATOM      7  H   UNL     1      32.099 -23.688 -12.812  0.00  0.00    -0.089 HD
ENDBRANCH   2   4
ENDBRANCH   1   2
BRANCH   1   8
ATOM      8  C   UNL     1      36.081 -24.626 -14.540  0.00  0.00    -0.002 C 
BRANCH   8   9
ATOM      9  C   UNL     1      36.324 -26.048 -15.055  0.00  0.00    -0.000 C 
BRANCH   9  10
ATOM     10  C   UNL     1      37.563 -26.709 -14.447  0.00  0.00    +0.001 C 
BRANCH  10  11
ATOM     11  C   UNL     1      38.327 -25.889 -13.399  0.00  0.00    +0.012 C 
BRANCH  11  12
ATOM     12  C   UNL     1      39.557 -25.161 -13.941  0.00  0.00    +0.109 C 
BRANCH  12  14
ATOM     13  O   UNL     1      41.297 -26.838 -14.070  0.00  0.00    -0.250 OA
ATOM     14  C   UNL     1      40.545 -26.058 -14.638  0.00  0.00    +0.314 C 
BRANCH  14  15
ATOM     15  O   UNL     1      40.470 -25.926 -15.985  0.00  0.00    -0.480 OA
ATOM     16  H   UNL     1      41.121 -26.320 -16.531  0.00  0.00    +0.295 HD
ENDBRANCH  14  15
ENDBRANCH  12  14
ENDBRANCH  11  12
ENDBRANCH  10  11
ENDBRANCH   9  10
ENDBRANCH   8   9
ENDBRANCH   1   8
BRANCH   1  17
ATOM     17  C   UNL     1      35.355 -23.593 -12.348  0.00  0.00    +0.107 C 
BRANCH  17  19
ATOM     18  O   UNL     1      35.197 -25.217 -10.535  0.00  0.00    -0.250 OA
ATOM     19  C   UNL     1      35.828 -24.350 -11.123  0.00  0.00    +0.314 C 
BRANCH  19  20
ATOM     20  O   UNL     1      37.081 -23.971 -10.757  0.00  0.00    -0.480 OA
ATOM     21  H   UNL     1      37.808 -24.150 -11.320  0.00  0.00    +0.295 HD
ENDBRANCH  19  20
ENDBRANCH  17  19
ENDBRANCH   1  17
TORSDOF 12
ENDMDL
MODEL 2
REMARK VINA RESULT:      -6.7      9.369     11.198
REMARK  Name = 5497016
REMARK  12 active torsions:
REMARK  status: ('A' for Active; 'I' for Inactive)
REMARK    1  A    between atoms: C_1  and  C_2
REMARK    2  A    between atoms: C_1  and  C_8
REMARK    3  A    between atoms: C_1  and  C_17
REMARK    4  A    between atoms: C_2  and  N_4
REMARK    5  A    between atoms: C_8  and  C_9
REMARK    6  A    between atoms: C_9  and  C_10
REMARK    7  A    between atoms: C_10  and  C_11
REMARK    8  A    between atoms: C_11  and  C_12
REMARK    9  A    between atoms: C_12  and  C_14
REMARK   10  A    between atoms: C_14  and  O_15
REMARK   11  A    between atoms: C_17  and  C_19
REMARK   12  A    between atoms: C_19  and  O_20
REMARK                            x       y       z     vdW  Elec       q    Type
REMARK                         _______ _______ _______ _____ _____    ______ ____
ROOT
ATOM      1  C   UNL     1      34.852 -17.511 -22.848  0.00  0.00    -0.009 C 
ENDROOT
BRANCH   1   2
ATOM      2  C   UNL     1      34.977 -17.726 -24.387  0.00  0.00    -0.065 C 
ATOM      3  C   UNL     1      34.420 -16.550 -25.194  0.00  0.00    -0.024 C 
BRANCH   2   4
ATOM      4  N   UNL     1      34.339 -18.956 -24.859  0.00  0.00    +0.382 N 
ATOM      5  H   UNL     1      33.411 -18.739 -25.225  0.00  0.00    -0.089 HD
ATOM      6  H   UNL     1      34.255 -19.614 -24.086  0.00  0.00    -0.089 HD
ATOM      7  H   UNL     1      34.907 -19.370 -25.599  0.00  0.00    -0.089 HD
ENDBRANCH   2   4
ENDBRANCH   1   2
BRANCH   1   8
ATOM      8  C   UNL     1      35.929 -18.296 -22.048  0.00  0.00    -0.002 C 
BRANCH   8   9
ATOM      9  C   UNL     1      35.347 -19.287 -21.034  0.00  0.00    -0.000 C 
BRANCH   9  10
ATOM     10  C   UNL     1      33.820 -19.382 -21.089  0.00  0.00    +0.001 C 
BRANCH  10  11
ATOM     11  C   UNL     1      33.174 -20.480 -20.234  0.00  0.00    +0.012 C 
BRANCH  11  12
ATOM     12  C   UNL     1      34.170 -21.418 -19.554  0.00  0.00    +0.109 C 
BRANCH  12  14
ATOM     13  O   UNL     1      33.976 -23.814 -19.268  0.00  0.00    -0.250 OA
ATOM     14  C   UNL     1      33.556 -22.690 -19.029  0.00  0.00    +0.314 C 
BRANCH  14  15
ATOM     15  O   UNL     1      32.500 -22.434 -18.221  0.00  0.00    -0.480 OA
ATOM     16  H   UNL     1      32.642 -22.186 -17.329  0.00  0.00    +0.295 HD
ENDBRANCH  14  15
ENDBRANCH  12  14
ENDBRANCH  11  12
ENDBRANCH  10  11
ENDBRANCH   9  10
ENDBRANCH   8   9
ENDBRANCH   1   8
BRANCH   1  17
ATOM     17  C   UNL     1      34.903 -16.018 -22.443  0.00  0.00    +0.107 C 
BRANCH  17  19
ATOM     18  O   UNL     1      32.878 -15.687 -21.124  0.00  0.00    -0.250 OA
ATOM     19  C   UNL     1      34.098 -15.709 -21.195  0.00  0.00    +0.314 C 
BRANCH  19  20
ATOM     20  O   UNL     1      34.906 -15.484 -20.125  0.00  0.00    -0.480 OA
ATOM     21  H   UNL     1      34.579 -15.610 -19.256  0.00  0.00    +0.295 HD
ENDBRANCH  19  20
ENDBRANCH  17  19
ENDBRANCH   1  17
TORSDOF 12
ENDMDL
MODEL 3
REMARK VINA RESULT:      -6.6     11.177     13.531
REMARK  Name = 5497016
REMARK  12 active torsions:
REMARK  status: ('A' for Active; 'I' for Inactive)
REMARK    1  A    between atoms: C_1  and  C_2
REMARK    2  A    between atoms: C_1  and  C_8
REMARK    3  A    between atoms: C_1  and  C_17
REMARK    4  A    between atoms: C_2  and  N_4
REMARK    5  A    between atoms: C_8  and  C_9
REMARK    6  A    between atoms: C_9  and  C_10
REMARK    7  A    between atoms: C_10  and  C_11
REMARK    8  A    between atoms: C_11  and  C_12
REMARK    9  A    between atoms: C_12  and  C_14
REMARK   10  A    between atoms: C_14  and  O_15
REMARK   11  A    between atoms: C_17  and  C_19
REMARK   12  A    between atoms: C_19  and  O_20
REMARK                            x       y       z     vdW  Elec       q    Type
REMARK                         _______ _______ _______ _____ _____    ______ ____
ROOT
ATOM      1  C   UNL     1      34.562 -18.510 -22.035  0.00  0.00    -0.009 C 
ENDROOT
BRANCH   1   2
ATOM      2  C   UNL     1      34.217 -19.840 -21.301  0.00  0.00    -0.065 C 
ATOM      3  C   UNL     1      32.815 -19.828 -20.685  0.00  0.00    -0.024 C 
BRANCH   2   4
ATOM      4  N   UNL     1      35.179 -20.199 -20.257  0.00  0.00    +0.382 N 
ATOM      5  H   UNL     1      35.894 -20.812 -20.650  0.00  0.00    -0.089 HD
ATOM      6  H   UNL     1      34.695 -20.680 -19.500  0.00  0.00    -0.089 HD
ATOM      7  H   UNL     1      35.618 -19.352 -19.896  0.00  0.00    -0.089 HD
ENDBRANCH   2   4
ENDBRANCH   1   2
BRANCH   1   8
ATOM      8  C   UNL     1      35.436 -17.560 -21.169  0.00  0.00    -0.002 C 
BRANCH   8   9
ATOM      9  C   UNL     1      34.772 -16.213 -20.865  0.00  0.00    -0.000 C 
BRANCH   9  10
ATOM     10  C   UNL     1      33.292 -16.166 -21.253  0.00  0.00    +0.001 C 
BRANCH  10  11
ATOM     11  C   UNL     1      32.797 -14.863 -21.892  0.00  0.00    +0.012 C 
BRANCH  11  12
ATOM     12  C   UNL     1      33.908 -13.955 -22.420  0.00  0.00    +0.109 C 
BRANCH  12  14
ATOM     13  O   UNL     1      33.348 -14.378 -24.736  0.00  0.00    -0.250 OA
ATOM     14  C   UNL     1      33.783 -13.618 -23.882  0.00  0.00    +0.314 C 
BRANCH  14  15
ATOM     15  O   UNL     1      34.175 -12.345 -24.133  0.00  0.00    -0.480 OA
ATOM     16  H   UNL     1      33.746 -11.630 -23.705  0.00  0.00    +0.295 HD
ENDBRANCH  14  15
ENDBRANCH  12  14
ENDBRANCH  11  12
ENDBRANCH  10  11
ENDBRANCH   9  10
ENDBRANCH   8   9
ENDBRANCH   1   8
BRANCH   1  17
ATOM     17  C   UNL     1      35.255 -18.737 -23.401  0.00  0.00    +0.107 C 
BRANCH  17  19
ATOM     18  O   UNL     1      33.955 -17.991 -25.325  0.00  0.00    -0.250 OA
ATOM     19  C   UNL     1      34.802 -17.765 -24.472  0.00  0.00    +0.314 C 
BRANCH  19  20
ATOM     20  O   UNL     1      35.434 -16.568 -24.357  0.00  0.00    -0.480 OA
ATOM     21  H   UNL     1      35.372 -15.936 -25.046  0.00  0.00    +0.295 HD
ENDBRANCH  19  20
ENDBRANCH  17  19
ENDBRANCH   1  17
TORSDOF 12
ENDMDL
MODEL 4
REMARK VINA RESULT:      -6.6     11.431     13.224
REMARK  Name = 5497016
REMARK  12 active torsions:
REMARK  status: ('A' for Active; 'I' for Inactive)
REMARK    1  A    between atoms: C_1  and  C_2
REMARK    2  A    between atoms: C_1  and  C_8
REMARK    3  A    between atoms: C_1  and  C_17
REMARK    4  A    between atoms: C_2  and  N_4
REMARK    5  A    between atoms: C_8  and  C_9
REMARK    6  A    between atoms: C_9  and  C_10
REMARK    7  A    between atoms: C_10  and  C_11
REMARK    8  A    between atoms: C_11  and  C_12
REMARK    9  A    between atoms: C_12  and  C_14
REMARK   10  A    between atoms: C_14  and  O_15
REMARK   11  A    between atoms: C_17  and  C_19
REMARK   12  A    between atoms: C_19  and  O_20
REMARK                            x       y       z     vdW  Elec       q    Type
REMARK                         _______ _______ _______ _____ _____    ______ ____
ROOT
ATOM      1  C   UNL     1      33.258 -14.833 -23.415  0.00  0.00    -0.009 C 
ENDROOT
BRANCH   1   2
ATOM      2  C   UNL     1      32.658 -13.402 -23.562  0.00  0.00    -0.065 C 
ATOM      3  C   UNL     1      33.721 -12.347 -23.879  0.00  0.00    -0.024 C 
BRANCH   2   4
ATOM      4  N   UNL     1      31.902 -12.961 -22.389  0.00  0.00    +0.382 N 
ATOM      5  H   UNL     1      31.834 -13.729 -21.720  0.00  0.00    -0.089 HD
ATOM      6  H   UNL     1      30.967 -12.674 -22.675  0.00  0.00    -0.089 HD
ATOM      7  H   UNL     1      32.382 -12.173 -21.953  0.00  0.00    -0.089 HD
ENDBRANCH   2   4
ENDBRANCH   1   2
BRANCH   1   8
ATOM      8  C   UNL     1      33.641 -15.462 -24.784  0.00  0.00    -0.002 C 
BRANCH   8   9
ATOM      9  C   UNL     1      34.832 -16.424 -24.712  0.00  0.00    -0.000 C 
BRANCH   9  10
ATOM     10  C   UNL     1      34.477 -17.857 -25.118  0.00  0.00    +0.001 C 
BRANCH  10  11
ATOM     11  C   UNL     1      34.706 -18.942 -24.058  0.00  0.00    +0.012 C 
BRANCH  11  12
ATOM     12  C   UNL     1      35.600 -18.511 -22.895  0.00  0.00    +0.109 C 
BRANCH  12  14
ATOM     13  O   UNL     1      34.144 -19.685 -21.359  0.00  0.00    -0.250 OA
ATOM     14  C   UNL     1      35.095 -18.937 -21.542  0.00  0.00    +0.314 C 
BRANCH  14  15
ATOM     15  O   UNL     1      35.853 -18.422 -20.545  0.00  0.00    -0.480 OA
ATOM     16  H   UNL     1      36.525 -18.942 -20.150  0.00  0.00    +0.295 HD
ENDBRANCH  14  15
ENDBRANCH  12  14
ENDBRANCH  11  12
ENDBRANCH  10  11
ENDBRANCH   9  10
ENDBRANCH   8   9
ENDBRANCH   1   8
BRANCH   1  17
ATOM     17  C   UNL     1      34.485 -14.877 -22.472  0.00  0.00    +0.107 C 
BRANCH  17  19
ATOM     18  O   UNL     1      34.961 -15.566 -20.181  0.00  0.00    -0.250 OA
ATOM     19  C   UNL     1      34.157 -15.401 -21.087  0.00  0.00    +0.314 C 
BRANCH  19  20
ATOM     20  O   UNL     1      32.827 -15.644 -20.950  0.00  0.00    -0.480 OA
ATOM     21  H   UNL     1      32.392 -16.222 -21.544  0.00  0.00    +0.295 HD
ENDBRANCH  19  20
ENDBRANCH  17  19
ENDBRANCH   1  17
TORSDOF 12
ENDMDL
MODEL 5
REMARK VINA RESULT:      -6.5      4.780      6.400
REMARK  Name = 5497016
REMARK  12 active torsions:
REMARK  status: ('A' for Active; 'I' for Inactive)
REMARK    1  A    between atoms: C_1  and  C_2
REMARK    2  A    between atoms: C_1  and  C_8
REMARK    3  A    between atoms: C_1  and  C_17
REMARK    4  A    between atoms: C_2  and  N_4
REMARK    5  A    between atoms: C_8  and  C_9
REMARK    6  A    between atoms: C_9  and  C_10
REMARK    7  A    between atoms: C_10  and  C_11
REMARK    8  A    between atoms: C_11  and  C_12
REMARK    9  A    between atoms: C_12  and  C_14
REMARK   10  A    between atoms: C_14  and  O_15
REMARK   11  A    between atoms: C_17  and  C_19
REMARK   12  A    between atoms: C_19  and  O_20
REMARK                            x       y       z     vdW  Elec       q    Type
REMARK                         _______ _______ _______ _____ _____    ______ ____
ROOT
ATOM      1  C   UNL     1      30.043 -23.348 -15.133  0.00  0.00    -0.009 C 
ENDROOT
BRANCH   1   2
ATOM      2  C   UNL     1      29.907 -24.433 -14.023  0.00  0.00    -0.065 C 
ATOM      3  C   UNL     1      31.253 -25.052 -13.635  0.00  0.00    -0.024 C 
BRANCH   2   4
ATOM      4  N   UNL     1      28.983 -25.514 -14.371  0.00  0.00    +0.382 N 
ATOM      5  H   UNL     1      28.997 -26.223 -13.637  0.00  0.00    -0.089 HD
ATOM      6  H   UNL     1      29.269 -25.934 -15.255  0.00  0.00    -0.089 HD
ATOM      7  H   UNL     1      28.040 -25.138 -14.461  0.00  0.00    -0.089 HD
ENDBRANCH   2   4
ENDBRANCH   1   2
BRANCH   1   8
ATOM      8  C   UNL     1      31.496 -22.814 -15.270  0.00  0.00    -0.002 C 
BRANCH   8   9
ATOM      9  C   UNL     1      32.146 -23.127 -16.622  0.00  0.00    -0.000 C 
BRANCH   9  10
ATOM     10  C   UNL     1      33.638 -23.456 -16.514  0.00  0.00    +0.001 C 
BRANCH  10  11
ATOM     11  C   UNL     1      34.291 -23.216 -15.148  0.00  0.00    +0.012 C 
BRANCH  11  12
ATOM     12  C   UNL     1      34.732 -24.488 -14.425  0.00  0.00    +0.109 C 
BRANCH  12  14
ATOM     13  O   UNL     1      36.893 -24.600 -15.510  0.00  0.00    -0.250 OA
ATOM     14  C   UNL     1      35.913 -25.176 -15.057  0.00  0.00    +0.314 C 
BRANCH  14  15
ATOM     15  O   UNL     1      35.777 -26.524 -15.027  0.00  0.00    -0.480 OA
ATOM     16  H   UNL     1      35.197 -26.922 -14.409  0.00  0.00    +0.295 HD
ENDBRANCH  14  15
ENDBRANCH  12  14
ENDBRANCH  11  12
ENDBRANCH  10  11
ENDBRANCH   9  10
ENDBRANCH   8   9
ENDBRANCH   1   8
BRANCH   1  17
ATOM     17  C   UNL     1      29.547 -23.836 -16.516  0.00  0.00    +0.107 C 
BRANCH  17  19
ATOM     18  O   UNL     1      27.453 -23.579 -17.741  0.00  0.00    -0.250 OA
ATOM     19  C   UNL     1      28.303 -23.113 -16.995  0.00  0.00    +0.314 C 
BRANCH  19  20
ATOM     20  O   UNL     1      28.217 -21.866 -16.463  0.00  0.00    -0.480 OA
ATOM     21  H   UNL     1      28.153 -21.755 -15.535  0.00  0.00    +0.295 HD
ENDBRANCH  19  20
ENDBRANCH  17  19
ENDBRANCH   1  17
TORSDOF 12
ENDMDL
MODEL 6
REMARK VINA RESULT:      -6.4     12.378     14.750
REMARK  Name = 5497016
REMARK  12 active torsions:
REMARK  status: ('A' for Active; 'I' for Inactive)
REMARK    1  A    between atoms: C_1  and  C_2
REMARK    2  A    between atoms: C_1  and  C_8
REMARK    3  A    between atoms: C_1  and  C_17
REMARK    4  A    between atoms: C_2  and  N_4
REMARK    5  A    between atoms: C_8  and  C_9
REMARK    6  A    between atoms: C_9  and  C_10
REMARK    7  A    between atoms: C_10  and  C_11
REMARK    8  A    between atoms: C_11  and  C_12
REMARK    9  A    between atoms: C_12  and  C_14
REMARK   10  A    between atoms: C_14  and  O_15
REMARK   11  A    between atoms: C_17  and  C_19
REMARK   12  A    between atoms: C_19  and  O_20
REMARK                            x       y       z     vdW  Elec       q    Type
REMARK                         _______ _______ _______ _____ _____    ______ ____
ROOT
ATOM      1  C   UNL     1      34.389 -16.873 -22.477  0.00  0.00    -0.009 C 
ENDROOT
BRANCH   1   2
ATOM      2  C   UNL     1      34.837 -18.347 -22.713  0.00  0.00    -0.065 C 
ATOM      3  C   UNL     1      34.663 -19.222 -21.469  0.00  0.00    -0.024 C 
BRANCH   2   4
ATOM      4  N   UNL     1      36.219 -18.472 -23.179  0.00  0.00    +0.382 N 
ATOM      5  H   UNL     1      36.855 -18.373 -22.387  0.00  0.00    -0.089 HD
ATOM      6  H   UNL     1      36.413 -17.743 -23.865  0.00  0.00    -0.089 HD
ATOM      7  H   UNL     1      36.351 -19.387 -23.608  0.00  0.00    -0.089 HD
ENDBRANCH   2   4
ENDBRANCH   1   2
BRANCH   1   8
ATOM      8  C   UNL     1      34.753 -16.360 -21.055  0.00  0.00    -0.002 C 
BRANCH   8   9
ATOM      9  C   UNL     1      34.400 -14.888 -20.819  0.00  0.00    -0.000 C 
BRANCH   9  10
ATOM     10  C   UNL     1      32.909 -14.657 -20.557  0.00  0.00    +0.001 C 
BRANCH  10  11
ATOM     11  C   UNL     1      32.301 -13.385 -21.161  0.00  0.00    +0.012 C 
BRANCH  11  12
ATOM     12  C   UNL     1      32.299 -13.349 -22.689  0.00  0.00    +0.109 C 
BRANCH  12  14
ATOM     13  O   UNL     1      32.745 -11.014 -23.144  0.00  0.00    -0.250 OA
ATOM     14  C   UNL     1      33.059 -12.189 -23.276  0.00  0.00    +0.314 C 
BRANCH  14  15
ATOM     15  O   UNL     1      34.164 -12.606 -23.941  0.00  0.00    -0.480 OA
ATOM     16  H   UNL     1      34.358 -12.260 -24.790  0.00  0.00    +0.295 HD
ENDBRANCH  14  15
ENDBRANCH  12  14
ENDBRANCH  11  12
ENDBRANCH  10  11
ENDBRANCH   9  10
ENDBRANCH   8   9
ENDBRANCH   1   8
BRANCH   1  17
ATOM     17  C   UNL     1      34.959 -15.894 -23.533  0.00  0.00    +0.107 C 
BRANCH  17  19
ATOM     18  O   UNL     1      34.821 -16.938 -25.733  0.00  0.00    -0.250 OA
ATOM     19  C   UNL     1      34.401 -16.123 -24.924  0.00  0.00    +0.314 C 
BRANCH  19  20
ATOM     20  O   UNL     1      33.331 -15.321 -25.169  0.00  0.00    -0.480 OA
ATOM     21  H   UNL     1      32.803 -15.015 -24.459  0.00  0.00    +0.295 HD
ENDBRANCH  19  20
ENDBRANCH  17  19
ENDBRANCH   1  17
TORSDOF 12
ENDMDL
MODEL 7
REMARK VINA RESULT:      -6.4      6.896      7.902
REMARK  Name = 5497016
REMARK  12 active torsions:
REMARK  status: ('A' for Active; 'I' for Inactive)
REMARK    1  A    between atoms: C_1  and  C_2
REMARK    2  A    between atoms: C_1  and  C_8
REMARK    3  A    between atoms: C_1  and  C_17
REMARK    4  A    between atoms: C_2  and  N_4
REMARK    5  A    between atoms: C_8  and  C_9
REMARK    6  A    between atoms: C_9  and  C_10
REMARK    7  A    between atoms: C_10  and  C_11
REMARK    8  A    between atoms: C_11  and  C_12
REMARK    9  A    between atoms: C_12  and  C_14
REMARK   10  A    between atoms: C_14  and  O_15
REMARK   11  A    between atoms: C_17  and  C_19
REMARK   12  A    between atoms: C_19  and  O_20
REMARK                            x       y       z     vdW  Elec       q    Type
REMARK                         _______ _______ _______ _____ _____    ______ ____
ROOT
ATOM      1  C   UNL     1      30.170 -23.405 -15.056  0.00  0.00    -0.009 C 
ENDROOT
BRANCH   1   2
ATOM      2  C   UNL     1      30.199 -24.551 -14.000  0.00  0.00    -0.065 C 
ATOM      3  C   UNL     1      31.613 -25.075 -13.737  0.00  0.00    -0.024 C 
BRANCH   2   4
ATOM      4  N   UNL     1      29.341 -25.686 -14.345  0.00  0.00    +0.382 N 
ATOM      5  H   UNL     1      28.371 -25.461 -14.117  0.00  0.00    -0.089 HD
ATOM      6  H   UNL     1      29.633 -26.506 -13.816  0.00  0.00    -0.089 HD
ATOM      7  H   UNL     1      29.418 -25.879 -15.343  0.00  0.00    -0.089 HD
ENDBRANCH   2   4
ENDBRANCH   1   2
BRANCH   1   8
ATOM      8  C   UNL     1      31.594 -22.925 -15.453  0.00  0.00    -0.002 C 
BRANCH   8   9
ATOM      9  C   UNL     1      31.900 -23.063 -16.948  0.00  0.00    -0.000 C 
BRANCH   9  10
ATOM     10  C   UNL     1      33.398 -23.054 -17.263  0.00  0.00    +0.001 C 
BRANCH  10  11
ATOM     11  C   UNL     1      33.782 -23.038 -18.748  0.00  0.00    +0.012 C 
BRANCH  11  12
ATOM     12  C   UNL     1      34.600 -21.820 -19.176  0.00  0.00    +0.109 C 
BRANCH  12  14
ATOM     13  O   UNL     1      32.592 -20.660 -19.870  0.00  0.00    -0.250 OA
ATOM     14  C   UNL     1      33.809 -20.783 -19.928  0.00  0.00    +0.314 C 
BRANCH  14  15
ATOM     15  O   UNL     1      34.617 -19.969 -20.650  0.00  0.00    -0.480 OA
ATOM     16  H   UNL     1      34.931 -20.245 -21.488  0.00  0.00    +0.295 HD
ENDBRANCH  14  15
ENDBRANCH  12  14
ENDBRANCH  11  12
ENDBRANCH  10  11
ENDBRANCH   9  10
ENDBRANCH   8   9
ENDBRANCH   1   8
BRANCH   1  17
ATOM     17  C   UNL     1      29.385 -23.784 -16.335  0.00  0.00    +0.107 C 
BRANCH  17  19
ATOM     18  O   UNL     1      27.888 -21.900 -15.934  0.00  0.00    -0.250 OA
ATOM     19  C   UNL     1      28.194 -22.882 -16.596  0.00  0.00    +0.314 C 
BRANCH  19  20
ATOM     20  O   UNL     1      27.503 -23.276 -17.698  0.00  0.00    -0.480 OA
ATOM     21  H   UNL     1      27.440 -22.709 -18.440  0.00  0.00    +0.295 HD
ENDBRANCH  19  20
ENDBRANCH  17  19
ENDBRANCH   1  17
TORSDOF 12
ENDMDL
MODEL 8
REMARK VINA RESULT:      -6.4     10.962     13.084
REMARK  Name = 5497016
REMARK  12 active torsions:
REMARK  status: ('A' for Active; 'I' for Inactive)
REMARK    1  A    between atoms: C_1  and  C_2
REMARK    2  A    between atoms: C_1  and  C_8
REMARK    3  A    between atoms: C_1  and  C_17
REMARK    4  A    between atoms: C_2  and  N_4
REMARK    5  A    between atoms: C_8  and  C_9
REMARK    6  A    between atoms: C_9  and  C_10
REMARK    7  A    between atoms: C_10  and  C_11
REMARK    8  A    between atoms: C_11  and  C_12
REMARK    9  A    between atoms: C_12  and  C_14
REMARK   10  A    between atoms: C_14  and  O_15
REMARK   11  A    between atoms: C_17  and  C_19
REMARK   12  A    between atoms: C_19  and  O_20
REMARK                            x       y       z     vdW  Elec       q    Type
REMARK                         _______ _______ _______ _____ _____    ______ ____
ROOT
ATOM      1  C   UNL     1      34.654 -15.356 -23.272  0.00  0.00    -0.009 C 
ENDROOT
BRANCH   1   2
ATOM      2  C   UNL     1      34.148 -14.536 -22.047  0.00  0.00    -0.065 C 
ATOM      3  C   UNL     1      34.395 -15.251 -20.715  0.00  0.00    -0.024 C 
BRANCH   2   4
ATOM      4  N   UNL     1      32.730 -14.181 -22.126  0.00  0.00    +0.382 N 
ATOM      5  H   UNL     1      32.282 -14.732 -22.859  0.00  0.00    -0.089 HD
ATOM      6  H   UNL     1      32.639 -13.189 -22.342  0.00  0.00    -0.089 HD
ATOM      7  H   UNL     1      32.281 -14.377 -21.232  0.00  0.00    -0.089 HD
ENDBRANCH   2   4
ENDBRANCH   1   2
BRANCH   1   8
ATOM      8  C   UNL     1      35.372 -16.670 -22.853  0.00  0.00    -0.002 C 
BRANCH   8   9
ATOM      9  C   UNL     1      34.855 -17.916 -23.581  0.00  0.00    -0.000 C 
BRANCH   9  10
ATOM     10  C   UNL     1      34.814 -19.162 -22.692  0.00  0.00    +0.001 C 
BRANCH  10  11
ATOM     11  C   UNL     1      34.355 -18.950 -21.244  0.00  0.00    +0.012 C 
BRANCH  11  12
ATOM     12  C   UNL     1      33.176 -19.826 -20.820  0.00  0.00    +0.109 C 
BRANCH  12  14
ATOM     13  O   UNL     1      32.781 -21.847 -19.548  0.00  0.00    -0.250 OA
ATOM     14  C   UNL     1      33.559 -20.988 -19.941  0.00  0.00    +0.314 C 
BRANCH  14  15
ATOM     15  O   UNL     1      34.886 -20.989 -19.671  0.00  0.00    -0.480 OA
ATOM     16  H   UNL     1      35.276 -21.725 -19.242  0.00  0.00    +0.295 HD
ENDBRANCH  14  15
ENDBRANCH  12  14
ENDBRANCH  11  12
ENDBRANCH  10  11
ENDBRANCH   9  10
ENDBRANCH   8   9
ENDBRANCH   1   8
BRANCH   1  17
ATOM     17  C   UNL     1      33.528 -15.688 -24.281  0.00  0.00    +0.107 C 
BRANCH  17  19
ATOM     18  O   UNL     1      33.637 -15.165 -26.660  0.00  0.00    -0.250 OA
ATOM     19  C   UNL     1      33.534 -14.789 -25.502  0.00  0.00    +0.314 C 
BRANCH  19  20
ATOM     20  O   UNL     1      33.375 -13.484 -25.159  0.00  0.00    -0.480 OA
ATOM     21  H   UNL     1      34.075 -12.875 -25.292  0.00  0.00    +0.295 HD
ENDBRANCH  19  20
ENDBRANCH  17  19
ENDBRANCH   1  17
TORSDOF 12
ENDMDL
MODEL 9
REMARK VINA RESULT:      -6.4     11.392     13.380
REMARK  Name = 5497016
REMARK  12 active torsions:
REMARK  status: ('A' for Active; 'I' for Inactive)
REMARK    1  A    between atoms: C_1  and  C_2
REMARK    2  A    between atoms: C_1  and  C_8
REMARK    3  A    between atoms: C_1  and  C_17
REMARK    4  A    between atoms: C_2  and  N_4
REMARK    5  A    between atoms: C_8  and  C_9
REMARK    6  A    between atoms: C_9  and  C_10
REMARK    7  A    between atoms: C_10  and  C_11
REMARK    8  A    between atoms: C_11  and  C_12
REMARK    9  A    between atoms: C_12  and  C_14
REMARK   10  A    between atoms: C_14  and  O_15
REMARK   11  A    between atoms: C_17  and  C_19
REMARK   12  A    between atoms: C_19  and  O_20
REMARK                            x       y       z     vdW  Elec       q    Type
REMARK                         _______ _______ _______ _____ _____    ______ ____
ROOT
ATOM      1  C   UNL     1      35.384 -18.399 -21.435  0.00  0.00    -0.009 C 
ENDROOT
BRANCH   1   2
ATOM      2  C   UNL     1      35.379 -19.868 -20.915  0.00  0.00    -0.065 C 
ATOM      3  C   UNL     1      34.003 -20.310 -20.408  0.00  0.00    -0.024 C 
BRANCH   2   4
ATOM      4  N   UNL     1      36.364 -20.119 -19.861  0.00  0.00    +0.382 N 
ATOM      5  H   UNL     1      37.304 -20.069 -20.256  0.00  0.00    -0.089 HD
ATOM      6  H   UNL     1      36.209 -21.045 -19.465  0.00  0.00    -0.089 HD
ATOM      7  H   UNL     1      36.265 -19.415 -19.130  0.00  0.00    -0.089 HD
ENDBRANCH   2   4
ENDBRANCH   1   2
BRANCH   1   8
ATOM      8  C   UNL     1      35.763 -18.300 -22.939  0.00  0.00    -0.002 C 
BRANCH   8   9
ATOM      9  C   UNL     1      34.679 -18.826 -23.887  0.00  0.00    -0.000 C 
BRANCH   9  10
ATOM     10  C   UNL     1      34.541 -17.998 -25.167  0.00  0.00    +0.001 C 
BRANCH  10  11
ATOM     11  C   UNL     1      34.453 -16.477 -24.989  0.00  0.00    +0.012 C 
BRANCH  11  12
ATOM     12  C   UNL     1      33.382 -15.802 -25.845  0.00  0.00    +0.109 C 
BRANCH  12  14
ATOM     13  O   UNL     1      32.918 -13.959 -24.345  0.00  0.00    -0.250 OA
ATOM     14  C   UNL     1      33.122 -14.363 -25.482  0.00  0.00    +0.314 C 
BRANCH  14  15
ATOM     15  O   UNL     1      33.185 -13.558 -26.570  0.00  0.00    -0.480 OA
ATOM     16  H   UNL     1      33.716 -12.787 -26.551  0.00  0.00    +0.295 HD
ENDBRANCH  14  15
ENDBRANCH  12  14
ENDBRANCH  11  12
ENDBRANCH  10  11
ENDBRANCH   9  10
ENDBRANCH   8   9
ENDBRANCH   1   8
BRANCH   1  17
ATOM     17  C   UNL     1      34.036 -17.673 -21.200  0.00  0.00    +0.107 C 
BRANCH  17  19
ATOM     18  O   UNL     1      34.967 -15.601 -20.312  0.00  0.00    -0.250 OA
ATOM     19  C   UNL     1      34.183 -16.170 -21.057  0.00  0.00    +0.314 C 
BRANCH  19  20
ATOM     20  O   UNL     1      33.346 -15.507 -21.897  0.00  0.00    -0.480 OA
ATOM     21  H   UNL     1      33.656 -14.768 -22.382  0.00  0.00    +0.295 HD
ENDBRANCH  19  20
ENDBRANCH  17  19
ENDBRANCH   1  17
TORSDOF 12
ENDMDL
