MODEL 1
REMARK VINA RESULT:      -9.3      0.000      0.000
REMARK  Name = 16923
REMARK  10 active torsions:
REMARK  status: ('A' for Active; 'I' for Inactive)
REMARK    1  A    between atoms: C_6  and  O_22
REMARK    2  A    between atoms: C_6  and  C_27
REMARK    3  A    between atoms: C_8  and  O_24
REMARK    4  A    between atoms: C_27  and  C_28
REMARK    5  A    between atoms: C_28  and  O_29
REMARK    6  A    between atoms: O_29  and  C_31
REMARK    7  A    between atoms: C_31  and  C_32
REMARK    8  A    between atoms: C_32  and  C_33
REMARK    9  A    between atoms: C_33  and  C_35
REMARK   10  A    between atoms: C_35  and  O_36
REMARK                            x       y       z     vdW  Elec       q    Type
REMARK                         _______ _______ _______ _____ _____    ______ ____
ROOT
ATOM      1  O   UNL     1      34.945  -9.807 -25.871  0.00  0.00    -0.287 OA
ATOM      2  C   UNL     1      34.682 -17.206 -22.336  0.00  0.00    +0.031 C 
ATOM      3  C   UNL     1      34.610 -16.865 -23.841  0.00  0.00    +0.003 C 
ATOM      4  C   UNL     1      33.694 -15.673 -24.158  0.00  0.00    +0.003 C 
ATOM      5  C   UNL     1      34.243 -14.406 -23.417  0.00  0.00    +0.034 C 
ATOM      6  C   UNL     1      35.607 -18.451 -22.401  0.00  0.00    +0.143 C 
ATOM      7  C   UNL     1      35.256 -15.972 -21.611  0.00  0.00    +0.032 C 
ATOM      8  C   UNL     1      34.464 -14.676 -21.894  0.00  0.00    +0.111 C 
ATOM      9  C   UNL     1      34.318 -18.214 -24.494  0.00  0.00    +0.003 C 
ATOM     10  C   UNL     1      33.426 -13.103 -23.780  0.00  0.00    +0.036 C 
ATOM     11  C   UNL     1      35.112 -19.227 -23.643  0.00  0.00    +0.034 C 
ATOM     12  C   UNL     1      33.619 -15.441 -25.678  0.00  0.00    +0.004 C 
ATOM     13  C   UNL     1      32.808 -14.191 -26.044  0.00  0.00    +0.019 C 
ATOM     14  C   UNL     1      33.309 -17.609 -21.731  0.00  0.00    +0.003 C 
ATOM     15  C   UNL     1      33.400 -12.985 -25.318  0.00  0.00    -0.038 C 
ATOM     16  C   UNL     1      31.968 -13.110 -23.266  0.00  0.00    +0.009 C 
ATOM     17  C   UNL     1      34.086 -11.892 -23.136  0.00  0.00    -0.020 C 
ATOM     18  C   UNL     1      32.709 -14.084 -27.572  0.00  0.00    +0.004 C 
ATOM     19  C   UNL     1      33.895 -11.917 -25.967  0.00  0.00    +0.034 C 
ATOM     20  C   UNL     1      34.576 -10.836 -23.789  0.00  0.00    +0.038 C 
ATOM     21  C   UNL     1      34.507 -10.774 -25.257  0.00  0.00    +0.195 C 
ENDROOT
BRANCH   6  22
ATOM     22  O   UNL     1      36.968 -18.076 -22.591  0.00  0.00    -0.380 OA
ATOM     23  H   UNL     1      37.393 -18.697 -23.205  0.00  0.00    +0.211 HD
ENDBRANCH   6  22
BRANCH   8  24
ATOM     24  O   UNL     1      33.229 -14.709 -21.193  0.00  0.00    -0.384 OA
ATOM     25  H   UNL     1      33.391 -14.925 -20.261  0.00  0.00    +0.210 HD
ENDBRANCH   8  24
BRANCH   6  27
ATOM     26  O   UNL     1      36.290 -18.959 -20.176  0.00  0.00    -0.290 OA
ATOM     27  C   UNL     1      35.622 -19.285 -21.156  0.00  0.00    +0.218 C 
BRANCH  27  28
ATOM     28  C   UNL     1      34.773 -20.538 -21.179  0.00  0.00    +0.274 C 
BRANCH  28  29
ATOM     29  O   UNL     1      33.887 -20.561 -20.079  0.00  0.00    -0.440 OA
BRANCH  29  31
ATOM     30  O   UNL     1      32.936 -22.317 -18.925  0.00  0.00    -0.250 OA
ATOM     31  C   UNL     1      33.920 -21.690 -19.296  0.00  0.00    +0.318 C 
BRANCH  31  32
ATOM     32  C   UNL     1      35.356 -22.032 -18.960  0.00  0.00    +0.121 C 
BRANCH  32  33
ATOM     33  C   UNL     1      35.574 -22.308 -17.477  0.00  0.00    +0.121 C 
BRANCH  33  35
ATOM     34  O   UNL     1      37.614 -22.265 -16.183  0.00  0.00    -0.250 OA
ATOM     35  C   UNL     1      36.882 -21.724 -17.000  0.00  0.00    +0.314 C 
BRANCH  35  36
ATOM     36  O   UNL     1      37.171 -20.540 -17.594  0.00  0.00    -0.480 OA
ATOM     37  H   UNL     1      36.580 -19.817 -17.512  0.00  0.00    +0.295 HD
ENDBRANCH  35  36
ENDBRANCH  33  35
ENDBRANCH  32  33
ENDBRANCH  31  32
ENDBRANCH  29  31
ENDBRANCH  28  29
ENDBRANCH  27  28
ENDBRANCH   6  27
TORSDOF 10
ENDMDL
MODEL 2
REMARK VINA RESULT:      -8.1      3.246      6.260
REMARK  Name = 16923
REMARK  10 active torsions:
REMARK  status: ('A' for Active; 'I' for Inactive)
REMARK    1  A    between atoms: C_6  and  O_22
REMARK    2  A    between atoms: C_6  and  C_27
REMARK    3  A    between atoms: C_8  and  O_24
REMARK    4  A    between atoms: C_27  and  C_28
REMARK    5  A    between atoms: C_28  and  O_29
REMARK    6  A    between atoms: O_29  and  C_31
REMARK    7  A    between atoms: C_31  and  C_32
REMARK    8  A    between atoms: C_32  and  C_33
REMARK    9  A    between atoms: C_33  and  C_35
REMARK   10  A    between atoms: C_35  and  O_36
REMARK                            x       y       z     vdW  Elec       q    Type
REMARK                         _______ _______ _______ _____ _____    ______ ____
ROOT
ATOM      1  O   UNL     1      30.870  -4.554 -23.970  0.00  0.00    -0.287 OA
ATOM      2  C   UNL     1      33.353 -12.369 -23.695  0.00  0.00    +0.031 C 
ATOM      3  C   UNL     1      32.457 -11.617 -22.685  0.00  0.00    +0.003 C 
ATOM      4  C   UNL     1      32.960 -10.204 -22.351  0.00  0.00    +0.003 C 
ATOM      5  C   UNL     1      32.993  -9.358 -23.669  0.00  0.00    +0.034 C 
ATOM      6  C   UNL     1      32.602 -13.728 -23.738  0.00  0.00    +0.143 C 
ATOM      7  C   UNL     1      33.357 -11.554 -25.004  0.00  0.00    +0.032 C 
ATOM      8  C   UNL     1      33.784 -10.083 -24.804  0.00  0.00    +0.111 C 
ATOM      9  C   UNL     1      32.281 -12.625 -21.552  0.00  0.00    +0.003 C 
ATOM     10  C   UNL     1      33.389  -7.851 -23.399  0.00  0.00    +0.036 C 
ATOM     11  C   UNL     1      32.208 -13.991 -22.267  0.00  0.00    +0.034 C 
ATOM     12  C   UNL     1      32.057  -9.549 -21.290  0.00  0.00    +0.004 C 
ATOM     13  C   UNL     1      32.447  -8.093 -21.003  0.00  0.00    +0.019 C 
ATOM     14  C   UNL     1      34.803 -12.591 -23.182  0.00  0.00    +0.003 C 
ATOM     15  C   UNL     1      32.438  -7.309 -22.313  0.00  0.00    -0.038 C 
ATOM     16  C   UNL     1      34.844  -7.660 -22.914  0.00  0.00    +0.009 C 
ATOM     17  C   UNL     1      33.276  -7.055 -24.692  0.00  0.00    -0.020 C 
ATOM     18  C   UNL     1      31.559  -7.546 -19.876  0.00  0.00    +0.004 C 
ATOM     19  C   UNL     1      31.637  -6.249 -22.519  0.00  0.00    +0.034 C 
ATOM     20  C   UNL     1      32.476  -6.005 -24.889  0.00  0.00    +0.038 C 
ATOM     21  C   UNL     1      31.603  -5.524 -23.807  0.00  0.00    +0.195 C 
ENDROOT
BRANCH   6  22
ATOM     22  O   UNL     1      31.425 -13.643 -24.535  0.00  0.00    -0.380 OA
ATOM     23  H   UNL     1      30.969 -14.500 -24.531  0.00  0.00    +0.211 HD
ENDBRANCH   6  22
BRANCH   8  24
ATOM     24  O   UNL     1      35.185 -10.020 -24.576  0.00  0.00    -0.384 OA
ATOM     25  H   UNL     1      35.647 -10.536 -25.255  0.00  0.00    +0.210 HD
ENDBRANCH   8  24
BRANCH   6  27
ATOM     26  O   UNL     1      33.603 -14.898 -25.556  0.00  0.00    -0.290 OA
ATOM     27  C   UNL     1      33.382 -14.853 -24.347  0.00  0.00    +0.218 C 
BRANCH  27  28
ATOM     28  C   UNL     1      33.876 -15.920 -23.392  0.00  0.00    +0.274 C 
BRANCH  28  29
ATOM     29  O   UNL     1      34.984 -16.604 -23.938  0.00  0.00    -0.440 OA
BRANCH  29  31
ATOM     30  O   UNL     1      34.066 -18.126 -25.407  0.00  0.00    -0.250 OA
ATOM     31  C   UNL     1      34.742 -17.868 -24.420  0.00  0.00    +0.318 C 
BRANCH  31  32
ATOM     32  C   UNL     1      35.435 -18.887 -23.540  0.00  0.00    +0.121 C 
BRANCH  32  33
ATOM     33  C   UNL     1      34.677 -19.178 -22.250  0.00  0.00    +0.121 C 
BRANCH  33  35
ATOM     34  O   UNL     1      36.143 -19.559 -20.367  0.00  0.00    -0.250 OA
ATOM     35  C   UNL     1      35.484 -18.777 -21.040  0.00  0.00    +0.314 C 
BRANCH  35  36
ATOM     36  O   UNL     1      35.420 -17.446 -20.788  0.00  0.00    -0.480 OA
ATOM     37  H   UNL     1      34.767 -17.110 -20.207  0.00  0.00    +0.295 HD
ENDBRANCH  35  36
ENDBRANCH  33  35
ENDBRANCH  32  33
ENDBRANCH  31  32
ENDBRANCH  29  31
ENDBRANCH  28  29
ENDBRANCH  27  28
ENDBRANCH   6  27
TORSDOF 10
ENDMDL
MODEL 3
REMARK VINA RESULT:      -8.0      3.269      6.723
REMARK  Name = 16923
REMARK  10 active torsions:
REMARK  status: ('A' for Active; 'I' for Inactive)
REMARK    1  A    between atoms: C_6  and  O_22
REMARK    2  A    between atoms: C_6  and  C_27
REMARK    3  A    between atoms: C_8  and  O_24
REMARK    4  A    between atoms: C_27  and  C_28
REMARK    5  A    between atoms: C_28  and  O_29
REMARK    6  A    between atoms: O_29  and  C_31
REMARK    7  A    between atoms: C_31  and  C_32
REMARK    8  A    between atoms: C_32  and  C_33
REMARK    9  A    between atoms: C_33  and  C_35
REMARK   10  A    between atoms: C_35  and  O_36
REMARK                            x       y       z     vdW  Elec       q    Type
REMARK                         _______ _______ _______ _____ _____    ______ ____
ROOT
ATOM      1  O   UNL     1      31.818  -4.276 -25.473  0.00  0.00    -0.287 OA
ATOM      2  C   UNL     1      33.385 -12.088 -23.516  0.00  0.00    +0.031 C 
ATOM      3  C   UNL     1      32.393 -11.116 -22.839  0.00  0.00    +0.003 C 
ATOM      4  C   UNL     1      32.965  -9.706 -22.625  0.00  0.00    +0.003 C 
ATOM      5  C   UNL     1      33.338  -9.098 -24.020  0.00  0.00    +0.034 C 
ATOM      6  C   UNL     1      32.521 -13.379 -23.509  0.00  0.00    +0.143 C 
ATOM      7  C   UNL     1      33.724 -11.507 -24.904  0.00  0.00    +0.032 C 
ATOM      8  C   UNL     1      34.254 -10.058 -24.844  0.00  0.00    +0.111 C 
ATOM      9  C   UNL     1      31.899 -11.904 -21.628  0.00  0.00    +0.003 C 
ATOM     10  C   UNL     1      33.828  -7.599 -23.904  0.00  0.00    +0.036 C 
ATOM     11  C   UNL     1      31.826 -13.362 -22.129  0.00  0.00    +0.034 C 
ATOM     12  C   UNL     1      31.947  -8.820 -21.885  0.00  0.00    +0.004 C 
ATOM     13  C   UNL     1      32.422  -7.367 -21.745  0.00  0.00    +0.019 C 
ATOM     14  C   UNL     1      34.678 -12.322 -22.688  0.00  0.00    +0.003 C 
ATOM     15  C   UNL     1      32.746  -6.816 -23.132  0.00  0.00    -0.038 C 
ATOM     16  C   UNL     1      35.174  -7.432 -23.163  0.00  0.00    +0.009 C 
ATOM     17  C   UNL     1      34.047  -7.026 -25.297  0.00  0.00    -0.020 C 
ATOM     18  C   UNL     1      31.395  -6.578 -20.922  0.00  0.00    +0.004 C 
ATOM     19  C   UNL     1      32.113  -5.753 -23.657  0.00  0.00    +0.034 C 
ATOM     20  C   UNL     1      33.413  -5.970 -25.811  0.00  0.00    +0.038 C 
ATOM     21  C   UNL     1      32.402  -5.254 -25.018  0.00  0.00    +0.195 C 
ENDROOT
BRANCH   6  22
ATOM     22  O   UNL     1      31.533 -13.346 -24.535  0.00  0.00    -0.380 OA
ATOM     23  H   UNL     1      31.643 -12.540 -25.065  0.00  0.00    +0.211 HD
ENDBRANCH   6  22
BRANCH   8  24
ATOM     24  O   UNL     1      35.584 -10.056 -24.344  0.00  0.00    -0.384 OA
ATOM     25  H   UNL     1      35.846 -10.962 -24.118  0.00  0.00    +0.210 HD
ENDBRANCH   8  24
BRANCH   6  27
ATOM     26  O   UNL     1      33.673 -14.935 -24.896  0.00  0.00    -0.290 OA
ATOM     27  C   UNL     1      33.284 -14.643 -23.767  0.00  0.00    +0.218 C 
BRANCH  27  28
ATOM     28  C   UNL     1      33.541 -15.527 -22.565  0.00  0.00    +0.274 C 
BRANCH  28  29
ATOM     29  O   UNL     1      34.905 -15.886 -22.493  0.00  0.00    -0.440 OA
BRANCH  29  31
ATOM     30  O   UNL     1      34.922 -17.313 -20.681  0.00  0.00    -0.250 OA
ATOM     31  C   UNL     1      35.189 -17.067 -21.850  0.00  0.00    +0.318 C 
BRANCH  31  32
ATOM     32  C   UNL     1      35.886 -18.010 -22.808  0.00  0.00    +0.121 C 
BRANCH  32  33
ATOM     33  C   UNL     1      34.917 -18.865 -23.616  0.00  0.00    +0.121 C 
BRANCH  33  35
ATOM     34  O   UNL     1      33.547 -18.498 -25.572  0.00  0.00    -0.250 OA
ATOM     35  C   UNL     1      34.511 -18.172 -24.893  0.00  0.00    +0.314 C 
BRANCH  35  36
ATOM     36  O   UNL     1      35.321 -17.128 -25.200  0.00  0.00    -0.480 OA
ATOM     37  H   UNL     1      35.363 -16.384 -24.631  0.00  0.00    +0.295 HD
ENDBRANCH  35  36
ENDBRANCH  33  35
ENDBRANCH  32  33
ENDBRANCH  31  32
ENDBRANCH  29  31
ENDBRANCH  28  29
ENDBRANCH  27  28
ENDBRANCH   6  27
TORSDOF 10
ENDMDL
MODEL 4
REMARK VINA RESULT:      -7.9      5.436      9.469
REMARK  Name = 16923
REMARK  10 active torsions:
REMARK  status: ('A' for Active; 'I' for Inactive)
REMARK    1  A    between atoms: C_6  and  O_22
REMARK    2  A    between atoms: C_6  and  C_27
REMARK    3  A    between atoms: C_8  and  O_24
REMARK    4  A    between atoms: C_27  and  C_28
REMARK    5  A    between atoms: C_28  and  O_29
REMARK    6  A    between atoms: O_29  and  C_31
REMARK    7  A    between atoms: C_31  and  C_32
REMARK    8  A    between atoms: C_32  and  C_33
REMARK    9  A    between atoms: C_33  and  C_35
REMARK   10  A    between atoms: C_35  and  O_36
REMARK                            x       y       z     vdW  Elec       q    Type
REMARK                         _______ _______ _______ _____ _____    ______ ____
ROOT
ATOM      1  O   UNL     1      33.093 -18.371 -21.399  0.00  0.00    -0.287 OA
ATOM      2  C   UNL     1      35.199 -23.548 -15.393  0.00  0.00    +0.031 C 
ATOM      3  C   UNL     1      36.066 -22.454 -16.057  0.00  0.00    +0.003 C 
ATOM      4  C   UNL     1      35.933 -22.409 -17.587  0.00  0.00    +0.003 C 
ATOM      5  C   UNL     1      34.439 -22.110 -17.953  0.00  0.00    +0.034 C 
ATOM      6  C   UNL     1      35.624 -23.346 -13.913  0.00  0.00    +0.143 C 
ATOM      7  C   UNL     1      33.726 -23.233 -15.724  0.00  0.00    +0.032 C 
ATOM      8  C   UNL     1      33.459 -23.095 -17.239  0.00  0.00    +0.111 C 
ATOM      9  C   UNL     1      37.445 -22.677 -15.441  0.00  0.00    +0.003 C 
ATOM     10  C   UNL     1      34.233 -21.931 -19.510  0.00  0.00    +0.036 C 
ATOM     11  C   UNL     1      37.148 -23.098 -13.987  0.00  0.00    +0.034 C 
ATOM     12  C   UNL     1      36.876 -21.346 -18.177  0.00  0.00    +0.004 C 
ATOM     13  C   UNL     1      36.701 -21.180 -19.693  0.00  0.00    +0.019 C 
ATOM     14  C   UNL     1      35.569 -24.986 -15.850  0.00  0.00    +0.003 C 
ATOM     15  C   UNL     1      35.237 -20.864 -19.991  0.00  0.00    -0.038 C 
ATOM     16  C   UNL     1      34.462 -23.222 -20.328  0.00  0.00    +0.009 C 
ATOM     17  C   UNL     1      32.795 -21.515 -19.789  0.00  0.00    -0.020 C 
ATOM     18  C   UNL     1      37.734 -20.170 -20.212  0.00  0.00    +0.004 C 
ATOM     19  C   UNL     1      34.847 -19.728 -20.595  0.00  0.00    +0.034 C 
ATOM     20  C   UNL     1      32.417 -20.383 -20.387  0.00  0.00    +0.038 C 
ATOM     21  C   UNL     1      33.425 -19.411 -20.840  0.00  0.00    +0.195 C 
ENDROOT
BRANCH   6  22
ATOM     22  O   UNL     1      34.988 -22.207 -13.342  0.00  0.00    -0.380 OA
ATOM     23  H   UNL     1      34.331 -21.857 -13.965  0.00  0.00    +0.211 HD
ENDBRANCH   6  22
BRANCH   8  24
ATOM     24  O   UNL     1      33.485 -24.379 -17.847  0.00  0.00    -0.384 OA
ATOM     25  H   UNL     1      33.437 -24.281 -18.811  0.00  0.00    +0.210 HD
ENDBRANCH   8  24
BRANCH   6  27
ATOM     26  O   UNL     1      34.083 -24.781 -12.799  0.00  0.00    -0.290 OA
ATOM     27  C   UNL     1      35.257 -24.475 -12.998  0.00  0.00    +0.218 C 
BRANCH  27  28
ATOM     28  C   UNL     1      36.409 -25.207 -12.342  0.00  0.00    +0.274 C 
BRANCH  28  29
ATOM     29  O   UNL     1      36.616 -26.462 -12.955  0.00  0.00    -0.440 OA
BRANCH  29  31
ATOM     30  O   UNL     1      37.959 -27.307 -14.629  0.00  0.00    -0.250 OA
ATOM     31  C   UNL     1      37.804 -26.622 -13.627  0.00  0.00    +0.318 C 
BRANCH  31  32
ATOM     32  C   UNL     1      38.889 -25.822 -12.935  0.00  0.00    +0.121 C 
BRANCH  32  33
ATOM     33  C   UNL     1      39.835 -25.130 -13.909  0.00  0.00    +0.121 C 
BRANCH  33  35
ATOM     34  O   UNL     1      41.392 -26.965 -14.124  0.00  0.00    -0.250 OA
ATOM     35  C   UNL     1      40.674 -26.132 -14.662  0.00  0.00    +0.314 C 
BRANCH  35  36
ATOM     36  O   UNL     1      40.530 -26.028 -16.006  0.00  0.00    -0.480 OA
ATOM     37  H   UNL     1      40.068 -26.691 -16.481  0.00  0.00    +0.295 HD
ENDBRANCH  35  36
ENDBRANCH  33  35
ENDBRANCH  32  33
ENDBRANCH  31  32
ENDBRANCH  29  31
ENDBRANCH  28  29
ENDBRANCH  27  28
ENDBRANCH   6  27
TORSDOF 10
ENDMDL
MODEL 5
REMARK VINA RESULT:      -7.0      5.397      9.502
REMARK  Name = 16923
REMARK  10 active torsions:
REMARK  status: ('A' for Active; 'I' for Inactive)
REMARK    1  A    between atoms: C_6  and  O_22
REMARK    2  A    between atoms: C_6  and  C_27
REMARK    3  A    between atoms: C_8  and  O_24
REMARK    4  A    between atoms: C_27  and  C_28
REMARK    5  A    between atoms: C_28  and  O_29
REMARK    6  A    between atoms: O_29  and  C_31
REMARK    7  A    between atoms: C_31  and  C_32
REMARK    8  A    between atoms: C_32  and  C_33
REMARK    9  A    between atoms: C_33  and  C_35
REMARK   10  A    between atoms: C_35  and  O_36
REMARK                            x       y       z     vdW  Elec       q    Type
REMARK                         _______ _______ _______ _____ _____    ______ ____
ROOT
ATOM      1  O   UNL     1      33.077 -18.207 -21.217  0.00  0.00    -0.287 OA
ATOM      2  C   UNL     1      35.411 -23.632 -15.522  0.00  0.00    +0.031 C 
ATOM      3  C   UNL     1      36.262 -22.533 -16.198  0.00  0.00    +0.003 C 
ATOM      4  C   UNL     1      36.042 -22.432 -17.715  0.00  0.00    +0.003 C 
ATOM      5  C   UNL     1      34.536 -22.091 -17.984  0.00  0.00    +0.034 C 
ATOM      6  C   UNL     1      35.925 -23.490 -14.064  0.00  0.00    +0.143 C 
ATOM      7  C   UNL     1      33.928 -23.275 -15.756  0.00  0.00    +0.032 C 
ATOM      8  C   UNL     1      33.577 -23.079 -17.247  0.00  0.00    +0.111 C 
ATOM      9  C   UNL     1      37.669 -22.805 -15.672  0.00  0.00    +0.003 C 
ATOM     10  C   UNL     1      34.244 -21.853 -19.519  0.00  0.00    +0.036 C 
ATOM     11  C   UNL     1      37.448 -23.271 -14.218  0.00  0.00    +0.034 C 
ATOM     12  C   UNL     1      36.972 -21.368 -18.324  0.00  0.00    +0.004 C 
ATOM     13  C   UNL     1      36.714 -21.146 -19.820  0.00  0.00    +0.019 C 
ATOM     14  C   UNL     1      35.722 -25.060 -16.048  0.00  0.00    +0.003 C 
ATOM     15  C   UNL     1      35.242 -20.790 -20.022  0.00  0.00    -0.038 C 
ATOM     16  C   UNL     1      34.397 -23.119 -20.392  0.00  0.00    +0.009 C 
ATOM     17  C   UNL     1      32.803 -21.398 -19.699  0.00  0.00    -0.020 C 
ATOM     18  C   UNL     1      37.737 -20.140 -20.365  0.00  0.00    +0.004 C 
ATOM     19  C   UNL     1      34.844 -19.626 -20.563  0.00  0.00    +0.034 C 
ATOM     20  C   UNL     1      32.416 -20.239 -20.235  0.00  0.00    +0.038 C 
ATOM     21  C   UNL     1      33.417 -19.272 -20.713  0.00  0.00    +0.195 C 
ENDROOT
BRANCH   6  22
ATOM     22  O   UNL     1      35.348 -22.359 -13.418  0.00  0.00    -0.380 OA
ATOM     23  H   UNL     1      34.420 -22.270 -13.689  0.00  0.00    +0.211 HD
ENDBRANCH   6  22
BRANCH   8  24
ATOM     24  O   UNL     1      33.540 -24.341 -17.898  0.00  0.00    -0.384 OA
ATOM     25  H   UNL     1      32.757 -24.833 -17.606  0.00  0.00    +0.210 HD
ENDBRANCH   8  24
BRANCH   6  27
ATOM     26  O   UNL     1      36.305 -25.639 -13.108  0.00  0.00    -0.290 OA
ATOM     27  C   UNL     1      35.587 -24.643 -13.167  0.00  0.00    +0.218 C 
BRANCH  27  28
ATOM     28  C   UNL     1      34.321 -24.505 -12.349  0.00  0.00    +0.274 C 
BRANCH  28  29
ATOM     29  O   UNL     1      33.194 -24.900 -13.102  0.00  0.00    -0.440 OA
BRANCH  29  31
ATOM     30  O   UNL     1      32.174 -22.865 -12.732  0.00  0.00    -0.250 OA
ATOM     31  C   UNL     1      32.132 -24.028 -13.111  0.00  0.00    +0.318 C 
BRANCH  31  32
ATOM     32  C   UNL     1      30.906 -24.728 -13.658  0.00  0.00    +0.121 C 
BRANCH  32  33
ATOM     33  C   UNL     1      30.363 -24.081 -14.926  0.00  0.00    +0.121 C 
BRANCH  33  35
ATOM     34  O   UNL     1      28.468 -24.456 -16.379  0.00  0.00    -0.250 OA
ATOM     35  C   UNL     1      29.029 -24.672 -15.313  0.00  0.00    +0.314 C 
BRANCH  35  36
ATOM     36  O   UNL     1      28.525 -25.492 -14.358  0.00  0.00    -0.480 OA
ATOM     37  H   UNL     1      28.088 -25.130 -13.612  0.00  0.00    +0.295 HD
ENDBRANCH  35  36
ENDBRANCH  33  35
ENDBRANCH  32  33
ENDBRANCH  31  32
ENDBRANCH  29  31
ENDBRANCH  28  29
ENDBRANCH  27  28
ENDBRANCH   6  27
TORSDOF 10
ENDMDL
