MODEL 1
REMARK VINA RESULT:     -10.7      0.000      0.000
REMARK  Name = 16049404
REMARK  7 active torsions:
REMARK  status: ('A' for Active; 'I' for Inactive)
REMARK    1  A    between atoms: C_3  and  C_30
REMARK    2  A    between atoms: C_4  and  C_18
REMARK    3  A    between atoms: C_15  and  C_27
REMARK    4  A    between atoms: N_29  and  C_31
REMARK    5  A    between atoms: N_29  and  C_34
REMARK    6  A    between atoms: C_31  and  C_32
REMARK    7  A    between atoms: C_34  and  C_35
REMARK                            x       y       z     vdW  Elec       q    Type
REMARK                         _______ _______ _______ _____ _____    ______ ____
ROOT
ATOM      1  N   UNL     1      34.188 -11.505 -24.645  0.00  0.00    -0.396 NA
ATOM      2  N   UNL     1      34.939  -9.593 -25.754  0.00  0.00    -0.336 N 
ATOM      3  C   UNL     1      32.510  -9.349 -23.374  0.00  0.00    +0.040 C 
ATOM      4  C   UNL     1      33.635 -14.235 -22.225  0.00  0.00    -0.015 C 
ATOM      5  C   UNL     1      33.997  -9.303 -23.508  0.00  0.00    +0.105 C 
ATOM      6  C   UNL     1      32.487 -11.745 -22.823  0.00  0.00    +0.026 C 
ATOM      7  C   UNL     1      31.819 -10.457 -23.069  0.00  0.00    +0.003 C 
ATOM      8  C   UNL     1      33.614 -12.186 -23.552  0.00  0.00    +0.114 C 
ATOM      9  C   UNL     1      34.169 -13.437 -23.237  0.00  0.00    +0.085 C 
ATOM     10  C   UNL     1      32.520 -13.802 -21.518  0.00  0.00    -0.004 C 
ATOM     11  C   UNL     1      31.947 -12.567 -21.819  0.00  0.00    +0.002 C 
ATOM     12  C   UNL     1      34.378 -10.214 -24.664  0.00  0.00    +0.158 C 
ATOM     13  H   UNL     1      35.209 -10.124 -26.537  0.00  0.00    +0.144 HD
ATOM     14  H   UNL     1      35.072  -8.618 -25.751  0.00  0.00    +0.144 HD
ENDROOT
BRANCH   4  18
ATOM     15  C   UNL     1      35.386 -17.988 -21.332  0.00  0.00    +0.054 C 
ATOM     16  C   UNL     1      35.142 -17.070 -20.310  0.00  0.00    +0.005 C 
ATOM     17  C   UNL     1      35.052 -17.670 -22.649  0.00  0.00    +0.005 C 
ATOM     18  C   UNL     1      34.232 -15.517 -21.921  0.00  0.00    -0.004 C 
ATOM     19  C   UNL     1      34.566 -15.835 -20.604  0.00  0.00    -0.000 C 
ATOM     20  C   UNL     1      34.475 -16.435 -22.943  0.00  0.00    -0.000 C 
BRANCH  15  27
ATOM     21  O   UNL     1      37.205 -19.409 -21.207  0.00  0.00    -0.270 OA
ATOM     22  N   UNL     1      35.163 -20.287 -20.534  0.00  0.00    -0.276 N 
ATOM     23  C   UNL     1      33.419 -21.402 -19.407  0.00  0.00    +0.023 C 
ATOM     24  C   UNL     1      34.451 -22.428 -19.857  0.00  0.00    +0.023 C 
ATOM     25  C   UNL     1      33.723 -20.204 -20.294  0.00  0.00    +0.094 C 
ATOM     26  C   UNL     1      35.686 -21.576 -20.107  0.00  0.00    +0.094 C 
ATOM     27  C   UNL     1      35.995 -19.291 -21.021  0.00  0.00    +0.249 C 
ENDBRANCH  15  27
ENDBRANCH   4  18
BRANCH   3  30
ATOM     28  O   UNL     1      30.999  -8.047 -24.567  0.00  0.00    -0.270 OA
ATOM     29  N   UNL     1      31.877  -7.100 -22.629  0.00  0.00    -0.276 N 
ATOM     30  C   UNL     1      31.739  -8.119 -23.578  0.00  0.00    +0.245 C 
BRANCH  29  31
ATOM     31  C   UNL     1      31.144  -5.841 -22.727  0.00  0.00    +0.094 C 
BRANCH  31  32
ATOM     32  C   UNL     1      31.836  -4.836 -23.640  0.00  0.00    +0.022 C 
ATOM     33  C   UNL     1      31.027  -4.521 -24.890  0.00  0.00    +0.002 C 
ENDBRANCH  31  32
ENDBRANCH  29  31
BRANCH  29  34
ATOM     34  C   UNL     1      32.761  -7.227 -21.477  0.00  0.00    +0.094 C 
BRANCH  34  35
ATOM     35  C   UNL     1      31.999  -7.508 -20.188  0.00  0.00    +0.022 C 
ATOM     36  C   UNL     1      32.084  -8.966 -19.760  0.00  0.00    +0.002 C 
ENDBRANCH  34  35
ENDBRANCH  29  34
ENDBRANCH   3  30
TORSDOF 7
ENDMDL
MODEL 2
REMARK VINA RESULT:     -10.4      5.132     13.931
REMARK  Name = 16049404
REMARK  7 active torsions:
REMARK  status: ('A' for Active; 'I' for Inactive)
REMARK    1  A    between atoms: C_3  and  C_30
REMARK    2  A    between atoms: C_4  and  C_18
REMARK    3  A    between atoms: C_15  and  C_27
REMARK    4  A    between atoms: N_29  and  C_31
REMARK    5  A    between atoms: N_29  and  C_34
REMARK    6  A    between atoms: C_31  and  C_32
REMARK    7  A    between atoms: C_34  and  C_35
REMARK                            x       y       z     vdW  Elec       q    Type
REMARK                         _______ _______ _______ _____ _____    ______ ____
ROOT
ATOM      1  N   UNL     1      33.138 -23.218 -17.461  0.00  0.00    -0.396 NA
ATOM      2  N   UNL     1      31.645 -24.137 -15.921  0.00  0.00    -0.336 N 
ATOM      3  C   UNL     1      34.890 -23.579 -15.036  0.00  0.00    +0.040 C 
ATOM      4  C   UNL     1      35.271 -20.947 -19.439  0.00  0.00    -0.015 C 
ATOM      5  C   UNL     1      33.563 -22.892 -15.034  0.00  0.00    +0.105 C 
ATOM      6  C   UNL     1      35.553 -22.610 -17.195  0.00  0.00    +0.026 C 
ATOM      7  C   UNL     1      35.795 -23.459 -16.019  0.00  0.00    +0.003 C 
ATOM      8  C   UNL     1      34.292 -22.491 -17.821  0.00  0.00    +0.114 C 
ATOM      9  C   UNL     1      34.176 -21.655 -18.944  0.00  0.00    +0.085 C 
ATOM     10  C   UNL     1      36.511 -21.074 -18.826  0.00  0.00    -0.004 C 
ATOM     11  C   UNL     1      36.653 -21.905 -17.715  0.00  0.00    +0.002 C 
ATOM     12  C   UNL     1      32.777 -23.420 -16.223  0.00  0.00    +0.158 C 
ATOM     13  H   UNL     1      31.089 -24.507 -16.644  0.00  0.00    +0.144 HD
ATOM     14  H   UNL     1      31.389 -24.281 -14.981  0.00  0.00    +0.144 HD
ENDROOT
BRANCH   4  18
ATOM     15  C   UNL     1      34.822 -18.440 -22.824  0.00  0.00    +0.054 C 
ATOM     16  C   UNL     1      33.739 -19.186 -22.359  0.00  0.00    +0.005 C 
ATOM     17  C   UNL     1      36.054 -18.519 -22.174  0.00  0.00    +0.005 C 
ATOM     18  C   UNL     1      35.118 -20.090 -20.595  0.00  0.00    -0.004 C 
ATOM     19  C   UNL     1      33.887 -20.010 -21.245  0.00  0.00    -0.000 C 
ATOM     20  C   UNL     1      36.201 -19.344 -21.059  0.00  0.00    -0.000 C 
BRANCH  15  27
ATOM     21  O   UNL     1      34.942 -18.048 -25.099  0.00  0.00    -0.270 OA
ATOM     22  N   UNL     1      34.209 -16.278 -23.786  0.00  0.00    -0.276 N 
ATOM     23  C   UNL     1      33.066 -14.422 -22.890  0.00  0.00    +0.023 C 
ATOM     24  C   UNL     1      33.670 -14.029 -24.232  0.00  0.00    +0.023 C 
ATOM     25  C   UNL     1      33.866 -15.658 -22.507  0.00  0.00    +0.094 C 
ATOM     26  C   UNL     1      33.930 -15.374 -24.892  0.00  0.00    +0.094 C 
ATOM     27  C   UNL     1      34.665 -17.570 -24.000  0.00  0.00    +0.249 C 
ENDBRANCH  15  27
ENDBRANCH   4  18
BRANCH   3  30
ATOM     28  O   UNL     1      34.398 -24.636 -13.025  0.00  0.00    -0.270 OA
ATOM     29  N   UNL     1      36.531 -24.993 -13.888  0.00  0.00    -0.276 N 
ATOM     30  C   UNL     1      35.248 -24.437 -13.903  0.00  0.00    +0.245 C 
BRANCH  29  31
ATOM     31  C   UNL     1      36.986 -25.873 -12.815  0.00  0.00    +0.094 C 
BRANCH  31  32
ATOM     32  C   UNL     1      37.376 -25.104 -11.559  0.00  0.00    +0.022 C 
ATOM     33  C   UNL     1      38.215 -23.870 -11.860  0.00  0.00    +0.002 C 
ENDBRANCH  31  32
ENDBRANCH  29  31
BRANCH  29  34
ATOM     34  C   UNL     1      37.503 -24.733 -14.943  0.00  0.00    +0.094 C 
BRANCH  34  35
ATOM     35  C   UNL     1      38.586 -25.803 -15.012  0.00  0.00    +0.022 C 
ATOM     36  C   UNL     1      39.992 -25.220 -14.969  0.00  0.00    +0.002 C 
ENDBRANCH  34  35
ENDBRANCH  29  34
ENDBRANCH   3  30
TORSDOF 7
ENDMDL
MODEL 3
REMARK VINA RESULT:      -9.9      4.951      8.938
REMARK  Name = 16049404
REMARK  7 active torsions:
REMARK  status: ('A' for Active; 'I' for Inactive)
REMARK    1  A    between atoms: C_3  and  C_30
REMARK    2  A    between atoms: C_4  and  C_18
REMARK    3  A    between atoms: C_15  and  C_27
REMARK    4  A    between atoms: N_29  and  C_31
REMARK    5  A    between atoms: N_29  and  C_34
REMARK    6  A    between atoms: C_31  and  C_32
REMARK    7  A    between atoms: C_34  and  C_35
REMARK                            x       y       z     vdW  Elec       q    Type
REMARK                         _______ _______ _______ _____ _____    ______ ____
ROOT
ATOM      1  N   UNL     1      36.897 -19.919 -21.194  0.00  0.00    -0.396 NA
ATOM      2  N   UNL     1      38.232 -18.400 -22.360  0.00  0.00    -0.336 N 
ATOM      3  C   UNL     1      34.838 -18.290 -22.674  0.00  0.00    +0.040 C 
ATOM      4  C   UNL     1      34.717 -21.587 -18.727  0.00  0.00    -0.015 C 
ATOM      5  C   UNL     1      35.935 -17.718 -21.835  0.00  0.00    +0.105 C 
ATOM      6  C   UNL     1      34.403 -20.135 -21.108  0.00  0.00    +0.026 C 
ATOM      7  C   UNL     1      34.144 -19.391 -22.351  0.00  0.00    +0.003 C 
ATOM      8  C   UNL     1      35.697 -20.330 -20.577  0.00  0.00    +0.114 C 
ATOM      9  C   UNL     1      35.830 -21.062 -19.385  0.00  0.00    +0.085 C 
ATOM     10  C   UNL     1      33.448 -21.401 -19.259  0.00  0.00    -0.004 C 
ATOM     11  C   UNL     1      33.292 -20.685 -20.445  0.00  0.00    +0.002 C 
ATOM     12  C   UNL     1      37.044 -18.756 -21.768  0.00  0.00    +0.158 C 
ATOM     13  H   UNL     1      38.992 -19.025 -22.352  0.00  0.00    +0.144 HD
ATOM     14  H   UNL     1      38.323 -17.520 -22.790  0.00  0.00    +0.144 HD
ENDROOT
BRANCH   4  18
ATOM     15  C   UNL     1      35.208 -23.770 -15.130  0.00  0.00    +0.054 C 
ATOM     16  C   UNL     1      34.021 -23.875 -15.854  0.00  0.00    +0.005 C 
ATOM     17  C   UNL     1      36.236 -22.946 -15.591  0.00  0.00    +0.005 C 
ATOM     18  C   UNL     1      34.886 -22.333 -17.499  0.00  0.00    -0.004 C 
ATOM     19  C   UNL     1      33.860 -23.157 -17.038  0.00  0.00    -0.000 C 
ATOM     20  C   UNL     1      36.074 -22.228 -16.776  0.00  0.00    -0.000 C 
BRANCH  15  27
ATOM     21  O   UNL     1      34.377 -24.718 -13.193  0.00  0.00    -0.270 OA
ATOM     22  N   UNL     1      36.652 -24.982 -13.574  0.00  0.00    -0.276 N 
ATOM     23  C   UNL     1      38.850 -25.806 -13.780  0.00  0.00    +0.023 C 
ATOM     24  C   UNL     1      38.419 -25.909 -12.322  0.00  0.00    +0.023 C 
ATOM     25  C   UNL     1      37.875 -24.787 -14.351  0.00  0.00    +0.094 C 
ATOM     26  C   UNL     1      36.904 -25.822 -12.412  0.00  0.00    +0.094 C 
ATOM     27  C   UNL     1      35.378 -24.529 -13.880  0.00  0.00    +0.249 C 
ENDBRANCH  15  27
ENDBRANCH   4  18
BRANCH   3  30
ATOM     28  O   UNL     1      34.480 -18.286 -24.970  0.00  0.00    -0.270 OA
ATOM     29  N   UNL     1      34.140 -16.264 -23.865  0.00  0.00    -0.276 N 
ATOM     30  C   UNL     1      34.479 -17.620 -23.927  0.00  0.00    +0.245 C 
BRANCH  29  31
ATOM     31  C   UNL     1      33.751 -15.504 -25.050  0.00  0.00    +0.094 C 
BRANCH  31  32
ATOM     32  C   UNL     1      33.337 -14.077 -24.715  0.00  0.00    +0.022 C 
ATOM     33  C   UNL     1      33.349 -13.159 -25.929  0.00  0.00    +0.002 C 
ENDBRANCH  31  32
ENDBRANCH  29  31
BRANCH  29  34
ATOM     34  C   UNL     1      34.151 -15.517 -22.614  0.00  0.00    +0.094 C 
BRANCH  34  35
ATOM     35  C   UNL     1      32.847 -15.664 -21.839  0.00  0.00    +0.022 C 
ATOM     36  C   UNL     1      32.892 -14.985 -20.477  0.00  0.00    +0.002 C 
ENDBRANCH  34  35
ENDBRANCH  29  34
ENDBRANCH   3  30
TORSDOF 7
ENDMDL
MODEL 4
REMARK VINA RESULT:      -9.8      1.435      1.970
REMARK  Name = 16049404
REMARK  7 active torsions:
REMARK  status: ('A' for Active; 'I' for Inactive)
REMARK    1  A    between atoms: C_3  and  C_30
REMARK    2  A    between atoms: C_4  and  C_18
REMARK    3  A    between atoms: C_15  and  C_27
REMARK    4  A    between atoms: N_29  and  C_31
REMARK    5  A    between atoms: N_29  and  C_34
REMARK    6  A    between atoms: C_31  and  C_32
REMARK    7  A    between atoms: C_34  and  C_35
REMARK                            x       y       z     vdW  Elec       q    Type
REMARK                         _______ _______ _______ _____ _____    ______ ____
ROOT
ATOM      1  N   UNL     1      34.396 -11.258 -24.995  0.00  0.00    -0.396 NA
ATOM      2  N   UNL     1      35.715  -9.751 -26.193  0.00  0.00    -0.336 N 
ATOM      3  C   UNL     1      33.546  -8.616 -23.819  0.00  0.00    +0.040 C 
ATOM      4  C   UNL     1      33.018 -13.546 -22.448  0.00  0.00    -0.015 C 
ATOM      5  C   UNL     1      34.963  -9.070 -23.960  0.00  0.00    +0.105 C 
ATOM      6  C   UNL     1      32.745 -10.844 -23.157  0.00  0.00    +0.026 C 
ATOM      7  C   UNL     1      32.534  -9.420 -23.461  0.00  0.00    +0.003 C 
ATOM      8  C   UNL     1      33.649 -11.663 -23.868  0.00  0.00    +0.114 C 
ATOM      9  C   UNL     1      33.767 -13.013 -23.497  0.00  0.00    +0.085 C 
ATOM     10  C   UNL     1      32.122 -12.739 -21.758  0.00  0.00    -0.004 C 
ATOM     11  C   UNL     1      31.982 -11.398 -22.114  0.00  0.00    +0.002 C 
ATOM     12  C   UNL     1      35.000 -10.104 -25.074  0.00  0.00    +0.158 C 
ATOM     13  H   UNL     1      35.780 -10.374 -26.952  0.00  0.00    +0.144 HD
ATOM     14  H   UNL     1      36.162  -8.875 -26.236  0.00  0.00    +0.144 HD
ENDROOT
BRANCH   4  18
ATOM     15  C   UNL     1      33.449 -17.626 -21.392  0.00  0.00    +0.054 C 
ATOM     16  C   UNL     1      34.171 -17.102 -22.464  0.00  0.00    +0.005 C 
ATOM     17  C   UNL     1      32.584 -16.805 -20.666  0.00  0.00    +0.005 C 
ATOM     18  C   UNL     1      33.165 -14.939 -22.086  0.00  0.00    -0.004 C 
ATOM     19  C   UNL     1      34.030 -15.759 -22.811  0.00  0.00    -0.000 C 
ATOM     20  C   UNL     1      32.443 -15.462 -21.013  0.00  0.00    -0.000 C 
BRANCH  15  27
ATOM     21  O   UNL     1      32.586 -19.741 -21.039  0.00  0.00    -0.270 OA
ATOM     22  N   UNL     1      34.870 -19.490 -20.701  0.00  0.00    -0.276 N 
ATOM     23  C   UNL     1      37.211 -19.753 -20.651  0.00  0.00    +0.023 C 
ATOM     24  C   UNL     1      36.569 -20.918 -19.908  0.00  0.00    +0.023 C 
ATOM     25  C   UNL     1      36.105 -18.709 -20.668  0.00  0.00    +0.094 C 
ATOM     26  C   UNL     1      35.137 -20.893 -20.419  0.00  0.00    +0.094 C 
ATOM     27  C   UNL     1      33.599 -19.043 -21.026  0.00  0.00    +0.249 C 
ENDBRANCH  15  27
ENDBRANCH   4  18
BRANCH   3  30
ATOM     28  O   UNL     1      33.815  -6.630 -24.995  0.00  0.00    -0.270 OA
ATOM     29  N   UNL     1      32.243  -6.612 -23.277  0.00  0.00    -0.276 N 
ATOM     30  C   UNL     1      33.221  -7.211 -24.078  0.00  0.00    +0.245 C 
BRANCH  29  31
ATOM     31  C   UNL     1      31.832  -5.222 -23.459  0.00  0.00    +0.094 C 
BRANCH  31  32
ATOM     32  C   UNL     1      31.003  -5.022 -24.722  0.00  0.00    +0.022 C 
ATOM     33  C   UNL     1      31.573  -3.946 -25.635  0.00  0.00    +0.002 C 
ENDBRANCH  31  32
ENDBRANCH  29  31
BRANCH  29  34
ATOM     34  C   UNL     1      31.567  -7.334 -22.206  0.00  0.00    +0.094 C 
BRANCH  34  35
ATOM     35  C   UNL     1      32.106  -6.967 -20.828  0.00  0.00    +0.022 C 
ATOM     36  C   UNL     1      32.360  -8.185 -19.952  0.00  0.00    +0.002 C 
ENDBRANCH  34  35
ENDBRANCH  29  34
ENDBRANCH   3  30
TORSDOF 7
ENDMDL
MODEL 5
REMARK VINA RESULT:      -9.6      4.520     13.135
REMARK  Name = 16049404
REMARK  7 active torsions:
REMARK  status: ('A' for Active; 'I' for Inactive)
REMARK    1  A    between atoms: C_3  and  C_30
REMARK    2  A    between atoms: C_4  and  C_18
REMARK    3  A    between atoms: C_15  and  C_27
REMARK    4  A    between atoms: N_29  and  C_31
REMARK    5  A    between atoms: N_29  and  C_34
REMARK    6  A    between atoms: C_31  and  C_32
REMARK    7  A    between atoms: C_34  and  C_35
REMARK                            x       y       z     vdW  Elec       q    Type
REMARK                         _______ _______ _______ _____ _____    ______ ____
ROOT
ATOM      1  N   UNL     1      33.532 -22.695 -18.742  0.00  0.00    -0.396 NA
ATOM      2  N   UNL     1      32.146 -23.898 -17.300  0.00  0.00    -0.336 N 
ATOM      3  C   UNL     1      35.304 -23.055 -16.331  0.00  0.00    +0.040 C 
ATOM      4  C   UNL     1      35.403 -20.046 -20.502  0.00  0.00    -0.015 C 
ATOM      5  C   UNL     1      33.908 -22.523 -16.290  0.00  0.00    +0.105 C 
ATOM      6  C   UNL     1      35.862 -21.844 -18.397  0.00  0.00    +0.026 C 
ATOM      7  C   UNL     1      36.193 -22.754 -17.289  0.00  0.00    +0.003 C 
ATOM      8  C   UNL     1      34.598 -21.817 -19.027  0.00  0.00    +0.114 C 
ATOM      9  C   UNL     1      34.392 -20.911 -20.080  0.00  0.00    +0.085 C 
ATOM     10  C   UNL     1      36.647 -20.084 -19.886  0.00  0.00    -0.004 C 
ATOM     11  C   UNL     1      36.877 -20.981 -18.844  0.00  0.00    +0.002 C 
ATOM     12  C   UNL     1      33.191 -23.036 -17.529  0.00  0.00    +0.158 C 
ATOM     13  H   UNL     1      31.637 -24.267 -18.057  0.00  0.00    +0.144 HD
ATOM     14  H   UNL     1      31.905 -24.145 -16.378  0.00  0.00    +0.144 HD
ENDROOT
BRANCH   4  18
ATOM     15  C   UNL     1      34.687 -17.334 -23.677  0.00  0.00    +0.054 C 
ATOM     16  C   UNL     1      35.119 -16.860 -22.438  0.00  0.00    +0.005 C 
ATOM     17  C   UNL     1      34.491 -18.701 -23.871  0.00  0.00    +0.005 C 
ATOM     18  C   UNL     1      35.159 -19.120 -21.587  0.00  0.00    -0.004 C 
ATOM     19  C   UNL     1      35.355 -17.753 -21.394  0.00  0.00    -0.000 C 
ATOM     20  C   UNL     1      34.727 -19.595 -22.826  0.00  0.00    -0.000 C 
BRANCH  15  27
ATOM     21  O   UNL     1      34.744 -16.754 -25.913  0.00  0.00    -0.270 OA
ATOM     22  N   UNL     1      33.871 -15.167 -24.460  0.00  0.00    -0.276 N 
ATOM     23  C   UNL     1      32.577 -13.498 -23.414  0.00  0.00    +0.023 C 
ATOM     24  C   UNL     1      33.127 -12.947 -24.723  0.00  0.00    +0.023 C 
ATOM     25  C   UNL     1      33.489 -14.683 -23.134  0.00  0.00    +0.094 C 
ATOM     26  C   UNL     1      33.498 -14.207 -25.489  0.00  0.00    +0.094 C 
ATOM     27  C   UNL     1      34.438 -16.391 -24.779  0.00  0.00    +0.249 C 
ENDBRANCH  15  27
ENDBRANCH   4  18
BRANCH   3  30
ATOM     28  O   UNL     1      36.833 -24.542 -15.409  0.00  0.00    -0.270 OA
ATOM     29  N   UNL     1      34.935 -24.089 -14.139  0.00  0.00    -0.276 N 
ATOM     30  C   UNL     1      35.753 -23.956 -15.266  0.00  0.00    +0.245 C 
BRANCH  29  31
ATOM     31  C   UNL     1      35.293 -24.948 -13.014  0.00  0.00    +0.094 C 
BRANCH  31  32
ATOM     32  C   UNL     1      35.581 -24.154 -11.745  0.00  0.00    +0.022 C 
ATOM     33  C   UNL     1      36.758 -23.202 -11.901  0.00  0.00    +0.002 C 
ENDBRANCH  31  32
ENDBRANCH  29  31
BRANCH  29  34
ATOM     34  C   UNL     1      33.668 -23.378 -14.011  0.00  0.00    +0.094 C 
BRANCH  34  35
ATOM     35  C   UNL     1      32.499 -24.319 -13.748  0.00  0.00    +0.022 C 
ATOM     36  C   UNL     1      31.168 -23.589 -13.641  0.00  0.00    +0.002 C 
ENDBRANCH  34  35
ENDBRANCH  29  34
ENDBRANCH   3  30
TORSDOF 7
ENDMDL
MODEL 6
REMARK VINA RESULT:      -9.4      3.051      5.578
REMARK  Name = 16049404
REMARK  7 active torsions:
REMARK  status: ('A' for Active; 'I' for Inactive)
REMARK    1  A    between atoms: C_3  and  C_30
REMARK    2  A    between atoms: C_4  and  C_18
REMARK    3  A    between atoms: C_15  and  C_27
REMARK    4  A    between atoms: N_29  and  C_31
REMARK    5  A    between atoms: N_29  and  C_34
REMARK    6  A    between atoms: C_31  and  C_32
REMARK    7  A    between atoms: C_34  and  C_35
REMARK                            x       y       z     vdW  Elec       q    Type
REMARK                         _______ _______ _______ _____ _____    ______ ____
ROOT
ATOM      1  N   UNL     1      33.659 -15.211 -21.543  0.00  0.00    -0.396 NA
ATOM      2  N   UNL     1      32.609 -13.128 -21.592  0.00  0.00    -0.336 N 
ATOM      3  C   UNL     1      33.422 -14.702 -24.505  0.00  0.00    +0.040 C 
ATOM      4  C   UNL     1      34.416 -18.822 -21.590  0.00  0.00    -0.015 C 
ATOM      5  C   UNL     1      32.294 -14.599 -23.529  0.00  0.00    +0.105 C 
ATOM      6  C   UNL     1      34.362 -16.703 -23.428  0.00  0.00    +0.026 C 
ATOM      7  C   UNL     1      34.367 -15.653 -24.459  0.00  0.00    +0.003 C 
ATOM      8  C   UNL     1      33.990 -16.471 -22.086  0.00  0.00    +0.114 C 
ATOM      9  C   UNL     1      34.027 -17.546 -21.183  0.00  0.00    +0.085 C 
ATOM     10  C   UNL     1      34.791 -19.044 -22.909  0.00  0.00    -0.004 C 
ATOM     11  C   UNL     1      34.770 -17.990 -23.821  0.00  0.00    +0.002 C 
ATOM     12  C   UNL     1      32.902 -14.344 -22.159  0.00  0.00    +0.158 C 
ATOM     13  H   UNL     1      32.969 -12.898 -20.705  0.00  0.00    +0.144 HD
ATOM     14  H   UNL     1      32.037 -12.485 -22.072  0.00  0.00    +0.144 HD
ENDROOT
BRANCH   4  18
ATOM     15  C   UNL     1      34.484 -22.009 -18.799  0.00  0.00    +0.054 C 
ATOM     16  C   UNL     1      33.267 -21.462 -19.204  0.00  0.00    +0.005 C 
ATOM     17  C   UNL     1      35.680 -21.507 -19.313  0.00  0.00    +0.005 C 
ATOM     18  C   UNL     1      34.440 -19.911 -20.637  0.00  0.00    -0.004 C 
ATOM     19  C   UNL     1      33.245 -20.414 -20.123  0.00  0.00    -0.000 C 
ATOM     20  C   UNL     1      35.658 -20.458 -20.232  0.00  0.00    -0.000 C 
BRANCH  15  27
ATOM     21  O   UNL     1      33.746 -24.060 -18.031  0.00  0.00    -0.270 OA
ATOM     22  N   UNL     1      35.389 -23.017 -16.765  0.00  0.00    -0.276 N 
ATOM     23  C   UNL     1      37.287 -22.508 -15.463  0.00  0.00    +0.023 C 
ATOM     24  C   UNL     1      36.427 -23.515 -14.709  0.00  0.00    +0.023 C 
ATOM     25  C   UNL     1      36.314 -21.922 -16.475  0.00  0.00    +0.094 C 
ATOM     26  C   UNL     1      35.555 -24.102 -15.808  0.00  0.00    +0.094 C 
ATOM     27  C   UNL     1      34.507 -23.116 -17.829  0.00  0.00    +0.249 C 
ENDBRANCH  15  27
ENDBRANCH   4  18
BRANCH   3  30
ATOM     28  O   UNL     1      33.369 -14.115 -26.752  0.00  0.00    -0.270 OA
ATOM     29  N   UNL     1      33.755 -12.387 -25.239  0.00  0.00    -0.276 N 
ATOM     30  C   UNL     1      33.517 -13.721 -25.588  0.00  0.00    +0.245 C 
BRANCH  29  31
ATOM     31  C   UNL     1      33.852 -11.326 -26.238  0.00  0.00    +0.094 C 
BRANCH  31  32
ATOM     32  C   UNL     1      35.239 -11.242 -26.863  0.00  0.00    +0.022 C 
ATOM     33  C   UNL     1      36.052 -10.068 -26.337  0.00  0.00    +0.002 C 
ENDBRANCH  31  32
ENDBRANCH  29  31
BRANCH  29  34
ATOM     34  C   UNL     1      33.922 -11.966 -23.854  0.00  0.00    +0.094 C 
BRANCH  34  35
ATOM     35  C   UNL     1      33.786 -10.457 -23.686  0.00  0.00    +0.022 C 
ATOM     36  C   UNL     1      32.460 -10.052 -23.058  0.00  0.00    +0.002 C 
ENDBRANCH  34  35
ENDBRANCH  29  34
ENDBRANCH   3  30
TORSDOF 7
ENDMDL
MODEL 7
REMARK VINA RESULT:      -9.2      2.623      4.722
REMARK  Name = 16049404
REMARK  7 active torsions:
REMARK  status: ('A' for Active; 'I' for Inactive)
REMARK    1  A    between atoms: C_3  and  C_30
REMARK    2  A    between atoms: C_4  and  C_18
REMARK    3  A    between atoms: C_15  and  C_27
REMARK    4  A    between atoms: N_29  and  C_31
REMARK    5  A    between atoms: N_29  and  C_34
REMARK    6  A    between atoms: C_31  and  C_32
REMARK    7  A    between atoms: C_34  and  C_35
REMARK                            x       y       z     vdW  Elec       q    Type
REMARK                         _______ _______ _______ _____ _____    ______ ____
ROOT
ATOM      1  N   UNL     1      33.264 -14.686 -20.745  0.00  0.00    -0.396 NA
ATOM      2  N   UNL     1      32.056 -12.699 -20.549  0.00  0.00    -0.336 N 
ATOM      3  C   UNL     1      33.474 -13.552 -23.530  0.00  0.00    +0.040 C 
ATOM      4  C   UNL     1      34.335 -18.156 -21.402  0.00  0.00    -0.015 C 
ATOM      5  C   UNL     1      32.196 -13.723 -22.773  0.00  0.00    +0.105 C 
ATOM      6  C   UNL     1      34.397 -15.690 -22.741  0.00  0.00    +0.026 C 
ATOM      7  C   UNL     1      34.479 -14.441 -23.513  0.00  0.00    +0.003 C 
ATOM      8  C   UNL     1      33.790 -15.777 -21.468  0.00  0.00    +0.114 C 
ATOM      9  C   UNL     1      33.773 -17.021 -20.816  0.00  0.00    +0.085 C 
ATOM     10  C   UNL     1      34.940 -18.063 -22.649  0.00  0.00    -0.004 C 
ATOM     11  C   UNL     1      34.976 -16.837 -23.312  0.00  0.00    +0.002 C 
ATOM     12  C   UNL     1      32.545 -13.745 -21.294  0.00  0.00    +0.158 C 
ATOM     13  H   UNL     1      32.244 -12.651 -19.584  0.00  0.00    +0.144 HD
ATOM     14  H   UNL     1      31.517 -11.997 -20.980  0.00  0.00    +0.144 HD
ENDROOT
BRANCH   4  18
ATOM     15  C   UNL     1      34.224 -21.869 -19.365  0.00  0.00    +0.054 C 
ATOM     16  C   UNL     1      33.040 -21.181 -19.628  0.00  0.00    +0.005 C 
ATOM     17  C   UNL     1      35.446 -21.335 -19.774  0.00  0.00    +0.005 C 
ATOM     18  C   UNL     1      34.298 -19.424 -20.707  0.00  0.00    -0.004 C 
ATOM     19  C   UNL     1      33.076 -19.959 -20.298  0.00  0.00    -0.000 C 
ATOM     20  C   UNL     1      35.483 -20.112 -20.446  0.00  0.00    -0.000 C 
BRANCH  15  27
ATOM     21  O   UNL     1      33.768 -24.133 -19.281  0.00  0.00    -0.270 OA
ATOM     22  N   UNL     1      34.628 -23.183 -17.344  0.00  0.00    -0.276 N 
ATOM     23  C   UNL     1      35.831 -22.714 -15.374  0.00  0.00    +0.023 C 
ATOM     24  C   UNL     1      35.029 -23.993 -15.169  0.00  0.00    +0.023 C 
ATOM     25  C   UNL     1      35.132 -22.060 -16.555  0.00  0.00    +0.094 C 
ATOM     26  C   UNL     1      34.719 -24.426 -16.593  0.00  0.00    +0.094 C 
ATOM     27  C   UNL     1      34.185 -23.159 -18.658  0.00  0.00    +0.249 C 
ENDBRANCH  15  27
ENDBRANCH   4  18
BRANCH   3  30
ATOM     28  O   UNL     1      34.062 -12.494 -25.513  0.00  0.00    -0.270 OA
ATOM     29  N   UNL     1      33.352 -11.116 -23.775  0.00  0.00    -0.276 N 
ATOM     30  C   UNL     1      33.659 -12.353 -24.352  0.00  0.00    +0.245 C 
BRANCH  29  31
ATOM     31  C   UNL     1      33.485  -9.861 -24.510  0.00  0.00    +0.094 C 
BRANCH  31  32
ATOM     32  C   UNL     1      34.825  -9.180 -24.258  0.00  0.00    +0.022 C 
ATOM     33  C   UNL     1      34.677  -7.805 -23.623  0.00  0.00    +0.002 C 
ENDBRANCH  31  32
ENDBRANCH  29  31
BRANCH  29  34
ATOM     34  C   UNL     1      32.878 -10.996 -22.402  0.00  0.00    +0.094 C 
BRANCH  34  35
ATOM     35  C   UNL     1      31.851  -9.882 -22.238  0.00  0.00    +0.022 C 
ATOM     36  C   UNL     1      32.098  -9.030 -21.001  0.00  0.00    +0.002 C 
ENDBRANCH  34  35
ENDBRANCH  29  34
ENDBRANCH   3  30
TORSDOF 7
ENDMDL
MODEL 8
REMARK VINA RESULT:      -9.2      2.424     11.466
REMARK  Name = 16049404
REMARK  7 active torsions:
REMARK  status: ('A' for Active; 'I' for Inactive)
REMARK    1  A    between atoms: C_3  and  C_30
REMARK    2  A    between atoms: C_4  and  C_18
REMARK    3  A    between atoms: C_15  and  C_27
REMARK    4  A    between atoms: N_29  and  C_31
REMARK    5  A    between atoms: N_29  and  C_34
REMARK    6  A    between atoms: C_31  and  C_32
REMARK    7  A    between atoms: C_34  and  C_35
REMARK                            x       y       z     vdW  Elec       q    Type
REMARK                         _______ _______ _______ _____ _____    ______ ____
ROOT
ATOM      1  N   UNL     1      32.165 -13.673 -22.127  0.00  0.00    -0.396 NA
ATOM      2  N   UNL     1      32.284 -15.655 -20.902  0.00  0.00    -0.336 N 
ATOM      3  C   UNL     1      34.366 -15.155 -23.555  0.00  0.00    +0.040 C 
ATOM      4  C   UNL     1      32.708 -10.286 -23.489  0.00  0.00    -0.015 C 
ATOM      5  C   UNL     1      34.310 -14.929 -22.079  0.00  0.00    +0.105 C 
ATOM      6  C   UNL     1      33.531 -12.903 -24.080  0.00  0.00    +0.026 C 
ATOM      7  C   UNL     1      34.008 -14.240 -24.468  0.00  0.00    +0.003 C 
ATOM      8  C   UNL     1      32.703 -12.670 -22.960  0.00  0.00    +0.114 C 
ATOM      9  C   UNL     1      32.301 -11.352 -22.686  0.00  0.00    +0.085 C 
ATOM     10  C   UNL     1      33.514 -10.522 -24.595  0.00  0.00    -0.004 C 
ATOM     11  C   UNL     1      33.918 -11.823 -24.893  0.00  0.00    +0.002 C 
ATOM     12  C   UNL     1      32.852 -14.701 -21.710  0.00  0.00    +0.158 C 
ATOM     13  H   UNL     1      31.344 -15.569 -20.624  0.00  0.00    +0.144 HD
ATOM     14  H   UNL     1      32.818 -16.425 -20.599  0.00  0.00    +0.144 HD
ENDROOT
BRANCH   4  18
ATOM     15  C   UNL     1      31.458  -6.342 -22.580  0.00  0.00    +0.054 C 
ATOM     16  C   UNL     1      30.672  -7.152 -23.399  0.00  0.00    +0.005 C 
ATOM     17  C   UNL     1      32.656  -6.831 -22.058  0.00  0.00    +0.005 C 
ATOM     18  C   UNL     1      32.281  -8.939 -23.178  0.00  0.00    -0.004 C 
ATOM     19  C   UNL     1      31.083  -8.450 -23.698  0.00  0.00    -0.000 C 
ATOM     20  C   UNL     1      33.067  -8.130 -22.357  0.00  0.00    -0.000 C 
BRANCH  15  27
ATOM     21  O   UNL     1      30.533  -4.776 -21.154  0.00  0.00    -0.270 OA
ATOM     22  N   UNL     1      31.206  -4.001 -23.237  0.00  0.00    -0.276 N 
ATOM     23  C   UNL     1      32.103  -2.763 -25.030  0.00  0.00    +0.023 C 
ATOM     24  C   UNL     1      31.028  -1.929 -24.343  0.00  0.00    +0.023 C 
ATOM     25  C   UNL     1      31.781  -4.176 -24.570  0.00  0.00    +0.094 C 
ATOM     26  C   UNL     1      30.898  -2.601 -22.985  0.00  0.00    +0.094 C 
ATOM     27  C   UNL     1      31.023  -4.972 -22.264  0.00  0.00    +0.249 C 
ENDBRANCH  15  27
ENDBRANCH   4  18
BRANCH   3  30
ATOM     28  O   UNL     1      34.949 -16.596 -25.282  0.00  0.00    -0.270 OA
ATOM     29  N   UNL     1      35.172 -17.429 -23.119  0.00  0.00    -0.276 N 
ATOM     30  C   UNL     1      34.845 -16.445 -24.058  0.00  0.00    +0.245 C 
BRANCH  29  31
ATOM     31  C   UNL     1      35.673 -18.744 -23.511  0.00  0.00    +0.094 C 
BRANCH  31  32
ATOM     32  C   UNL     1      34.634 -19.558 -24.272  0.00  0.00    +0.022 C 
ATOM     33  C   UNL     1      35.259 -20.579 -25.213  0.00  0.00    +0.002 C 
ENDBRANCH  31  32
ENDBRANCH  29  31
BRANCH  29  34
ATOM     34  C   UNL     1      35.035 -17.209 -21.685  0.00  0.00    +0.094 C 
BRANCH  34  35
ATOM     35  C   UNL     1      34.977 -18.514 -20.900  0.00  0.00    +0.022 C 
ATOM     36  C   UNL     1      33.575 -19.107 -20.847  0.00  0.00    +0.002 C 
ENDBRANCH  34  35
ENDBRANCH  29  34
ENDBRANCH   3  30
TORSDOF 7
ENDMDL
MODEL 9
REMARK VINA RESULT:      -8.9      2.792     11.399
REMARK  Name = 16049404
REMARK  7 active torsions:
REMARK  status: ('A' for Active; 'I' for Inactive)
REMARK    1  A    between atoms: C_3  and  C_30
REMARK    2  A    between atoms: C_4  and  C_18
REMARK    3  A    between atoms: C_15  and  C_27
REMARK    4  A    between atoms: N_29  and  C_31
REMARK    5  A    between atoms: N_29  and  C_34
REMARK    6  A    between atoms: C_31  and  C_32
REMARK    7  A    between atoms: C_34  and  C_35
REMARK                            x       y       z     vdW  Elec       q    Type
REMARK                         _______ _______ _______ _____ _____    ______ ____
ROOT
ATOM      1  N   UNL     1      32.089 -13.372 -21.277  0.00  0.00    -0.396 NA
ATOM      2  N   UNL     1      32.068 -15.066 -19.672  0.00  0.00    -0.336 N 
ATOM      3  C   UNL     1      34.421 -15.076 -22.141  0.00  0.00    +0.040 C 
ATOM      4  C   UNL     1      32.792 -10.319 -23.228  0.00  0.00    -0.015 C 
ATOM      5  C   UNL     1      34.210 -14.559 -20.754  0.00  0.00    +0.105 C 
ATOM      6  C   UNL     1      33.658 -12.988 -23.192  0.00  0.00    +0.026 C 
ATOM      7  C   UNL     1      34.165 -14.368 -23.251  0.00  0.00    +0.003 C 
ATOM      8  C   UNL     1      32.718 -12.547 -22.234  0.00  0.00    +0.114 C 
ATOM      9  C   UNL     1      32.297 -11.208 -22.273  0.00  0.00    +0.085 C 
ATOM     10  C   UNL     1      33.708 -10.759 -24.174  0.00  0.00    -0.004 C 
ATOM     11  C   UNL     1      34.134 -12.087 -24.160  0.00  0.00    +0.002 C 
ATOM     12  C   UNL     1      32.723 -14.284 -20.593  0.00  0.00    +0.158 C 
ATOM     13  H   UNL     1      31.104 -14.940 -19.517  0.00  0.00    +0.144 HD
ATOM     14  H   UNL     1      32.563 -15.751 -19.167  0.00  0.00    +0.144 HD
ENDROOT
BRANCH   4  18
ATOM     15  C   UNL     1      31.478  -6.291 -23.259  0.00  0.00    +0.054 C 
ATOM     16  C   UNL     1      32.686  -6.627 -22.648  0.00  0.00    +0.005 C 
ATOM     17  C   UNL     1      30.702  -7.283 -23.861  0.00  0.00    +0.005 C 
ATOM     18  C   UNL     1      32.342  -8.943 -23.239  0.00  0.00    -0.004 C 
ATOM     19  C   UNL     1      33.118  -7.952 -22.639  0.00  0.00    -0.000 C 
ATOM     20  C   UNL     1      31.135  -8.609 -23.851  0.00  0.00    -0.000 C 
BRANCH  15  27
ATOM     21  O   UNL     1      30.377  -4.500 -22.299  0.00  0.00    -0.270 OA
ATOM     22  N   UNL     1      31.359  -4.116 -24.368  0.00  0.00    -0.276 N 
ATOM     23  C   UNL     1      32.527  -3.219 -26.207  0.00  0.00    +0.023 C 
ATOM     24  C   UNL     1      31.376  -2.286 -25.851  0.00  0.00    +0.023 C 
ATOM     25  C   UNL     1      32.120  -4.527 -25.546  0.00  0.00    +0.094 C 
ATOM     26  C   UNL     1      31.038  -2.698 -24.427  0.00  0.00    +0.094 C 
ATOM     27  C   UNL     1      31.022  -4.892 -23.270  0.00  0.00    +0.249 C 
ENDBRANCH  15  27
ENDBRANCH   4  18
BRANCH   3  30
ATOM     28  O   UNL     1      35.155 -17.119 -21.313  0.00  0.00    -0.270 OA
ATOM     29  N   UNL     1      35.156 -16.879 -23.630  0.00  0.00    -0.276 N 
ATOM     30  C   UNL     1      34.942 -16.433 -22.321  0.00  0.00    +0.245 C 
BRANCH  29  31
ATOM     31  C   UNL     1      35.658 -18.218 -23.923  0.00  0.00    +0.094 C 
BRANCH  31  32
ATOM     32  C   UNL     1      34.559 -19.272 -23.885  0.00  0.00    +0.022 C 
ATOM     33  C   UNL     1      34.557 -20.167 -25.116  0.00  0.00    +0.002 C 
ENDBRANCH  31  32
ENDBRANCH  29  31
BRANCH  29  34
ATOM     34  C   UNL     1      34.891 -16.037 -24.790  0.00  0.00    +0.094 C 
BRANCH  34  35
ATOM     35  C   UNL     1      33.714 -16.541 -25.616  0.00  0.00    +0.022 C 
ATOM     36  C   UNL     1      32.964 -15.419 -26.320  0.00  0.00    +0.002 C 
ENDBRANCH  34  35
ENDBRANCH  29  34
ENDBRANCH   3  30
TORSDOF 7
ENDMDL
