MODEL 1
REMARK VINA RESULT:     -12.8      0.000      0.000
REMARK  Name = 24794406
REMARK  5 active torsions:
REMARK  status: ('A' for Active; 'I' for Inactive)
REMARK    1  A    between atoms: C_1  and  S_24
REMARK    2  A    between atoms: C_2  and  N_8
REMARK    3  A    between atoms: C_9  and  C_11
REMARK    4  A    between atoms: C_12  and  N_18
REMARK    5  A    between atoms: S_24  and  N_28
REMARK                            x       y       z     vdW  Elec       q    Type
REMARK                         _______ _______ _______ _____ _____    ______ ____
ROOT
ATOM      1  C   UNL     1      33.280 -23.825 -15.176  0.00  0.00    +0.139 C 
ATOM      2  C   UNL     1      32.352 -23.361 -16.107  0.00  0.00    +0.070 C 
ATOM      3  C   UNL     1      32.872 -24.678 -14.150  0.00  0.00    +0.021 C 
ATOM      4  C   UNL     1      31.015 -23.748 -16.013  0.00  0.00    +0.016 C 
ATOM      5  C   UNL     1      31.535 -25.066 -14.056  0.00  0.00    +0.001 C 
ATOM      6  C   UNL     1      30.607 -24.601 -14.988  0.00  0.00    +0.001 C 
ENDROOT
BRANCH   2   8
ATOM      7  O   UNL     1      33.678 -23.963 -18.728  0.00  0.00    -0.270 OA
ATOM      8  N   UNL     1      32.740 -22.493 -17.158  0.00  0.00    -0.279 N 
ATOM      9  C   UNL     1      33.361 -22.817 -18.373  0.00  0.00    +0.250 C 
ATOM     10  H   UNL     1      32.549 -21.538 -17.017  0.00  0.00    +0.155 HD
BRANCH   9  11
ATOM     11  C   UNL     1      33.664 -21.696 -19.248  0.00  0.00    +0.054 C 
ATOM     12  C   UNL     1      34.244 -19.547 -20.929  0.00  0.00    +0.058 C 
ATOM     13  C   UNL     1      32.633 -20.886 -19.724  0.00  0.00    +0.006 C 
ATOM     14  C   UNL     1      34.983 -21.432 -19.613  0.00  0.00    +0.006 C 
ATOM     15  C   UNL     1      32.924 -19.811 -20.565  0.00  0.00    +0.015 C 
ATOM     16  C   UNL     1      35.274 -20.358 -20.453  0.00  0.00    +0.015 C 
BRANCH  12  18
ATOM     17  O   UNL     1      34.835 -19.744 -23.753  0.00  0.00    -0.269 OA
ATOM     18  N   UNL     1      34.545 -18.429 -21.802  0.00  0.00    -0.233 N 
ATOM     19  C   UNL     1      34.780 -18.653 -23.183  0.00  0.00    +0.257 C 
ATOM     20  C   UNL     1      34.631 -17.132 -21.290  0.00  0.00    +0.072 C 
ATOM     21  C   UNL     1      35.038 -17.442 -24.021  0.00  0.00    +0.059 C 
ATOM     22  C   UNL     1      34.896 -16.067 -22.055  0.00  0.00    +0.017 C 
ATOM     23  C   UNL     1      35.099 -16.231 -23.463  0.00  0.00    +0.006 C 
ENDBRANCH  12  18
ENDBRANCH   9  11
ENDBRANCH   2   8
BRANCH   1  24
ATOM     24  S   UNL     1      34.968 -23.362 -15.259  0.00  0.00    +0.076 S 
ATOM     25  O   UNL     1      35.025 -21.907 -15.236  0.00  0.00    -0.150 OA
ATOM     26  O   UNL     1      35.587 -24.076 -16.367  0.00  0.00    -0.150 OA
BRANCH  24  28
ATOM     27 CL   UNL     1      40.903 -26.474 -13.928  0.00  0.00    -0.081 Cl
ATOM     28  N   UNL     1      35.594 -23.951 -13.768  0.00  0.00    -0.199 N 
ATOM     29  N   UNL     1      37.211 -25.298 -14.853  0.00  0.00    -0.227 NA
ATOM     30  C   UNL     1      36.901 -24.552 -13.769  0.00  0.00    +0.147 C 
ATOM     31  C   UNL     1      37.755 -24.346 -12.698  0.00  0.00    +0.036 C 
ATOM     32  C   UNL     1      39.010 -24.944 -12.742  0.00  0.00    +0.016 C 
ATOM     33  C   UNL     1      38.439 -25.863 -14.860  0.00  0.00    +0.112 C 
ATOM     34  C   UNL     1      39.366 -25.719 -13.841  0.00  0.00    +0.077 C 
ATOM     35  H   UNL     1      35.072 -23.879 -12.936  0.00  0.00    +0.175 HD
ENDBRANCH  24  28
ENDBRANCH   1  24
TORSDOF 5
ENDMDL
MODEL 2
REMARK VINA RESULT:     -12.8      0.809      1.432
REMARK  Name = 24794406
REMARK  5 active torsions:
REMARK  status: ('A' for Active; 'I' for Inactive)
REMARK    1  A    between atoms: C_1  and  S_24
REMARK    2  A    between atoms: C_2  and  N_8
REMARK    3  A    between atoms: C_9  and  C_11
REMARK    4  A    between atoms: C_12  and  N_18
REMARK    5  A    between atoms: S_24  and  N_28
REMARK                            x       y       z     vdW  Elec       q    Type
REMARK                         _______ _______ _______ _____ _____    ______ ____
ROOT
ATOM      1  C   UNL     1      33.240 -23.806 -15.093  0.00  0.00    +0.139 C 
ATOM      2  C   UNL     1      32.314 -23.325 -16.018  0.00  0.00    +0.070 C 
ATOM      3  C   UNL     1      32.810 -24.588 -14.020  0.00  0.00    +0.021 C 
ATOM      4  C   UNL     1      30.960 -23.622 -15.870  0.00  0.00    +0.016 C 
ATOM      5  C   UNL     1      31.456 -24.886 -13.872  0.00  0.00    +0.001 C 
ATOM      6  C   UNL     1      30.531 -24.404 -14.799  0.00  0.00    +0.001 C 
ENDROOT
BRANCH   2   8
ATOM      7  O   UNL     1      33.662 -24.104 -18.581  0.00  0.00    -0.270 OA
ATOM      8  N   UNL     1      32.723 -22.529 -17.117  0.00  0.00    -0.279 N 
ATOM      9  C   UNL     1      33.354 -22.934 -18.302  0.00  0.00    +0.250 C 
ATOM     10  H   UNL     1      32.542 -21.564 -17.038  0.00  0.00    +0.155 HD
BRANCH   9  11
ATOM     11  C   UNL     1      33.680 -21.874 -19.242  0.00  0.00    +0.054 C 
ATOM     12  C   UNL     1      34.306 -19.839 -21.044  0.00  0.00    +0.058 C 
ATOM     13  C   UNL     1      35.004 -21.669 -19.630  0.00  0.00    +0.006 C 
ATOM     14  C   UNL     1      32.670 -21.061 -19.755  0.00  0.00    +0.006 C 
ATOM     15  C   UNL     1      35.317 -20.651 -20.531  0.00  0.00    +0.015 C 
ATOM     16  C   UNL     1      32.982 -20.044 -20.656  0.00  0.00    +0.015 C 
BRANCH  12  18
ATOM     17  O   UNL     1      34.934 -17.107 -20.330  0.00  0.00    -0.269 OA
ATOM     18  N   UNL     1      34.632 -18.782 -21.982  0.00  0.00    -0.233 N 
ATOM     19  C   UNL     1      34.961 -17.488 -21.502  0.00  0.00    +0.257 C 
ATOM     20  C   UNL     1      34.601 -19.020 -23.358  0.00  0.00    +0.072 C 
ATOM     21  C   UNL     1      35.329 -16.468 -22.533  0.00  0.00    +0.059 C 
ATOM     22  C   UNL     1      34.902 -18.081 -24.262  0.00  0.00    +0.017 C 
ATOM     23  C   UNL     1      35.283 -16.769 -23.832  0.00  0.00    +0.006 C 
ENDBRANCH  12  18
ENDBRANCH   9  11
ENDBRANCH   2   8
BRANCH   1  24
ATOM     24  S   UNL     1      34.949 -23.455 -15.243  0.00  0.00    +0.076 S 
ATOM     25  O   UNL     1      35.099 -22.007 -15.272  0.00  0.00    -0.150 OA
ATOM     26  O   UNL     1      35.487 -24.243 -16.343  0.00  0.00    -0.150 OA
BRANCH  24  28
ATOM     27 CL   UNL     1      40.963 -26.407 -13.898  0.00  0.00    -0.081 Cl
ATOM     28  N   UNL     1      35.585 -24.033 -13.751  0.00  0.00    -0.199 N 
ATOM     29  N   UNL     1      37.244 -25.330 -14.835  0.00  0.00    -0.227 NA
ATOM     30  C   UNL     1      36.908 -24.597 -13.749  0.00  0.00    +0.147 C 
ATOM     31  C   UNL     1      37.752 -24.373 -12.673  0.00  0.00    +0.036 C 
ATOM     32  C   UNL     1      39.023 -24.935 -12.715  0.00  0.00    +0.016 C 
ATOM     33  C   UNL     1      38.487 -25.861 -14.839  0.00  0.00    +0.112 C 
ATOM     34  C   UNL     1      39.405 -25.695 -13.815  0.00  0.00    +0.077 C 
ATOM     35  H   UNL     1      35.057 -23.979 -12.922  0.00  0.00    +0.175 HD
ENDBRANCH  24  28
ENDBRANCH   1  24
TORSDOF 5
ENDMDL
MODEL 3
REMARK VINA RESULT:     -11.3      3.369      5.556
REMARK  Name = 24794406
REMARK  5 active torsions:
REMARK  status: ('A' for Active; 'I' for Inactive)
REMARK    1  A    between atoms: C_1  and  S_24
REMARK    2  A    between atoms: C_2  and  N_8
REMARK    3  A    between atoms: C_9  and  C_11
REMARK    4  A    between atoms: C_12  and  N_18
REMARK    5  A    between atoms: S_24  and  N_28
REMARK                            x       y       z     vdW  Elec       q    Type
REMARK                         _______ _______ _______ _____ _____    ______ ____
ROOT
ATOM      1  C   UNL     1      35.070 -23.281 -16.639  0.00  0.00    +0.139 C 
ATOM      2  C   UNL     1      36.014 -22.333 -17.033  0.00  0.00    +0.070 C 
ATOM      3  C   UNL     1      35.373 -24.184 -15.620  0.00  0.00    +0.021 C 
ATOM      4  C   UNL     1      37.260 -22.287 -16.408  0.00  0.00    +0.016 C 
ATOM      5  C   UNL     1      36.619 -24.137 -14.994  0.00  0.00    +0.001 C 
ATOM      6  C   UNL     1      37.562 -23.188 -15.388  0.00  0.00    +0.001 C 
ENDROOT
BRANCH   2   8
ATOM      7  O   UNL     1      35.980 -22.698 -20.009  0.00  0.00    -0.270 OA
ATOM      8  N   UNL     1      35.733 -21.405 -18.066  0.00  0.00    -0.279 N 
ATOM      9  C   UNL     1      35.728 -21.617 -19.453  0.00  0.00    +0.250 C 
ATOM     10  H   UNL     1      35.513 -20.491 -17.774  0.00  0.00    +0.155 HD
BRANCH   9  11
ATOM     11  C   UNL     1      35.426 -20.455 -20.271  0.00  0.00    +0.054 C 
ATOM     12  C   UNL     1      34.848 -18.222 -21.841  0.00  0.00    +0.058 C 
ATOM     13  C   UNL     1      36.460 -19.637 -20.729  0.00  0.00    +0.006 C 
ATOM     14  C   UNL     1      34.104 -20.155 -20.599  0.00  0.00    +0.006 C 
ATOM     15  C   UNL     1      36.170 -18.520 -21.513  0.00  0.00    +0.015 C 
ATOM     16  C   UNL     1      33.815 -19.039 -21.383  0.00  0.00    +0.015 C 
BRANCH  12  18
ATOM     17  O   UNL     1      34.632 -18.217 -24.725  0.00  0.00    -0.269 OA
ATOM     18  N   UNL     1      34.547 -17.062 -22.657  0.00  0.00    -0.233 N 
ATOM     19  C   UNL     1      34.429 -17.198 -24.064  0.00  0.00    +0.257 C 
ATOM     20  C   UNL     1      34.396 -15.803 -22.071  0.00  0.00    +0.072 C 
ATOM     21  C   UNL     1      34.072 -15.961 -24.826  0.00  0.00    +0.059 C 
ATOM     22  C   UNL     1      34.108 -14.704 -22.778  0.00  0.00    +0.017 C 
ATOM     23  C   UNL     1      33.935 -14.792 -24.197  0.00  0.00    +0.006 C 
ENDBRANCH  12  18
ENDBRANCH   9  11
ENDBRANCH   2   8
BRANCH   1  24
ATOM     24  S   UNL     1      33.494 -23.372 -17.399  0.00  0.00    +0.076 S 
ATOM     25  O   UNL     1      33.579 -24.355 -18.470  0.00  0.00    -0.150 OA
ATOM     26  O   UNL     1      33.056 -22.020 -17.714  0.00  0.00    -0.150 OA
BRANCH  24  28
ATOM     27 CL   UNL     1      26.824 -22.525 -16.187  0.00  0.00    -0.081 Cl
ATOM     28  N   UNL     1      32.510 -24.024 -16.146  0.00  0.00    -0.199 N 
ATOM     29  N   UNL     1      30.792 -22.437 -16.521  0.00  0.00    -0.227 NA
ATOM     30  C   UNL     1      31.109 -23.696 -16.142  0.00  0.00    +0.147 C 
ATOM     31  C   UNL     1      30.179 -24.650 -15.765  0.00  0.00    +0.036 C 
ATOM     32  C   UNL     1      28.835 -24.290 -15.778  0.00  0.00    +0.016 C 
ATOM     33  C   UNL     1      29.477 -22.124 -16.521  0.00  0.00    +0.112 C 
ATOM     34  C   UNL     1      28.470 -23.004 -16.162  0.00  0.00    +0.077 C 
ATOM     35  H   UNL     1      32.894 -24.605 -15.451  0.00  0.00    +0.175 HD
ENDBRANCH  24  28
ENDBRANCH   1  24
TORSDOF 5
ENDMDL
MODEL 4
REMARK VINA RESULT:     -10.6      6.748     13.200
REMARK  Name = 24794406
REMARK  5 active torsions:
REMARK  status: ('A' for Active; 'I' for Inactive)
REMARK    1  A    between atoms: C_1  and  S_24
REMARK    2  A    between atoms: C_2  and  N_8
REMARK    3  A    between atoms: C_9  and  C_11
REMARK    4  A    between atoms: C_12  and  N_18
REMARK    5  A    between atoms: S_24  and  N_28
REMARK                            x       y       z     vdW  Elec       q    Type
REMARK                         _______ _______ _______ _____ _____    ______ ____
ROOT
ATOM      1  C   UNL     1      33.262 -13.158 -25.184  0.00  0.00    +0.139 C 
ATOM      2  C   UNL     1      33.207 -14.498 -25.564  0.00  0.00    +0.070 C 
ATOM      3  C   UNL     1      32.910 -12.160 -26.094  0.00  0.00    +0.021 C 
ATOM      4  C   UNL     1      32.801 -14.842 -26.854  0.00  0.00    +0.016 C 
ATOM      5  C   UNL     1      32.503 -12.504 -27.383  0.00  0.00    +0.001 C 
ATOM      6  C   UNL     1      32.448 -13.845 -27.763  0.00  0.00    +0.001 C 
ENDROOT
BRANCH   2   8
ATOM      7  O   UNL     1      35.202 -16.718 -25.843  0.00  0.00    -0.270 OA
ATOM      8  N   UNL     1      33.560 -15.531 -24.661  0.00  0.00    -0.279 N 
ATOM      9  C   UNL     1      34.503 -16.555 -24.831  0.00  0.00    +0.250 C 
ATOM     10  H   UNL     1      33.079 -15.531 -23.802  0.00  0.00    +0.155 HD
BRANCH   9  11
ATOM     11  C   UNL     1      34.625 -17.493 -23.727  0.00  0.00    +0.054 C 
ATOM     12  C   UNL     1      34.860 -19.296 -21.611  0.00  0.00    +0.058 C 
ATOM     13  C   UNL     1      34.797 -18.854 -23.986  0.00  0.00    +0.006 C 
ATOM     14  C   UNL     1      34.570 -17.036 -22.412  0.00  0.00    +0.006 C 
ATOM     15  C   UNL     1      34.914 -19.755 -22.927  0.00  0.00    +0.015 C 
ATOM     16  C   UNL     1      34.687 -17.936 -21.353  0.00  0.00    +0.015 C 
BRANCH  12  18
ATOM     17  O   UNL     1      32.653 -20.618 -20.288  0.00  0.00    -0.269 OA
ATOM     18  N   UNL     1      34.982 -20.233 -20.511  0.00  0.00    -0.233 N 
ATOM     19  C   UNL     1      33.822 -20.846 -19.972  0.00  0.00    +0.257 C 
ATOM     20  C   UNL     1      36.233 -20.519 -19.959  0.00  0.00    +0.072 C 
ATOM     21  C   UNL     1      34.040 -21.834 -18.870  0.00  0.00    +0.059 C 
ATOM     22  C   UNL     1      36.400 -21.382 -18.951  0.00  0.00    +0.017 C 
ATOM     23  C   UNL     1      35.268 -22.063 -18.398  0.00  0.00    +0.006 C 
ENDBRANCH  12  18
ENDBRANCH   9  11
ENDBRANCH   2   8
BRANCH   1  24
ATOM     24  S   UNL     1      33.767 -12.684 -23.575  0.00  0.00    +0.076 S 
ATOM     25  O   UNL     1      34.792 -13.624 -23.143  0.00  0.00    -0.150 OA
ATOM     26  O   UNL     1      32.578 -12.509 -22.753  0.00  0.00    -0.150 OA
BRANCH  24  28
ATOM     27 CL   UNL     1      31.280  -6.378 -22.718  0.00  0.00    -0.081 Cl
ATOM     28  N   UNL     1      34.514 -11.158 -23.848  0.00  0.00    -0.199 N 
ATOM     29  N   UNL     1      32.438 -10.019 -23.847  0.00  0.00    -0.227 NA
ATOM     30  C   UNL     1      33.757  -9.969 -23.558  0.00  0.00    +0.147 C 
ATOM     31  C   UNL     1      34.391  -8.865 -23.013  0.00  0.00    +0.036 C 
ATOM     32  C   UNL     1      33.621  -7.738 -22.746  0.00  0.00    +0.016 C 
ATOM     33  C   UNL     1      31.722  -8.905 -23.575  0.00  0.00    +0.112 C 
ATOM     34  C   UNL     1      32.259  -7.750 -23.030  0.00  0.00    +0.077 C 
ATOM     35  H   UNL     1      35.433 -11.100 -24.194  0.00  0.00    +0.175 HD
ENDBRANCH  24  28
ENDBRANCH   1  24
TORSDOF 5
ENDMDL
MODEL 5
REMARK VINA RESULT:     -10.4      5.902     10.205
REMARK  Name = 24794406
REMARK  5 active torsions:
REMARK  status: ('A' for Active; 'I' for Inactive)
REMARK    1  A    between atoms: C_1  and  S_24
REMARK    2  A    between atoms: C_2  and  N_8
REMARK    3  A    between atoms: C_9  and  C_11
REMARK    4  A    between atoms: C_12  and  N_18
REMARK    5  A    between atoms: S_24  and  N_28
REMARK                            x       y       z     vdW  Elec       q    Type
REMARK                         _______ _______ _______ _____ _____    ______ ____
ROOT
ATOM      1  C   UNL     1      34.489 -17.212 -22.994  0.00  0.00    +0.139 C 
ATOM      2  C   UNL     1      34.210 -16.290 -24.002  0.00  0.00    +0.070 C 
ATOM      3  C   UNL     1      34.849 -18.519 -23.323  0.00  0.00    +0.021 C 
ATOM      4  C   UNL     1      34.291 -16.676 -25.341  0.00  0.00    +0.016 C 
ATOM      5  C   UNL     1      34.930 -18.904 -24.661  0.00  0.00    +0.001 C 
ATOM      6  C   UNL     1      34.652 -17.981 -25.670  0.00  0.00    +0.001 C 
ENDROOT
BRANCH   2   8
ATOM      7  O   UNL     1      33.125 -14.125 -25.769  0.00  0.00    -0.270 OA
ATOM      8  N   UNL     1      33.842 -14.958 -23.696  0.00  0.00    -0.279 N 
ATOM      9  C   UNL     1      33.336 -13.972 -24.556  0.00  0.00    +0.250 C 
ATOM     10  H   UNL     1      33.956 -14.687 -22.756  0.00  0.00    +0.155 HD
BRANCH   9  11
ATOM     11  C   UNL     1      33.074 -12.676 -23.950  0.00  0.00    +0.054 C 
ATOM     12  C   UNL     1      32.569 -10.191 -22.788  0.00  0.00    +0.058 C 
ATOM     13  C   UNL     1      32.202 -12.577 -22.866  0.00  0.00    +0.006 C 
ATOM     14  C   UNL     1      33.692 -11.532 -24.453  0.00  0.00    +0.006 C 
ATOM     15  C   UNL     1      31.950 -11.334 -22.285  0.00  0.00    +0.015 C 
ATOM     16  C   UNL     1      33.440 -10.289 -23.873  0.00  0.00    +0.015 C 
BRANCH  12  18
ATOM     17  O   UNL     1      31.257  -7.969 -24.095  0.00  0.00    -0.269 OA
ATOM     18  N   UNL     1      32.307  -8.899 -22.184  0.00  0.00    -0.233 N 
ATOM     19  C   UNL     1      31.618  -7.901 -22.919  0.00  0.00    +0.257 C 
ATOM     20  C   UNL     1      32.750  -8.619 -20.889  0.00  0.00    +0.072 C 
ATOM     21  C   UNL     1      31.348  -6.614 -22.206  0.00  0.00    +0.059 C 
ATOM     22  C   UNL     1      32.525  -7.447 -20.284  0.00  0.00    +0.017 C 
ATOM     23  C   UNL     1      31.797  -6.419 -20.964  0.00  0.00    +0.006 C 
ENDBRANCH  12  18
ENDBRANCH   9  11
ENDBRANCH   2   8
BRANCH   1  24
ATOM     24  S   UNL     1      34.399 -16.769 -21.301  0.00  0.00    +0.076 S 
ATOM     25  O   UNL     1      33.092 -17.181 -20.808  0.00  0.00    -0.150 OA
ATOM     26  O   UNL     1      34.796 -15.374 -21.169  0.00  0.00    -0.150 OA
BRANCH  24  28
ATOM     27 CL   UNL     1      34.131 -23.418 -19.753  0.00  0.00    -0.081 Cl
ATOM     28  N   UNL     1      35.591 -17.782 -20.583  0.00  0.00    -0.199 N 
ATOM     29  N   UNL     1      33.999 -19.447 -20.031  0.00  0.00    -0.227 NA
ATOM     30  C   UNL     1      35.273 -19.172 -20.389  0.00  0.00    +0.147 C 
ATOM     31  C   UNL     1      36.253 -20.134 -20.572  0.00  0.00    +0.036 C 
ATOM     32  C   UNL     1      35.901 -21.466 -20.375  0.00  0.00    +0.016 C 
ATOM     33  C   UNL     1      33.695 -20.751 -19.849  0.00  0.00    +0.112 C 
ATOM     34  C   UNL     1      34.599 -21.788 -20.006  0.00  0.00    +0.077 C 
ATOM     35  H   UNL     1      36.465 -17.421 -20.311  0.00  0.00    +0.175 HD
ENDBRANCH  24  28
ENDBRANCH   1  24
TORSDOF 5
ENDMDL
MODEL 6
REMARK VINA RESULT:     -10.0      5.376     11.449
REMARK  Name = 24794406
REMARK  5 active torsions:
REMARK  status: ('A' for Active; 'I' for Inactive)
REMARK    1  A    between atoms: C_1  and  S_24
REMARK    2  A    between atoms: C_2  and  N_8
REMARK    3  A    between atoms: C_9  and  C_11
REMARK    4  A    between atoms: C_12  and  N_18
REMARK    5  A    between atoms: S_24  and  N_28
REMARK                            x       y       z     vdW  Elec       q    Type
REMARK                         _______ _______ _______ _____ _____    ______ ____
ROOT
ATOM      1  C   UNL     1      33.486 -15.210 -23.272  0.00  0.00    +0.139 C 
ATOM      2  C   UNL     1      34.065 -16.435 -23.604  0.00  0.00    +0.070 C 
ATOM      3  C   UNL     1      33.329 -14.226 -24.249  0.00  0.00    +0.021 C 
ATOM      4  C   UNL     1      34.487 -16.676 -24.912  0.00  0.00    +0.016 C 
ATOM      5  C   UNL     1      33.750 -14.468 -25.556  0.00  0.00    +0.001 C 
ATOM      6  C   UNL     1      34.329 -15.693 -25.888  0.00  0.00    +0.001 C 
ENDROOT
BRANCH   2   8
ATOM      7  O   UNL     1      34.906 -19.296 -23.919  0.00  0.00    -0.270 OA
ATOM      8  N   UNL     1      34.237 -17.451 -22.632  0.00  0.00    -0.279 N 
ATOM      9  C   UNL     1      34.633 -18.783 -22.822  0.00  0.00    +0.250 C 
ATOM     10  H   UNL     1      34.054 -17.188 -21.701  0.00  0.00    +0.155 HD
BRANCH   9  11
ATOM     11  C   UNL     1      34.695 -19.603 -21.624  0.00  0.00    +0.054 C 
ATOM     12  C   UNL     1      34.810 -21.176 -19.322  0.00  0.00    +0.058 C 
ATOM     13  C   UNL     1      33.516 -20.006 -20.994  0.00  0.00    +0.006 C 
ATOM     14  C   UNL     1      35.929 -19.987 -21.102  0.00  0.00    +0.006 C 
ATOM     15  C   UNL     1      33.575 -20.792 -19.843  0.00  0.00    +0.015 C 
ATOM     16  C   UNL     1      35.988 -20.773 -19.952  0.00  0.00    +0.015 C 
BRANCH  12  18
ATOM     17  O   UNL     1      32.615 -22.716 -18.237  0.00  0.00    -0.269 OA
ATOM     18  N   UNL     1      34.870 -21.994 -18.127  0.00  0.00    -0.233 N 
ATOM     19  C   UNL     1      33.732 -22.736 -17.718  0.00  0.00    +0.257 C 
ATOM     20  C   UNL     1      36.036 -22.040 -17.357  0.00  0.00    +0.072 C 
ATOM     21  C   UNL     1      33.893 -23.589 -16.500  0.00  0.00    +0.059 C 
ATOM     22  C   UNL     1      36.145 -22.786 -16.252  0.00  0.00    +0.017 C 
ATOM     23  C   UNL     1      35.041 -23.588 -15.818  0.00  0.00    +0.006 C 
ENDBRANCH  12  18
ENDBRANCH   9  11
ENDBRANCH   2   8
BRANCH   1  24
ATOM     24  S   UNL     1      32.943 -14.868 -21.642  0.00  0.00    +0.076 S 
ATOM     25  O   UNL     1      34.000 -14.121 -20.975  0.00  0.00    -0.150 OA
ATOM     26  O   UNL     1      32.471 -16.109 -21.045  0.00  0.00    -0.150 OA
BRANCH  24  28
ATOM     27 CL   UNL     1      31.907  -8.511 -19.362  0.00  0.00    -0.081 Cl
ATOM     28  N   UNL     1      31.614 -13.807 -21.903  0.00  0.00    -0.199 N 
ATOM     29  N   UNL     1      32.228 -12.415 -20.088  0.00  0.00    -0.227 NA
ATOM     30  C   UNL     1      31.666 -12.494 -21.315  0.00  0.00    +0.147 C 
ATOM     31  C   UNL     1      31.157 -11.408 -22.007  0.00  0.00    +0.036 C 
ATOM     32  C   UNL     1      31.231 -10.158 -21.402  0.00  0.00    +0.016 C 
ATOM     33  C   UNL     1      32.282 -11.184 -19.532  0.00  0.00    +0.112 C 
ATOM     34  C   UNL     1      31.803 -10.036 -20.140  0.00  0.00    +0.077 C 
ATOM     35  H   UNL     1      30.838 -14.089 -22.439  0.00  0.00    +0.175 HD
ENDBRANCH  24  28
ENDBRANCH   1  24
TORSDOF 5
ENDMDL
MODEL 7
REMARK VINA RESULT:      -9.9      3.176      5.200
REMARK  Name = 24794406
REMARK  5 active torsions:
REMARK  status: ('A' for Active; 'I' for Inactive)
REMARK    1  A    between atoms: C_1  and  S_24
REMARK    2  A    between atoms: C_2  and  N_8
REMARK    3  A    between atoms: C_9  and  C_11
REMARK    4  A    between atoms: C_12  and  N_18
REMARK    5  A    between atoms: S_24  and  N_28
REMARK                            x       y       z     vdW  Elec       q    Type
REMARK                         _______ _______ _______ _____ _____    ______ ____
ROOT
ATOM      1  C   UNL     1      35.375 -22.985 -16.701  0.00  0.00    +0.139 C 
ATOM      2  C   UNL     1      36.327 -22.130 -17.255  0.00  0.00    +0.070 C 
ATOM      3  C   UNL     1      35.727 -23.836 -15.654  0.00  0.00    +0.021 C 
ATOM      4  C   UNL     1      37.632 -22.127 -16.762  0.00  0.00    +0.016 C 
ATOM      5  C   UNL     1      37.031 -23.832 -15.160  0.00  0.00    +0.001 C 
ATOM      6  C   UNL     1      37.984 -22.977 -15.714  0.00  0.00    +0.001 C 
ENDROOT
BRANCH   2   8
ATOM      7  O   UNL     1      37.257 -22.111 -20.105  0.00  0.00    -0.270 OA
ATOM      8  N   UNL     1      35.997 -21.256 -18.320  0.00  0.00    -0.279 N 
ATOM      9  C   UNL     1      36.456 -21.281 -19.644  0.00  0.00    +0.250 C 
ATOM     10  H   UNL     1      35.362 -20.536 -18.101  0.00  0.00    +0.155 HD
BRANCH   9  11
ATOM     11  C   UNL     1      35.955 -20.226 -20.510  0.00  0.00    +0.054 C 
ATOM     12  C   UNL     1      34.992 -18.202 -22.171  0.00  0.00    +0.058 C 
ATOM     13  C   UNL     1      34.618 -20.227 -20.906  0.00  0.00    +0.006 C 
ATOM     14  C   UNL     1      36.810 -19.214 -20.945  0.00  0.00    +0.006 C 
ATOM     15  C   UNL     1      34.136 -19.215 -21.737  0.00  0.00    +0.015 C 
ATOM     16  C   UNL     1      36.329 -18.203 -21.775  0.00  0.00    +0.015 C 
BRANCH  12  18
ATOM     17  O   UNL     1      33.743 -15.754 -21.271  0.00  0.00    -0.269 OA
ATOM     18  N   UNL     1      34.491 -17.150 -23.034  0.00  0.00    -0.233 N 
ATOM     19  C   UNL     1      33.933 -15.976 -22.467  0.00  0.00    +0.257 C 
ATOM     20  C   UNL     1      34.532 -17.294 -24.423  0.00  0.00    +0.072 C 
ATOM     21  C   UNL     1      33.483 -14.921 -23.428  0.00  0.00    +0.059 C 
ATOM     22  C   UNL     1      34.092 -16.349 -25.262  0.00  0.00    +0.017 C 
ATOM     23  C   UNL     1      33.559 -15.125 -24.745  0.00  0.00    +0.006 C 
ENDBRANCH  12  18
ENDBRANCH   9  11
ENDBRANCH   2   8
BRANCH   1  24
ATOM     24  S   UNL     1      33.726 -23.019 -17.291  0.00  0.00    +0.076 S 
ATOM     25  O   UNL     1      33.396 -24.406 -17.593  0.00  0.00    -0.150 OA
ATOM     26  O   UNL     1      33.590 -22.017 -18.338  0.00  0.00    -0.150 OA
BRANCH  24  28
ATOM     27 CL   UNL     1      28.373 -26.036 -14.302  0.00  0.00    -0.081 Cl
ATOM     28  N   UNL     1      32.821 -22.540 -15.908  0.00  0.00    -0.199 N 
ATOM     29  N   UNL     1      31.019 -23.977 -16.453  0.00  0.00    -0.227 NA
ATOM     30  C   UNL     1      31.741 -23.387 -15.475  0.00  0.00    +0.147 C 
ATOM     31  C   UNL     1      31.498 -23.555 -14.121  0.00  0.00    +0.036 C 
ATOM     32  C   UNL     1      30.446 -24.385 -13.748  0.00  0.00    +0.016 C 
ATOM     33  C   UNL     1      30.004 -24.775 -16.052  0.00  0.00    +0.112 C 
ATOM     34  C   UNL     1      29.680 -25.010 -14.726  0.00  0.00    +0.077 C 
ATOM     35  H   UNL     1      33.035 -21.708 -15.426  0.00  0.00    +0.175 HD
ENDBRANCH  24  28
ENDBRANCH   1  24
TORSDOF 5
ENDMDL
MODEL 8
REMARK VINA RESULT:      -9.8      5.113     11.278
REMARK  Name = 24794406
REMARK  5 active torsions:
REMARK  status: ('A' for Active; 'I' for Inactive)
REMARK    1  A    between atoms: C_1  and  S_24
REMARK    2  A    between atoms: C_2  and  N_8
REMARK    3  A    between atoms: C_9  and  C_11
REMARK    4  A    between atoms: C_12  and  N_18
REMARK    5  A    between atoms: S_24  and  N_28
REMARK                            x       y       z     vdW  Elec       q    Type
REMARK                         _______ _______ _______ _____ _____    ______ ____
ROOT
ATOM      1  C   UNL     1      33.857 -15.898 -23.401  0.00  0.00    +0.139 C 
ATOM      2  C   UNL     1      34.366 -17.180 -23.606  0.00  0.00    +0.070 C 
ATOM      3  C   UNL     1      33.729 -15.019 -24.476  0.00  0.00    +0.021 C 
ATOM      4  C   UNL     1      34.748 -17.583 -24.886  0.00  0.00    +0.016 C 
ATOM      5  C   UNL     1      34.110 -15.422 -25.756  0.00  0.00    +0.001 C 
ATOM      6  C   UNL     1      34.620 -16.705 -25.960  0.00  0.00    +0.001 C 
ENDROOT
BRANCH   2   8
ATOM      7  O   UNL     1      36.814 -18.522 -22.512  0.00  0.00    -0.270 OA
ATOM      8  N   UNL     1      34.507 -18.093 -22.532  0.00  0.00    -0.279 N 
ATOM      9  C   UNL     1      35.676 -18.701 -22.050  0.00  0.00    +0.250 C 
ATOM     10  H   UNL     1      33.676 -18.333 -22.062  0.00  0.00    +0.155 HD
BRANCH   9  11
ATOM     11  C   UNL     1      35.500 -19.623 -20.940  0.00  0.00    +0.054 C 
ATOM     12  C   UNL     1      35.165 -21.394 -18.811  0.00  0.00    +0.058 C 
ATOM     13  C   UNL     1      36.611 -20.074 -20.226  0.00  0.00    +0.006 C 
ATOM     14  C   UNL     1      34.223 -20.059 -20.589  0.00  0.00    +0.006 C 
ATOM     15  C   UNL     1      36.443 -20.960 -19.162  0.00  0.00    +0.015 C 
ATOM     16  C   UNL     1      34.055 -20.944 -19.526  0.00  0.00    +0.015 C 
BRANCH  12  18
ATOM     17  O   UNL     1      37.181 -22.041 -16.841  0.00  0.00    -0.269 OA
ATOM     18  N   UNL     1      34.990 -22.315 -17.704  0.00  0.00    -0.233 N 
ATOM     19  C   UNL     1      36.047 -22.518 -16.780  0.00  0.00    +0.257 C 
ATOM     20  C   UNL     1      33.796 -23.024 -17.554  0.00  0.00    +0.072 C 
ATOM     21  C   UNL     1      35.767 -23.448 -15.642  0.00  0.00    +0.059 C 
ATOM     22  C   UNL     1      33.582 -23.876 -16.545  0.00  0.00    +0.017 C 
ATOM     23  C   UNL     1      34.598 -24.086 -15.559  0.00  0.00    +0.006 C 
ENDBRANCH  12  18
ENDBRANCH   9  11
ENDBRANCH   2   8
BRANCH   1  24
ATOM     24  S   UNL     1      33.365 -15.354 -21.810  0.00  0.00    +0.076 S 
ATOM     25  O   UNL     1      34.432 -14.514 -21.285  0.00  0.00    -0.150 OA
ATOM     26  O   UNL     1      32.934 -16.512 -21.040  0.00  0.00    -0.150 OA
BRANCH  24  28
ATOM     27 CL   UNL     1      31.602  -9.309 -19.159  0.00  0.00    -0.081 Cl
ATOM     28  N   UNL     1      32.010 -14.351 -22.157  0.00  0.00    -0.199 N 
ATOM     29  N   UNL     1      32.286 -13.102 -20.164  0.00  0.00    -0.227 NA
ATOM     30  C   UNL     1      31.894 -13.099 -21.458  0.00  0.00    +0.147 C 
ATOM     31  C   UNL     1      31.405 -11.984 -22.118  0.00  0.00    +0.036 C 
ATOM     32  C   UNL     1      31.312 -10.794 -21.404  0.00  0.00    +0.016 C 
ATOM     33  C   UNL     1      32.181 -11.928 -19.503  0.00  0.00    +0.112 C 
ATOM     34  C   UNL     1      31.706 -10.757 -20.071  0.00  0.00    +0.077 C 
ATOM     35  H   UNL     1      31.332 -14.627 -22.815  0.00  0.00    +0.175 HD
ENDBRANCH  24  28
ENDBRANCH   1  24
TORSDOF 5
ENDMDL
