MODEL 1
REMARK VINA RESULT:      -9.6      0.000      0.000
REMARK  Name = 16061509
REMARK  4 active torsions:
REMARK  status: ('A' for Active; 'I' for Inactive)
REMARK    1  A    between atoms: C_1  and  C_14
REMARK    2  A    between atoms: C_2  and  C_19
REMARK    3  A    between atoms: N_8  and  C_16
REMARK    4  A    between atoms: C_19  and  N_21
REMARK                            x       y       z     vdW  Elec       q    Type
REMARK                         _______ _______ _______ _____ _____    ______ ____
ROOT
ATOM      1  C   UNL     1      33.222 -13.738 -24.528  0.00  0.00    +0.054 C 
ATOM      2  C   UNL     1      32.782 -11.337 -23.187  0.00  0.00    -0.043 C 
ATOM      3  C   UNL     1      32.413 -13.716 -23.396  0.00  0.00    +0.004 C 
ATOM      4  C   UNL     1      33.812 -12.566 -24.994  0.00  0.00    +0.004 C 
ATOM      5  C   UNL     1      32.193 -12.513 -22.723  0.00  0.00    -0.006 C 
ATOM      6  C   UNL     1      33.592 -11.364 -24.322  0.00  0.00    -0.006 C 
ENDROOT
BRANCH   1  14
ATOM      7  O   UNL     1      32.906 -15.123 -26.331  0.00  0.00    -0.270 OA
ATOM      8  N   UNL     1      35.154 -18.252 -23.150  0.00  0.00    +0.391 N 
ATOM      9  N   UNL     1      34.271 -15.960 -24.628  0.00  0.00    -0.280 N 
ATOM     10  C   UNL     1      34.338 -18.413 -24.363  0.00  0.00    -0.055 C 
ATOM     11  C   UNL     1      34.799 -17.007 -22.453  0.00  0.00    -0.055 C 
ATOM     12  C   UNL     1      34.529 -17.227 -25.307  0.00  0.00    +0.071 C 
ATOM     13  C   UNL     1      34.987 -15.790 -23.359  0.00  0.00    +0.071 C 
ATOM     14  C   UNL     1      33.454 -15.004 -25.236  0.00  0.00    +0.249 C 
ATOM     15  H   UNL     1      36.132 -18.191 -23.433  0.00  0.00    -0.079 HD
BRANCH   8  16
ATOM     16  C   UNL     1      35.034 -19.431 -22.254  0.00  0.00    -0.058 C 
ATOM     17  C   UNL     1      35.747 -19.428 -20.946  0.00  0.00    -0.023 C 
ATOM     18  C   UNL     1      34.251 -19.312 -20.992  0.00  0.00    -0.023 C 
ENDBRANCH   8  16
ENDBRANCH   1  14
BRANCH   2  19
ATOM     19  C   UNL     1      32.546 -10.052 -22.469  0.00  0.00    -0.050 C 
BRANCH  19  21
ATOM     20  O   UNL     1      32.200  -6.123 -23.905  0.00  0.00    -0.358 OA
ATOM     21  N   UNL     1      32.494  -8.904 -23.372  0.00  0.00    +0.393 N 
ATOM     22  C   UNL     1      33.561  -7.942 -23.055  0.00  0.00    -0.044 C 
ATOM     23  C   UNL     1      31.184  -8.242 -23.302  0.00  0.00    -0.044 C 
ATOM     24  C   UNL     1      33.480  -6.748 -24.000  0.00  0.00    +0.119 C 
ATOM     25  C   UNL     1      31.160  -7.041 -24.243  0.00  0.00    +0.119 C 
ATOM     26  H   UNL     1      32.637  -9.246 -24.322  0.00  0.00    -0.079 HD
ENDBRANCH  19  21
ENDBRANCH   2  19
TORSDOF 4
ENDMDL
MODEL 2
REMARK VINA RESULT:      -9.3      4.848      8.738
REMARK  Name = 16061509
REMARK  4 active torsions:
REMARK  status: ('A' for Active; 'I' for Inactive)
REMARK    1  A    between atoms: C_1  and  C_14
REMARK    2  A    between atoms: C_2  and  C_19
REMARK    3  A    between atoms: N_8  and  C_16
REMARK    4  A    between atoms: C_19  and  N_21
REMARK                            x       y       z     vdW  Elec       q    Type
REMARK                         _______ _______ _______ _____ _____    ______ ____
ROOT
ATOM      1  C   UNL     1      34.349 -20.728 -19.972  0.00  0.00    +0.054 C 
ATOM      2  C   UNL     1      35.274 -18.734 -21.682  0.00  0.00    -0.043 C 
ATOM      3  C   UNL     1      33.440 -19.894 -20.619  0.00  0.00    +0.004 C 
ATOM      4  C   UNL     1      35.717 -20.571 -20.177  0.00  0.00    +0.004 C 
ATOM      5  C   UNL     1      33.904 -18.895 -21.475  0.00  0.00    -0.006 C 
ATOM      6  C   UNL     1      36.180 -19.572 -21.033  0.00  0.00    -0.006 C 
ENDROOT
BRANCH   1  14
ATOM      7  O   UNL     1      32.669 -22.071 -19.170  0.00  0.00    -0.270 OA
ATOM      8  N   UNL     1      36.259 -22.986 -15.818  0.00  0.00    +0.391 N 
ATOM      9  N   UNL     1      34.770 -22.366 -18.188  0.00  0.00    -0.280 N 
ATOM     10  C   UNL     1      34.801 -23.170 -15.854  0.00  0.00    -0.055 C 
ATOM     11  C   UNL     1      36.657 -21.861 -16.676  0.00  0.00    -0.055 C 
ATOM     12  C   UNL     1      34.320 -23.421 -17.282  0.00  0.00    +0.071 C 
ATOM     13  C   UNL     1      36.206 -22.075 -18.121  0.00  0.00    +0.071 C 
ATOM     14  C   UNL     1      33.861 -21.780 -19.070  0.00  0.00    +0.249 C 
ATOM     15  H   UNL     1      36.694 -23.834 -16.184  0.00  0.00    -0.079 HD
BRANCH   8  16
ATOM     16  C   UNL     1      36.751 -22.813 -14.427  0.00  0.00    -0.058 C 
ATOM     17  C   UNL     1      36.044 -23.504 -13.312  0.00  0.00    -0.023 C 
ATOM     18  C   UNL     1      37.410 -23.959 -13.738  0.00  0.00    -0.023 C 
ENDBRANCH   8  16
ENDBRANCH   1  14
BRANCH   2  19
ATOM     19  C   UNL     1      35.769 -17.667 -22.598  0.00  0.00    -0.050 C 
BRANCH  19  21
ATOM     20  O   UNL     1      33.686 -14.833 -24.888  0.00  0.00    -0.358 OA
ATOM     21  N   UNL     1      34.685 -16.936 -23.251  0.00  0.00    +0.393 N 
ATOM     22  C   UNL     1      34.850 -16.954 -24.712  0.00  0.00    -0.044 C 
ATOM     23  C   UNL     1      34.624 -15.550 -22.769  0.00  0.00    -0.044 C 
ATOM     24  C   UNL     1      33.715 -16.176 -25.371  0.00  0.00    +0.119 C 
ATOM     25  C   UNL     1      33.493 -14.806 -23.474  0.00  0.00    +0.119 C 
ATOM     26  H   UNL     1      33.808 -17.403 -23.016  0.00  0.00    -0.079 HD
ENDBRANCH  19  21
ENDBRANCH   2  19
TORSDOF 4
ENDMDL
MODEL 3
REMARK VINA RESULT:      -9.3      5.431      9.297
REMARK  Name = 16061509
REMARK  4 active torsions:
REMARK  status: ('A' for Active; 'I' for Inactive)
REMARK    1  A    between atoms: C_1  and  C_14
REMARK    2  A    between atoms: C_2  and  C_19
REMARK    3  A    between atoms: N_8  and  C_16
REMARK    4  A    between atoms: C_19  and  N_21
REMARK                            x       y       z     vdW  Elec       q    Type
REMARK                         _______ _______ _______ _____ _____    ______ ____
ROOT
ATOM      1  C   UNL     1      33.988 -21.295 -19.386  0.00  0.00    +0.054 C 
ATOM      2  C   UNL     1      34.844 -19.476 -21.314  0.00  0.00    -0.043 C 
ATOM      3  C   UNL     1      33.055 -20.519 -20.069  0.00  0.00    +0.004 C 
ATOM      4  C   UNL     1      35.346 -21.166 -19.662  0.00  0.00    +0.004 C 
ATOM      5  C   UNL     1      33.484 -19.607 -21.035  0.00  0.00    -0.006 C 
ATOM      6  C   UNL     1      35.775 -20.255 -20.627  0.00  0.00    -0.006 C 
ENDROOT
BRANCH   1  14
ATOM      7  O   UNL     1      32.338 -22.536 -18.383  0.00  0.00    -0.270 OA
ATOM      8  N   UNL     1      36.086 -23.201 -15.147  0.00  0.00    +0.391 N 
ATOM      9  N   UNL     1      34.483 -22.773 -17.485  0.00  0.00    -0.280 N 
ATOM     10  C   UNL     1      34.626 -23.365 -15.093  0.00  0.00    -0.055 C 
ATOM     11  C   UNL     1      36.451 -22.162 -16.122  0.00  0.00    -0.055 C 
ATOM     12  C   UNL     1      34.070 -23.736 -16.466  0.00  0.00    +0.071 C 
ATOM     13  C   UNL     1      35.924 -22.498 -17.517  0.00  0.00    +0.071 C 
ATOM     14  C   UNL     1      33.536 -22.254 -18.370  0.00  0.00    +0.249 C 
ATOM     15  H   UNL     1      36.493 -24.084 -15.457  0.00  0.00    -0.079 HD
BRANCH   8  16
ATOM     16  C   UNL     1      36.651 -22.911 -13.804  0.00  0.00    -0.058 C 
ATOM     17  C   UNL     1      36.047 -23.557 -12.605  0.00  0.00    -0.023 C 
ATOM     18  C   UNL     1      37.406 -23.976 -13.085  0.00  0.00    -0.023 C 
ENDBRANCH   8  16
ENDBRANCH   1  14
BRANCH   2  19
ATOM     19  C   UNL     1      35.303 -18.502 -22.345  0.00  0.00    -0.050 C 
BRANCH  19  21
ATOM     20  O   UNL     1      34.582 -14.378 -22.056  0.00  0.00    -0.358 OA
ATOM     21  N   UNL     1      34.613 -17.217 -22.254  0.00  0.00    +0.393 N 
ATOM     22  C   UNL     1      34.947 -16.362 -23.402  0.00  0.00    -0.044 C 
ATOM     23  C   UNL     1      34.952 -16.530 -21.000  0.00  0.00    -0.044 C 
ATOM     24  C   UNL     1      34.227 -15.023 -23.279  0.00  0.00    +0.119 C 
ATOM     25  C   UNL     1      34.230 -15.187 -20.934  0.00  0.00    +0.119 C 
ATOM     26  H   UNL     1      33.609 -17.400 -22.265  0.00  0.00    -0.079 HD
ENDBRANCH  19  21
ENDBRANCH   2  19
TORSDOF 4
ENDMDL
MODEL 4
REMARK VINA RESULT:      -9.3      5.539      9.911
REMARK  Name = 16061509
REMARK  4 active torsions:
REMARK  status: ('A' for Active; 'I' for Inactive)
REMARK    1  A    between atoms: C_1  and  C_14
REMARK    2  A    between atoms: C_2  and  C_19
REMARK    3  A    between atoms: N_8  and  C_16
REMARK    4  A    between atoms: C_19  and  N_21
REMARK                            x       y       z     vdW  Elec       q    Type
REMARK                         _______ _______ _______ _____ _____    ______ ____
ROOT
ATOM      1  C   UNL     1      34.146 -21.404 -19.254  0.00  0.00    +0.054 C 
ATOM      2  C   UNL     1      35.292 -19.564 -21.002  0.00  0.00    -0.043 C 
ATOM      3  C   UNL     1      35.529 -21.367 -19.411  0.00  0.00    +0.004 C 
ATOM      4  C   UNL     1      33.333 -20.526 -19.966  0.00  0.00    +0.004 C 
ATOM      5  C   UNL     1      36.103 -20.445 -20.287  0.00  0.00    -0.006 C 
ATOM      6  C   UNL     1      33.907 -19.604 -20.842  0.00  0.00    -0.006 C 
ENDROOT
BRANCH   1  14
ATOM      7  O   UNL     1      32.350 -22.626 -18.511  0.00  0.00    -0.270 OA
ATOM      8  N   UNL     1      35.615 -23.456 -14.823  0.00  0.00    +0.391 N 
ATOM      9  N   UNL     1      34.350 -22.937 -17.342  0.00  0.00    -0.280 N 
ATOM     10  C   UNL     1      34.158 -23.585 -14.969  0.00  0.00    -0.055 C 
ATOM     11  C   UNL     1      36.130 -22.406 -15.713  0.00  0.00    -0.055 C 
ATOM     12  C   UNL     1      33.783 -23.911 -16.413  0.00  0.00    +0.071 C 
ATOM     13  C   UNL     1      35.787 -22.697 -17.175  0.00  0.00    +0.071 C 
ATOM     14  C   UNL     1      33.541 -22.375 -18.332  0.00  0.00    +0.249 C 
ATOM     15  H   UNL     1      36.041 -24.342 -15.098  0.00  0.00    -0.079 HD
BRANCH   8  16
ATOM     16  C   UNL     1      36.002 -23.211 -13.410  0.00  0.00    -0.058 C 
ATOM     17  C   UNL     1      35.331 -23.983 -12.326  0.00  0.00    -0.023 C 
ATOM     18  C   UNL     1      36.767 -24.255 -12.671  0.00  0.00    -0.023 C 
ENDBRANCH   8  16
ENDBRANCH   1  14
BRANCH   2  19
ATOM     19  C   UNL     1      35.906 -18.578 -21.938  0.00  0.00    -0.050 C 
BRANCH  19  21
ATOM     20  O   UNL     1      34.351 -17.039 -25.519  0.00  0.00    -0.358 OA
ATOM     21  N   UNL     1      34.968 -18.105 -22.953  0.00  0.00    +0.393 N 
ATOM     22  C   UNL     1      35.057 -18.927 -24.169  0.00  0.00    -0.044 C 
ATOM     23  C   UNL     1      35.217 -16.694 -23.279  0.00  0.00    -0.044 C 
ATOM     24  C   UNL     1      34.078 -18.408 -25.219  0.00  0.00    +0.119 C 
ATOM     25  C   UNL     1      34.234 -16.229 -24.349  0.00  0.00    +0.119 C 
ATOM     26  H   UNL     1      34.025 -18.190 -22.571  0.00  0.00    -0.079 HD
ENDBRANCH  19  21
ENDBRANCH   2  19
TORSDOF 4
ENDMDL
MODEL 5
REMARK VINA RESULT:      -9.2      2.897      9.199
REMARK  Name = 16061509
REMARK  4 active torsions:
REMARK  status: ('A' for Active; 'I' for Inactive)
REMARK    1  A    between atoms: C_1  and  C_14
REMARK    2  A    between atoms: C_2  and  C_19
REMARK    3  A    between atoms: N_8  and  C_16
REMARK    4  A    between atoms: C_19  and  N_21
REMARK                            x       y       z     vdW  Elec       q    Type
REMARK                         _______ _______ _______ _____ _____    ______ ____
ROOT
ATOM      1  C   UNL     1      34.761 -17.237 -23.735  0.00  0.00    +0.054 C 
ATOM      2  C   UNL     1      35.649 -19.028 -21.796  0.00  0.00    -0.043 C 
ATOM      3  C   UNL     1      35.221 -16.760 -22.511  0.00  0.00    +0.004 C 
ATOM      4  C   UNL     1      34.744 -18.605 -23.995  0.00  0.00    +0.004 C 
ATOM      5  C   UNL     1      35.665 -17.657 -21.539  0.00  0.00    -0.006 C 
ATOM      6  C   UNL     1      35.188 -19.502 -23.024  0.00  0.00    -0.006 C 
ENDROOT
BRANCH   1  14
ATOM      7  O   UNL     1      34.542 -16.589 -25.926  0.00  0.00    -0.270 OA
ATOM      8  N   UNL     1      33.006 -12.451 -23.587  0.00  0.00    +0.391 N 
ATOM      9  N   UNL     1      33.607 -15.152 -24.339  0.00  0.00    -0.280 N 
ATOM     10  C   UNL     1      33.482 -12.762 -24.943  0.00  0.00    -0.055 C 
ATOM     11  C   UNL     1      33.589 -13.385 -22.611  0.00  0.00    -0.055 C 
ATOM     12  C   UNL     1      33.121 -14.195 -25.330  0.00  0.00    +0.071 C 
ATOM     13  C   UNL     1      33.242 -14.834 -22.953  0.00  0.00    +0.071 C 
ATOM     14  C   UNL     1      34.294 -16.293 -24.759  0.00  0.00    +0.249 C 
ATOM     15  H   UNL     1      31.993 -12.568 -23.572  0.00  0.00    -0.079 HD
BRANCH   8  16
ATOM     16  C   UNL     1      33.286 -11.038 -23.223  0.00  0.00    -0.058 C 
ATOM     17  C   UNL     1      34.218 -10.239 -24.066  0.00  0.00    -0.023 C 
ATOM     18  C   UNL     1      32.746  -9.944 -24.079  0.00  0.00    -0.023 C 
ENDBRANCH   8  16
ENDBRANCH   1  14
BRANCH   2  19
ATOM     19  C   UNL     1      36.124 -19.987 -20.757  0.00  0.00    -0.050 C 
BRANCH  19  21
ATOM     20  O   UNL     1      32.841 -22.171 -19.321  0.00  0.00    -0.358 OA
ATOM     21  N   UNL     1      35.046 -20.464 -19.895  0.00  0.00    +0.393 N 
ATOM     22  C   UNL     1      35.238 -21.882 -19.555  0.00  0.00    -0.044 C 
ATOM     23  C   UNL     1      33.738 -20.274 -20.539  0.00  0.00    -0.044 C 
ATOM     24  C   UNL     1      34.095 -22.361 -18.666  0.00  0.00    +0.119 C 
ATOM     25  C   UNL     1      32.631 -20.791 -19.625  0.00  0.00    +0.119 C 
ATOM     26  H   UNL     1      35.068 -19.917 -19.034  0.00  0.00    -0.079 HD
ENDBRANCH  19  21
ENDBRANCH   2  19
TORSDOF 4
ENDMDL
MODEL 6
REMARK VINA RESULT:      -8.8      4.225     10.199
REMARK  Name = 16061509
REMARK  4 active torsions:
REMARK  status: ('A' for Active; 'I' for Inactive)
REMARK    1  A    between atoms: C_1  and  C_14
REMARK    2  A    between atoms: C_2  and  C_19
REMARK    3  A    between atoms: N_8  and  C_16
REMARK    4  A    between atoms: C_19  and  N_21
REMARK                            x       y       z     vdW  Elec       q    Type
REMARK                         _______ _______ _______ _____ _____    ______ ____
ROOT
ATOM      1  C   UNL     1      34.436 -17.481 -21.082  0.00  0.00    +0.054 C 
ATOM      2  C   UNL     1      34.759 -20.185 -20.498  0.00  0.00    -0.043 C 
ATOM      3  C   UNL     1      35.716 -18.014 -20.956  0.00  0.00    +0.004 C 
ATOM      4  C   UNL     1      33.316 -18.293 -20.919  0.00  0.00    +0.004 C 
ATOM      5  C   UNL     1      35.877 -19.368 -20.663  0.00  0.00    -0.006 C 
ATOM      6  C   UNL     1      33.478 -19.647 -20.626  0.00  0.00    -0.006 C 
ENDROOT
BRANCH   1  14
ATOM      7  O   UNL     1      33.970 -15.325 -20.445  0.00  0.00    -0.270 OA
ATOM      8  N   UNL     1      33.955 -14.838 -25.417  0.00  0.00    +0.391 N 
ATOM      9  N   UNL     1      34.455 -15.638 -22.710  0.00  0.00    -0.280 N 
ATOM     10  C   UNL     1      33.432 -14.045 -24.294  0.00  0.00    -0.055 C 
ATOM     11  C   UNL     1      34.011 -16.262 -25.059  0.00  0.00    -0.055 C 
ATOM     12  C   UNL     1      34.301 -14.225 -23.051  0.00  0.00    +0.071 C 
ATOM     13  C   UNL     1      34.882 -16.492 -23.824  0.00  0.00    +0.071 C 
ATOM     14  C   UNL     1      34.265 -16.055 -21.391  0.00  0.00    +0.249 C 
ATOM     15  H   UNL     1      34.906 -14.521 -25.612  0.00  0.00    -0.079 HD
BRANCH   8  16
ATOM     16  C   UNL     1      33.163 -14.617 -26.654  0.00  0.00    -0.058 C 
ATOM     17  C   UNL     1      32.317 -13.396 -26.770  0.00  0.00    -0.023 C 
ATOM     18  C   UNL     1      33.565 -13.532 -27.594  0.00  0.00    -0.023 C 
ENDBRANCH   8  16
ENDBRANCH   1  14
BRANCH   2  19
ATOM     19  C   UNL     1      34.931 -21.632 -20.185  0.00  0.00    -0.050 C 
BRANCH  19  21
ATOM     20  O   UNL     1      34.926 -23.635 -16.497  0.00  0.00    -0.358 OA
ATOM     21  N   UNL     1      34.735 -21.930 -18.768  0.00  0.00    +0.393 N 
ATOM     22  C   UNL     1      36.022 -22.188 -18.106  0.00  0.00    -0.044 C 
ATOM     23  C   UNL     1      33.840 -23.083 -18.595  0.00  0.00    -0.044 C 
ATOM     24  C   UNL     1      35.792 -22.508 -16.632  0.00  0.00    +0.119 C 
ATOM     25  C   UNL     1      33.661 -23.380 -17.109  0.00  0.00    +0.119 C 
ATOM     26  H   UNL     1      34.303 -21.113 -18.334  0.00  0.00    -0.079 HD
ENDBRANCH  19  21
ENDBRANCH   2  19
TORSDOF 4
ENDMDL
MODEL 7
REMARK VINA RESULT:      -8.7      6.011     10.233
REMARK  Name = 16061509
REMARK  4 active torsions:
REMARK  status: ('A' for Active; 'I' for Inactive)
REMARK    1  A    between atoms: C_1  and  C_14
REMARK    2  A    between atoms: C_2  and  C_19
REMARK    3  A    between atoms: N_8  and  C_16
REMARK    4  A    between atoms: C_19  and  N_21
REMARK                            x       y       z     vdW  Elec       q    Type
REMARK                         _______ _______ _______ _____ _____    ______ ____
ROOT
ATOM      1  C   UNL     1      33.808 -21.866 -18.715  0.00  0.00    +0.054 C 
ATOM      2  C   UNL     1      35.106 -20.272 -20.595  0.00  0.00    -0.043 C 
ATOM      3  C   UNL     1      35.195 -21.912 -18.823  0.00  0.00    +0.004 C 
ATOM      4  C   UNL     1      33.066 -21.026 -19.543  0.00  0.00    +0.004 C 
ATOM      5  C   UNL     1      35.846 -21.114 -19.765  0.00  0.00    -0.006 C 
ATOM      6  C   UNL     1      33.716 -20.228 -20.484  0.00  0.00    -0.006 C 
ENDROOT
BRANCH   1  14
ATOM      7  O   UNL     1      31.909 -22.839 -17.870  0.00  0.00    -0.270 OA
ATOM      8  N   UNL     1      35.145 -23.780 -14.182  0.00  0.00    +0.391 N 
ATOM      9  N   UNL     1      33.889 -23.288 -16.711  0.00  0.00    -0.280 N 
ATOM     10  C   UNL     1      33.679 -23.761 -14.298  0.00  0.00    -0.055 C 
ATOM     11  C   UNL     1      35.749 -22.849 -15.145  0.00  0.00    -0.055 C 
ATOM     12  C   UNL     1      33.241 -24.135 -15.713  0.00  0.00    +0.071 C 
ATOM     13  C   UNL     1      35.347 -23.193 -16.580  0.00  0.00    +0.071 C 
ATOM     14  C   UNL     1      33.124 -22.706 -17.724  0.00  0.00    +0.249 C 
ATOM     15  H   UNL     1      35.468 -24.722 -14.405  0.00  0.00    -0.079 HD
BRANCH   8  16
ATOM     16  C   UNL     1      35.584 -23.489 -12.793  0.00  0.00    -0.058 C 
ATOM     17  C   UNL     1      36.347 -24.523 -12.038  0.00  0.00    -0.023 C 
ATOM     18  C   UNL     1      37.033 -23.276 -12.516  0.00  0.00    -0.023 C 
ENDBRANCH   8  16
ENDBRANCH   1  14
BRANCH   2  19
ATOM     19  C   UNL     1      35.801 -19.418 -21.601  0.00  0.00    -0.050 C 
BRANCH  19  21
ATOM     20  O   UNL     1      34.696 -15.591 -22.924  0.00  0.00    -0.358 OA
ATOM     21  N   UNL     1      34.994 -18.275 -22.023  0.00  0.00    +0.393 N 
ATOM     22  C   UNL     1      35.323 -17.885 -23.402  0.00  0.00    -0.044 C 
ATOM     23  C   UNL     1      35.190 -17.134 -21.118  0.00  0.00    -0.044 C 
ATOM     24  C   UNL     1      34.479 -16.684 -23.817  0.00  0.00    +0.119 C 
ATOM     25  C   UNL     1      34.348 -15.951 -21.587  0.00  0.00    +0.119 C 
ATOM     26  H   UNL     1      34.013 -18.555 -21.989  0.00  0.00    -0.079 HD
ENDBRANCH  19  21
ENDBRANCH   2  19
TORSDOF 4
ENDMDL
MODEL 8
REMARK VINA RESULT:      -8.7      7.120     11.896
REMARK  Name = 16061509
REMARK  4 active torsions:
REMARK  status: ('A' for Active; 'I' for Inactive)
REMARK    1  A    between atoms: C_1  and  C_14
REMARK    2  A    between atoms: C_2  and  C_19
REMARK    3  A    between atoms: N_8  and  C_16
REMARK    4  A    between atoms: C_19  and  N_21
REMARK                            x       y       z     vdW  Elec       q    Type
REMARK                         _______ _______ _______ _____ _____    ______ ____
ROOT
ATOM      1  C   UNL     1      34.947 -23.133 -16.667  0.00  0.00    +0.054 C 
ATOM      2  C   UNL     1      36.042 -21.635 -18.745  0.00  0.00    -0.043 C 
ATOM      3  C   UNL     1      34.260 -23.016 -17.873  0.00  0.00    +0.004 C 
ATOM      4  C   UNL     1      36.179 -22.506 -16.496  0.00  0.00    +0.004 C 
ATOM      5  C   UNL     1      34.808 -22.265 -18.914  0.00  0.00    -0.006 C 
ATOM      6  C   UNL     1      36.726 -21.756 -17.536  0.00  0.00    -0.006 C 
ENDROOT
BRANCH   1  14
ATOM      7  O   UNL     1      35.095 -24.793 -15.089  0.00  0.00    -0.270 OA
ATOM      8  N   UNL     1      30.220 -23.727 -14.849  0.00  0.00    +0.391 N 
ATOM      9  N   UNL     1      33.068 -23.631 -15.162  0.00  0.00    -0.280 N 
ATOM     10  C   UNL     1      31.057 -24.861 -14.430  0.00  0.00    -0.055 C 
ATOM     11  C   UNL     1      30.820 -23.044 -16.004  0.00  0.00    -0.055 C 
ATOM     12  C   UNL     1      32.465 -24.393 -14.070  0.00  0.00    +0.071 C 
ATOM     13  C   UNL     1      32.230 -22.546 -15.685  0.00  0.00    +0.071 C 
ATOM     14  C   UNL     1      34.370 -23.924 -15.572  0.00  0.00    +0.249 C 
ATOM     15  H   UNL     1      30.175 -23.064 -14.075  0.00  0.00    -0.079 HD
BRANCH   8  16
ATOM     16  C   UNL     1      28.826 -24.156 -15.134  0.00  0.00    -0.058 C 
ATOM     17  C   UNL     1      27.901 -23.215 -15.826  0.00  0.00    -0.023 C 
ATOM     18  C   UNL     1      28.420 -24.429 -16.541  0.00  0.00    -0.023 C 
ENDBRANCH   8  16
ENDBRANCH   1  14
BRANCH   2  19
ATOM     19  C   UNL     1      36.628 -20.833 -19.857  0.00  0.00    -0.050 C 
BRANCH  19  21
ATOM     20  O   UNL     1      34.362 -18.138 -22.140  0.00  0.00    -0.358 OA
ATOM     21  N   UNL     1      35.790 -19.697 -20.235  0.00  0.00    +0.393 N 
ATOM     22  C   UNL     1      34.514 -20.156 -20.803  0.00  0.00    -0.044 C 
ATOM     23  C   UNL     1      36.486 -18.831 -21.196  0.00  0.00    -0.044 C 
ATOM     24  C   UNL     1      33.662 -18.955 -21.201  0.00  0.00    +0.119 C 
ATOM     25  C   UNL     1      35.587 -17.661 -21.584  0.00  0.00    +0.119 C 
ATOM     26  H   UNL     1      35.596 -19.158 -19.391  0.00  0.00    -0.079 HD
ENDBRANCH  19  21
ENDBRANCH   2  19
TORSDOF 4
ENDMDL
MODEL 9
REMARK VINA RESULT:      -8.6      2.901      8.921
REMARK  Name = 16061509
REMARK  4 active torsions:
REMARK  status: ('A' for Active; 'I' for Inactive)
REMARK    1  A    between atoms: C_1  and  C_14
REMARK    2  A    between atoms: C_2  and  C_19
REMARK    3  A    between atoms: N_8  and  C_16
REMARK    4  A    between atoms: C_19  and  N_21
REMARK                            x       y       z     vdW  Elec       q    Type
REMARK                         _______ _______ _______ _____ _____    ______ ____
ROOT
ATOM      1  C   UNL     1      34.369 -15.180 -22.842  0.00  0.00    +0.054 C 
ATOM      2  C   UNL     1      35.439 -17.532 -21.802  0.00  0.00    -0.043 C 
ATOM      3  C   UNL     1      34.522 -15.322 -21.465  0.00  0.00    +0.004 C 
ATOM      4  C   UNL     1      34.749 -16.208 -23.701  0.00  0.00    +0.004 C 
ATOM      5  C   UNL     1      35.057 -16.501 -20.944  0.00  0.00    -0.006 C 
ATOM      6  C   UNL     1      35.285 -17.386 -23.180  0.00  0.00    -0.006 C 
ENDROOT
BRANCH   1  14
ATOM      7  O   UNL     1      34.321 -13.520 -24.426  0.00  0.00    -0.270 OA
ATOM      8  N   UNL     1      31.219 -11.617 -21.003  0.00  0.00    +0.391 N 
ATOM      9  N   UNL     1      32.741 -13.343 -22.713  0.00  0.00    -0.280 N 
ATOM     10  C   UNL     1      31.982 -11.067 -22.134  0.00  0.00    -0.055 C 
ATOM     11  C   UNL     1      31.894 -12.802 -20.455  0.00  0.00    -0.055 C 
ATOM     12  C   UNL     1      32.151 -12.112 -23.235  0.00  0.00    +0.071 C 
ATOM     13  C   UNL     1      32.075 -13.882 -21.522  0.00  0.00    +0.071 C 
ATOM     14  C   UNL     1      33.806 -13.940 -23.390  0.00  0.00    +0.249 C 
ATOM     15  H   UNL     1      30.303 -11.904 -21.349  0.00  0.00    -0.079 HD
BRANCH   8  16
ATOM     16  C   UNL     1      30.984 -10.590 -19.956  0.00  0.00    -0.058 C 
ATOM     17  C   UNL     1      31.867 -10.557 -18.756  0.00  0.00    -0.023 C 
ATOM     18  C   UNL     1      31.960  -9.476 -19.793  0.00  0.00    -0.023 C 
ENDBRANCH   8  16
ENDBRANCH   1  14
BRANCH   2  19
ATOM     19  C   UNL     1      36.012 -18.791 -21.245  0.00  0.00    -0.050 C 
BRANCH  19  21
ATOM     20  O   UNL     1      32.976 -21.131 -19.537  0.00  0.00    -0.358 OA
ATOM     21  N   UNL     1      35.004 -19.832 -21.053  0.00  0.00    +0.393 N 
ATOM     22  C   UNL     1      33.668 -19.241 -20.889  0.00  0.00    -0.044 C 
ATOM     23  C   UNL     1      35.331 -20.667 -19.888  0.00  0.00    -0.044 C 
ATOM     24  C   UNL     1      32.635 -20.343 -20.678  0.00  0.00    +0.119 C 
ATOM     25  C   UNL     1      34.258 -21.736 -19.701  0.00  0.00    +0.119 C 
ATOM     26  H   UNL     1      35.000 -20.421 -21.886  0.00  0.00    -0.079 HD
ENDBRANCH  19  21
ENDBRANCH   2  19
TORSDOF 4
ENDMDL
