MODEL 1
REMARK VINA RESULT:     -10.1      0.000      0.000
REMARK  Name = 6719
REMARK  4 active torsions:
REMARK  status: ('A' for Active; 'I' for Inactive)
REMARK    1  A    between atoms: C_1  and  C_2
REMARK    2  A    between atoms: C_1  and  C_8
REMARK    3  A    between atoms: C_1  and  C_15
REMARK    4  A    between atoms: C_15  and  C_18
REMARK                            x       y       z     vdW  Elec       q    Type
REMARK                         _______ _______ _______ _____ _____    ______ ____
ROOT
ATOM      1  C   UNL     1      34.503 -24.119 -15.568  0.00  0.00    +0.103 C 
ENDROOT
BRANCH   1   2
ATOM      2  C   UNL     1      35.597 -24.606 -14.626  0.00  0.00    -0.011 C 
ATOM      3  C   UNL     1      36.280 -25.762 -14.940  0.00  0.00    -0.004 C 
ATOM      4  C   UNL     1      35.871 -23.875 -13.488  0.00  0.00    -0.004 C 
ATOM      5  C   UNL     1      37.281 -26.208 -14.078  0.00  0.00    -0.000 C 
ATOM      6  C   UNL     1      36.872 -24.321 -12.626  0.00  0.00    -0.000 C 
ATOM      7  C   UNL     1      37.577 -25.488 -12.920  0.00  0.00    -0.000 C 
ENDBRANCH   1   2
BRANCH   1   8
ATOM      8  C   UNL     1      33.154 -23.969 -14.879  0.00  0.00    -0.011 C 
ATOM      9  C   UNL     1      32.638 -25.042 -14.182  0.00  0.00    -0.004 C 
ATOM     10  C   UNL     1      32.486 -22.764 -14.973  0.00  0.00    -0.004 C 
ATOM     11  C   UNL     1      31.401 -24.906 -13.552  0.00  0.00    -0.000 C 
ATOM     12  C   UNL     1      31.250 -22.628 -14.343  0.00  0.00    -0.000 C 
ATOM     13  C   UNL     1      30.707 -23.698 -13.632  0.00  0.00    -0.000 C 
ENDBRANCH   1   8
BRANCH   1  15
ATOM     14  O   UNL     1      35.319 -21.843 -15.832  0.00  0.00    -0.294 OA
ATOM     15  C   UNL     1      34.917 -22.879 -16.364  0.00  0.00    +0.173 C 
BRANCH  15  18
ATOM     16  O   UNL     1      37.034 -22.153 -18.506  0.00  0.00    -0.290 OA
ATOM     17  O   UNL     1      32.384 -22.983 -18.143  0.00  0.00    -0.290 OA
ATOM     18  C   UNL     1      34.819 -22.973 -17.848  0.00  0.00    +0.181 C 
ATOM     19  C   UNL     1      35.822 -22.106 -18.587  0.00  0.00    +0.187 C 
ATOM     20  C   UNL     1      33.479 -22.523 -18.405  0.00  0.00    +0.187 C 
ATOM     21  C   UNL     1      35.082 -21.175 -19.442  0.00  0.00    +0.038 C 
ATOM     22  C   UNL     1      33.716 -21.419 -19.335  0.00  0.00    +0.038 C 
ATOM     23  C   UNL     1      35.581 -20.186 -20.267  0.00  0.00    +0.003 C 
ATOM     24  C   UNL     1      32.789 -20.684 -20.049  0.00  0.00    +0.003 C 
ATOM     25  C   UNL     1      34.659 -19.430 -20.995  0.00  0.00    +0.000 C 
ATOM     26  C   UNL     1      33.276 -19.677 -20.887  0.00  0.00    +0.000 C 
ENDBRANCH  15  18
ENDBRANCH   1  15
TORSDOF 4
ENDMDL
MODEL 2
REMARK VINA RESULT:      -9.9      8.451     12.992
REMARK  Name = 6719
REMARK  4 active torsions:
REMARK  status: ('A' for Active; 'I' for Inactive)
REMARK    1  A    between atoms: C_1  and  C_2
REMARK    2  A    between atoms: C_1  and  C_8
REMARK    3  A    between atoms: C_1  and  C_15
REMARK    4  A    between atoms: C_15  and  C_18
REMARK                            x       y       z     vdW  Elec       q    Type
REMARK                         _______ _______ _______ _____ _____    ______ ____
ROOT
ATOM      1  C   UNL     1      32.283 -12.359 -23.013  0.00  0.00    +0.103 C 
ENDROOT
BRANCH   1   2
ATOM      2  C   UNL     1      32.035 -11.472 -21.800  0.00  0.00    -0.011 C 
ATOM      3  C   UNL     1      31.968 -10.106 -21.976  0.00  0.00    -0.004 C 
ATOM      4  C   UNL     1      31.885 -12.063 -20.562  0.00  0.00    -0.004 C 
ATOM      5  C   UNL     1      31.742  -9.294 -20.866  0.00  0.00    -0.000 C 
ATOM      6  C   UNL     1      31.658 -11.251 -19.452  0.00  0.00    -0.000 C 
ATOM      7  C   UNL     1      31.587  -9.866 -19.603  0.00  0.00    -0.000 C 
ENDBRANCH   1   2
BRANCH   1   8
ATOM      8  C   UNL     1      33.288 -11.762 -23.987  0.00  0.00    -0.011 C 
ATOM      9  C   UNL     1      34.130 -10.761 -23.546  0.00  0.00    -0.004 C 
ATOM     10  C   UNL     1      33.329 -12.239 -25.282  0.00  0.00    -0.004 C 
ATOM     11  C   UNL     1      35.051 -10.212 -24.439  0.00  0.00    -0.000 C 
ATOM     12  C   UNL     1      34.249 -11.690 -26.174  0.00  0.00    -0.000 C 
ATOM     13  C   UNL     1      35.111 -10.677 -25.753  0.00  0.00    -0.000 C 
ENDBRANCH   1   8
BRANCH   1  15
ATOM     14  O   UNL     1      31.787 -14.546 -22.069  0.00  0.00    -0.294 OA
ATOM     15  C   UNL     1      32.598 -13.808 -22.631  0.00  0.00    +0.173 C 
BRANCH  15  18
ATOM     16  O   UNL     1      33.568 -15.166 -25.242  0.00  0.00    -0.290 OA
ATOM     17  O   UNL     1      34.923 -14.587 -20.739  0.00  0.00    -0.290 OA
ATOM     18  C   UNL     1      33.958 -14.311 -22.977  0.00  0.00    +0.181 C 
ATOM     19  C   UNL     1      33.971 -15.327 -24.105  0.00  0.00    +0.187 C 
ATOM     20  C   UNL     1      34.654 -15.035 -21.837  0.00  0.00    +0.187 C 
ATOM     21  C   UNL     1      34.562 -16.567 -23.600  0.00  0.00    +0.038 C 
ATOM     22  C   UNL     1      34.961 -16.396 -22.277  0.00  0.00    +0.038 C 
ATOM     23  C   UNL     1      34.747 -17.763 -24.266  0.00  0.00    +0.003 C 
ATOM     24  C   UNL     1      35.561 -17.414 -21.563  0.00  0.00    +0.003 C 
ATOM     25  C   UNL     1      35.351 -18.805 -23.558  0.00  0.00    +0.000 C 
ATOM     26  C   UNL     1      35.754 -18.633 -22.220  0.00  0.00    +0.000 C 
ENDBRANCH  15  18
ENDBRANCH   1  15
TORSDOF 4
ENDMDL
MODEL 3
REMARK VINA RESULT:      -9.9      6.969     12.037
REMARK  Name = 6719
REMARK  4 active torsions:
REMARK  status: ('A' for Active; 'I' for Inactive)
REMARK    1  A    between atoms: C_1  and  C_2
REMARK    2  A    between atoms: C_1  and  C_8
REMARK    3  A    between atoms: C_1  and  C_15
REMARK    4  A    between atoms: C_15  and  C_18
REMARK                            x       y       z     vdW  Elec       q    Type
REMARK                         _______ _______ _______ _____ _____    ______ ____
ROOT
ATOM      1  C   UNL     1      33.485 -13.324 -22.768  0.00  0.00    +0.103 C 
ENDROOT
BRANCH   1   2
ATOM      2  C   UNL     1      33.427 -13.126 -24.277  0.00  0.00    -0.011 C 
ATOM      3  C   UNL     1      34.024 -12.010 -24.825  0.00  0.00    -0.004 C 
ATOM      4  C   UNL     1      32.779 -14.069 -25.049  0.00  0.00    -0.004 C 
ATOM      5  C   UNL     1      33.971 -11.828 -26.207  0.00  0.00    -0.000 C 
ATOM      6  C   UNL     1      32.726 -13.887 -26.430  0.00  0.00    -0.000 C 
ATOM      7  C   UNL     1      33.321 -12.766 -27.010  0.00  0.00    -0.000 C 
ENDBRANCH   1   2
BRANCH   1   8
ATOM      8  C   UNL     1      32.507 -12.433 -22.016  0.00  0.00    -0.011 C 
ATOM      9  C   UNL     1      32.376 -12.589 -20.651  0.00  0.00    -0.004 C 
ATOM     10  C   UNL     1      31.780 -11.495 -22.722  0.00  0.00    -0.004 C 
ATOM     11  C   UNL     1      31.479 -11.773 -19.962  0.00  0.00    -0.000 C 
ATOM     12  C   UNL     1      30.884 -10.679 -22.033  0.00  0.00    -0.000 C 
ATOM     13  C   UNL     1      30.733 -10.817 -20.653  0.00  0.00    -0.000 C 
ENDBRANCH   1   8
BRANCH   1  15
ATOM     14  O   UNL     1      32.337 -15.346 -22.052  0.00  0.00    -0.294 OA
ATOM     15  C   UNL     1      33.396 -14.797 -22.362  0.00  0.00    +0.173 C 
BRANCH  15  18
ATOM     16  O   UNL     1      34.702 -16.417 -24.657  0.00  0.00    -0.290 OA
ATOM     17  O   UNL     1      34.967 -15.944 -19.950  0.00  0.00    -0.290 OA
ATOM     18  C   UNL     1      34.671 -15.569 -22.356  0.00  0.00    +0.181 C 
ATOM     19  C   UNL     1      34.765 -16.609 -23.458  0.00  0.00    +0.187 C 
ATOM     20  C   UNL     1      34.899 -16.371 -21.087  0.00  0.00    +0.187 C 
ATOM     21  C   UNL     1      34.952 -17.921 -22.836  0.00  0.00    +0.038 C 
ATOM     22  C   UNL     1      35.030 -17.782 -21.453  0.00  0.00    +0.038 C 
ATOM     23  C   UNL     1      35.058 -19.155 -23.449  0.00  0.00    +0.003 C 
ATOM     24  C   UNL     1      35.217 -18.870 -20.623  0.00  0.00    +0.003 C 
ATOM     25  C   UNL     1      35.244 -20.268 -22.625  0.00  0.00    +0.000 C 
ATOM     26  C   UNL     1      35.323 -20.127 -21.226  0.00  0.00    +0.000 C 
ENDBRANCH  15  18
ENDBRANCH   1  15
TORSDOF 4
ENDMDL
MODEL 4
REMARK VINA RESULT:      -9.8     13.966     17.628
REMARK  Name = 6719
REMARK  4 active torsions:
REMARK  status: ('A' for Active; 'I' for Inactive)
REMARK    1  A    between atoms: C_1  and  C_2
REMARK    2  A    between atoms: C_1  and  C_8
REMARK    3  A    between atoms: C_1  and  C_15
REMARK    4  A    between atoms: C_15  and  C_18
REMARK                            x       y       z     vdW  Elec       q    Type
REMARK                         _______ _______ _______ _____ _____    ______ ____
ROOT
ATOM      1  C   UNL     1      32.850  -8.585 -22.724  0.00  0.00    +0.103 C 
ENDROOT
BRANCH   1   2
ATOM      2  C   UNL     1      32.165  -9.376 -21.617  0.00  0.00    -0.011 C 
ATOM      3  C   UNL     1      32.308  -8.956 -20.311  0.00  0.00    -0.004 C 
ATOM      4  C   UNL     1      31.420 -10.488 -21.955  0.00  0.00    -0.004 C 
ATOM      5  C   UNL     1      31.681  -9.680 -19.298  0.00  0.00    -0.000 C 
ATOM      6  C   UNL     1      30.793 -11.211 -20.942  0.00  0.00    -0.000 C 
ATOM      7  C   UNL     1      30.923 -10.809 -19.613  0.00  0.00    -0.000 C 
ENDBRANCH   1   2
BRANCH   1   8
ATOM      8  C   UNL     1      33.573  -9.474 -23.725  0.00  0.00    -0.011 C 
ATOM      9  C   UNL     1      34.804  -9.075 -24.205  0.00  0.00    -0.004 C 
ATOM     10  C   UNL     1      32.977 -10.654 -24.123  0.00  0.00    -0.004 C 
ATOM     11  C   UNL     1      35.466  -9.889 -25.123  0.00  0.00    -0.000 C 
ATOM     12  C   UNL     1      33.640 -11.468 -25.041  0.00  0.00    -0.000 C 
ATOM     13  C   UNL     1      34.884 -11.086 -25.541  0.00  0.00    -0.000 C 
ENDBRANCH   1   8
BRANCH   1  15
ATOM     14  O   UNL     1      30.815  -7.859 -23.842  0.00  0.00    -0.294 OA
ATOM     15  C   UNL     1      31.920  -7.564 -23.383  0.00  0.00    +0.173 C 
BRANCH  15  18
ATOM     16  O   UNL     1      30.506  -4.963 -22.469  0.00  0.00    -0.290 OA
ATOM     17  O   UNL     1      34.124  -6.355 -25.194  0.00  0.00    -0.290 OA
ATOM     18  C   UNL     1      32.410  -6.157 -23.450  0.00  0.00    +0.181 C 
ATOM     19  C   UNL     1      31.307  -5.117 -23.372  0.00  0.00    +0.187 C 
ATOM     20  C   UNL     1      33.129  -5.818 -24.744  0.00  0.00    +0.187 C 
ATOM     21  C   UNL     1      31.358  -4.301 -24.586  0.00  0.00    +0.038 C 
ATOM     22  C   UNL     1      32.422  -4.710 -25.386  0.00  0.00    +0.038 C 
ATOM     23  C   UNL     1      30.530  -3.260 -24.956  0.00  0.00    +0.003 C 
ATOM     24  C   UNL     1      32.701  -4.096 -26.591  0.00  0.00    +0.003 C 
ATOM     25  C   UNL     1      30.796  -2.627 -26.173  0.00  0.00    +0.000 C 
ATOM     26  C   UNL     1      31.872  -3.041 -26.982  0.00  0.00    +0.000 C 
ENDBRANCH  15  18
ENDBRANCH   1  15
TORSDOF 4
ENDMDL
MODEL 5
REMARK VINA RESULT:      -9.5      7.668     12.971
REMARK  Name = 6719
REMARK  4 active torsions:
REMARK  status: ('A' for Active; 'I' for Inactive)
REMARK    1  A    between atoms: C_1  and  C_2
REMARK    2  A    between atoms: C_1  and  C_8
REMARK    3  A    between atoms: C_1  and  C_15
REMARK    4  A    between atoms: C_15  and  C_18
REMARK                            x       y       z     vdW  Elec       q    Type
REMARK                         _______ _______ _______ _____ _____    ______ ____
ROOT
ATOM      1  C   UNL     1      33.059 -12.637 -23.399  0.00  0.00    +0.103 C 
ENDROOT
BRANCH   1   2
ATOM      2  C   UNL     1      32.390 -11.789 -22.324  0.00  0.00    -0.011 C 
ATOM      3  C   UNL     1      32.037 -12.384 -21.131  0.00  0.00    -0.004 C 
ATOM      4  C   UNL     1      32.159 -10.452 -22.576  0.00  0.00    -0.004 C 
ATOM      5  C   UNL     1      31.424 -11.609 -20.147  0.00  0.00    -0.000 C 
ATOM      6  C   UNL     1      31.547  -9.677 -21.593  0.00  0.00    -0.000 C 
ATOM      7  C   UNL     1      31.179 -10.255 -20.378  0.00  0.00    -0.000 C 
ENDBRANCH   1   2
BRANCH   1   8
ATOM      8  C   UNL     1      33.866 -11.808 -24.387  0.00  0.00    -0.011 C 
ATOM      9  C   UNL     1      33.944 -12.226 -25.700  0.00  0.00    -0.004 C 
ATOM     10  C   UNL     1      34.496 -10.663 -23.942  0.00  0.00    -0.004 C 
ATOM     11  C   UNL     1      34.685 -11.467 -26.606  0.00  0.00    -0.000 C 
ATOM     12  C   UNL     1      35.236  -9.904 -24.848  0.00  0.00    -0.000 C 
ATOM     13  C   UNL     1      35.330 -10.306 -26.180  0.00  0.00    -0.000 C 
ENDBRANCH   1   8
BRANCH   1  15
ATOM     14  O   UNL     1      34.911 -13.686 -22.223  0.00  0.00    -0.294 OA
ATOM     15  C   UNL     1      33.841 -13.817 -22.818  0.00  0.00    +0.173 C 
BRANCH  15  18
ATOM     16  O   UNL     1      32.823 -15.804 -20.670  0.00  0.00    -0.290 OA
ATOM     17  O   UNL     1      34.075 -15.736 -25.239  0.00  0.00    -0.290 OA
ATOM     18  C   UNL     1      33.244 -15.171 -23.001  0.00  0.00    +0.181 C 
ATOM     19  C   UNL     1      33.305 -16.044 -21.761  0.00  0.00    +0.187 C 
ATOM     20  C   UNL     1      33.936 -16.009 -24.062  0.00  0.00    +0.187 C 
ATOM     21  C   UNL     1      34.056 -17.257 -22.089  0.00  0.00    +0.038 C 
ATOM     22  C   UNL     1      34.423 -17.237 -23.431  0.00  0.00    +0.038 C 
ATOM     23  C   UNL     1      34.384 -18.313 -21.262  0.00  0.00    +0.003 C 
ATOM     24  C   UNL     1      35.135 -18.272 -24.004  0.00  0.00    +0.003 C 
ATOM     25  C   UNL     1      35.106 -19.369 -21.823  0.00  0.00    +0.000 C 
ATOM     26  C   UNL     1      35.478 -19.349 -23.182  0.00  0.00    +0.000 C 
ENDBRANCH  15  18
ENDBRANCH   1  15
TORSDOF 4
ENDMDL
MODEL 6
REMARK VINA RESULT:      -9.4      1.307      2.544
REMARK  Name = 6719
REMARK  4 active torsions:
REMARK  status: ('A' for Active; 'I' for Inactive)
REMARK    1  A    between atoms: C_1  and  C_2
REMARK    2  A    between atoms: C_1  and  C_8
REMARK    3  A    between atoms: C_1  and  C_15
REMARK    4  A    between atoms: C_15  and  C_18
REMARK                            x       y       z     vdW  Elec       q    Type
REMARK                         _______ _______ _______ _____ _____    ______ ____
ROOT
ATOM      1  C   UNL     1      33.656 -24.069 -16.709  0.00  0.00    +0.103 C 
ENDROOT
BRANCH   1   2
ATOM      2  C   UNL     1      34.893 -23.967 -15.825  0.00  0.00    -0.011 C 
ATOM      3  C   UNL     1      35.536 -25.125 -15.443  0.00  0.00    -0.004 C 
ATOM      4  C   UNL     1      35.332 -22.718 -15.435  0.00  0.00    -0.004 C 
ATOM      5  C   UNL     1      36.668 -25.031 -14.633  0.00  0.00    -0.000 C 
ATOM      6  C   UNL     1      36.463 -22.624 -14.627  0.00  0.00    -0.000 C 
ATOM      7  C   UNL     1      37.132 -23.781 -14.225  0.00  0.00    -0.000 C 
ENDBRANCH   1   2
BRANCH   1   8
ATOM      8  C   UNL     1      32.398 -23.550 -16.028  0.00  0.00    -0.011 C 
ATOM      9  C   UNL     1      31.244 -23.416 -16.772  0.00  0.00    -0.004 C 
ATOM     10  C   UNL     1      32.449 -23.229 -14.686  0.00  0.00    -0.004 C 
ATOM     11  C   UNL     1      30.091 -22.939 -16.149  0.00  0.00    -0.000 C 
ATOM     12  C   UNL     1      31.296 -22.753 -14.063  0.00  0.00    -0.000 C 
ATOM     13  C   UNL     1      30.117 -22.608 -14.794  0.00  0.00    -0.000 C 
ENDBRANCH   1   8
BRANCH   1  15
ATOM     14  O   UNL     1      33.815 -24.151 -19.135  0.00  0.00    -0.294 OA
ATOM     15  C   UNL     1      33.876 -23.479 -18.104  0.00  0.00    +0.173 C 
BRANCH  15  18
ATOM     16  O   UNL     1      31.992 -21.143 -18.872  0.00  0.00    -0.290 OA
ATOM     17  O   UNL     1      36.616 -22.063 -18.398  0.00  0.00    -0.290 OA
ATOM     18  C   UNL     1      34.173 -22.020 -18.175  0.00  0.00    +0.181 C 
ATOM     19  C   UNL     1      33.195 -21.234 -19.029  0.00  0.00    +0.187 C 
ATOM     20  C   UNL     1      35.524 -21.697 -18.790  0.00  0.00    +0.187 C 
ATOM     21  C   UNL     1      33.945 -20.579 -20.102  0.00  0.00    +0.038 C 
ATOM     22  C   UNL     1      35.303 -20.849 -19.962  0.00  0.00    +0.038 C 
ATOM     23  C   UNL     1      33.464 -19.789 -21.127  0.00  0.00    +0.003 C 
ATOM     24  C   UNL     1      36.239 -20.341 -20.842  0.00  0.00    +0.003 C 
ATOM     25  C   UNL     1      34.395 -19.267 -22.029  0.00  0.00    +0.000 C 
ATOM     26  C   UNL     1      35.769 -19.541 -21.888  0.00  0.00    +0.000 C 
ENDBRANCH  15  18
ENDBRANCH   1  15
TORSDOF 4
ENDMDL
MODEL 7
REMARK VINA RESULT:      -9.3     10.036     14.450
REMARK  Name = 6719
REMARK  4 active torsions:
REMARK  status: ('A' for Active; 'I' for Inactive)
REMARK    1  A    between atoms: C_1  and  C_2
REMARK    2  A    between atoms: C_1  and  C_8
REMARK    3  A    between atoms: C_1  and  C_15
REMARK    4  A    between atoms: C_15  and  C_18
REMARK                            x       y       z     vdW  Elec       q    Type
REMARK                         _______ _______ _______ _____ _____    ______ ____
ROOT
ATOM      1  C   UNL     1      33.551 -12.390 -23.340  0.00  0.00    +0.103 C 
ENDROOT
BRANCH   1   2
ATOM      2  C   UNL     1      33.529 -13.505 -22.303  0.00  0.00    -0.011 C 
ATOM      3  C   UNL     1      34.530 -14.454 -22.324  0.00  0.00    -0.004 C 
ATOM      4  C   UNL     1      32.509 -13.531 -21.374  0.00  0.00    -0.004 C 
ATOM      5  C   UNL     1      34.509 -15.475 -21.375  0.00  0.00    -0.000 C 
ATOM      6  C   UNL     1      32.489 -14.552 -20.425  0.00  0.00    -0.000 C 
ATOM      7  C   UNL     1      33.488 -15.525 -20.425  0.00  0.00    -0.000 C 
ENDBRANCH   1   2
BRANCH   1   8
ATOM      8  C   UNL     1      33.412 -12.905 -24.765  0.00  0.00    -0.011 C 
ATOM      9  C   UNL     1      33.772 -12.080 -25.811  0.00  0.00    -0.004 C 
ATOM     10  C   UNL     1      32.930 -14.182 -24.970  0.00  0.00    -0.004 C 
ATOM     11  C   UNL     1      33.643 -12.551 -27.117  0.00  0.00    -0.000 C 
ATOM     12  C   UNL     1      32.801 -14.653 -26.275  0.00  0.00    -0.000 C 
ATOM     13  C   UNL     1      33.158 -13.838 -27.350  0.00  0.00    -0.000 C 
ENDBRANCH   1   8
BRANCH   1  15
ATOM     14  O   UNL     1      31.359 -11.353 -23.151  0.00  0.00    -0.294 OA
ATOM     15  C   UNL     1      32.579 -11.255 -23.009  0.00  0.00    +0.173 C 
BRANCH  15  18
ATOM     16  O   UNL     1      31.587  -9.434 -20.707  0.00  0.00    -0.290 OA
ATOM     17  O   UNL     1      34.536  -9.308 -24.413  0.00  0.00    -0.290 OA
ATOM     18  C   UNL     1      33.175  -9.991 -22.490  0.00  0.00    +0.181 C 
ATOM     19  C   UNL     1      32.202  -9.126 -21.710  0.00  0.00    +0.187 C 
ATOM     20  C   UNL     1      33.688  -9.062 -23.577  0.00  0.00    +0.187 C 
ATOM     21  C   UNL     1      32.116  -7.822 -22.370  0.00  0.00    +0.038 C 
ATOM     22  C   UNL     1      32.983  -7.785 -23.459  0.00  0.00    +0.038 C 
ATOM     23  C   UNL     1      31.334  -6.736 -22.028  0.00  0.00    +0.003 C 
ATOM     24  C   UNL     1      33.105  -6.661 -24.252  0.00  0.00    +0.003 C 
ATOM     25  C   UNL     1      31.442  -5.591 -22.820  0.00  0.00    +0.000 C 
ATOM     26  C   UNL     1      32.319  -5.554 -23.921  0.00  0.00    +0.000 C 
ENDBRANCH  15  18
ENDBRANCH   1  15
TORSDOF 4
ENDMDL
MODEL 8
REMARK VINA RESULT:      -9.3      9.838     14.214
REMARK  Name = 6719
REMARK  4 active torsions:
REMARK  status: ('A' for Active; 'I' for Inactive)
REMARK    1  A    between atoms: C_1  and  C_2
REMARK    2  A    between atoms: C_1  and  C_8
REMARK    3  A    between atoms: C_1  and  C_15
REMARK    4  A    between atoms: C_15  and  C_18
REMARK                            x       y       z     vdW  Elec       q    Type
REMARK                         _______ _______ _______ _____ _____    ______ ____
ROOT
ATOM      1  C   UNL     1      32.591 -12.758 -23.447  0.00  0.00    +0.103 C 
ENDROOT
BRANCH   1   2
ATOM      2  C   UNL     1      32.936 -13.184 -24.868  0.00  0.00    -0.011 C 
ATOM      3  C   UNL     1      32.747 -14.501 -25.233  0.00  0.00    -0.004 C 
ATOM      4  C   UNL     1      33.426 -12.239 -25.748  0.00  0.00    -0.004 C 
ATOM      5  C   UNL     1      33.063 -14.891 -26.534  0.00  0.00    -0.000 C 
ATOM      6  C   UNL     1      33.741 -12.630 -27.048  0.00  0.00    -0.000 C 
ATOM      7  C   UNL     1      33.560 -13.956 -27.442  0.00  0.00    -0.000 C 
ENDBRANCH   1   2
BRANCH   1   8
ATOM      8  C   UNL     1      33.119 -13.723 -22.396  0.00  0.00    -0.011 C 
ATOM      9  C   UNL     1      32.313 -14.049 -21.325  0.00  0.00    -0.004 C 
ATOM     10  C   UNL     1      34.389 -14.244 -22.545  0.00  0.00    -0.004 C 
ATOM     11  C   UNL     1      32.797 -14.933 -20.361  0.00  0.00    -0.000 C 
ATOM     12  C   UNL     1      34.873 -15.127 -21.581  0.00  0.00    -0.000 C 
ATOM     13  C   UNL     1      34.077 -15.473 -20.489  0.00  0.00    -0.000 C 
ENDBRANCH   1   8
BRANCH   1  15
ATOM     14  O   UNL     1      34.087 -10.844 -23.325  0.00  0.00    -0.294 OA
ATOM     15  C   UNL     1      32.954 -11.297 -23.164  0.00  0.00    +0.173 C 
BRANCH  15  18
ATOM     16  O   UNL     1      31.745  -8.773 -24.493  0.00  0.00    -0.290 OA
ATOM     17  O   UNL     1      31.885 -10.935 -20.280  0.00  0.00    -0.290 OA
ATOM     18  C   UNL     1      31.854 -10.417 -22.677  0.00  0.00    +0.181 C 
ATOM     19  C   UNL     1      31.843  -9.037 -23.310  0.00  0.00    +0.187 C 
ATOM     20  C   UNL     1      31.914 -10.126 -21.187  0.00  0.00    +0.187 C 
ATOM     21  C   UNL     1      31.972  -8.042 -22.245  0.00  0.00    +0.038 C 
ATOM     22  C   UNL     1      32.013  -8.677 -21.006  0.00  0.00    +0.038 C 
ATOM     23  C   UNL     1      32.038  -6.667 -22.357  0.00  0.00    +0.003 C 
ATOM     24  C   UNL     1      32.122  -7.965 -19.828  0.00  0.00    +0.003 C 
ATOM     25  C   UNL     1      32.150  -5.930 -21.176  0.00  0.00    +0.000 C 
ATOM     26  C   UNL     1      32.192  -6.572 -19.924  0.00  0.00    +0.000 C 
ENDBRANCH  15  18
ENDBRANCH   1  15
TORSDOF 4
ENDMDL
MODEL 9
REMARK VINA RESULT:      -9.2      3.140      8.712
REMARK  Name = 6719
REMARK  4 active torsions:
REMARK  status: ('A' for Active; 'I' for Inactive)
REMARK    1  A    between atoms: C_1  and  C_2
REMARK    2  A    between atoms: C_1  and  C_8
REMARK    3  A    between atoms: C_1  and  C_15
REMARK    4  A    between atoms: C_15  and  C_18
REMARK                            x       y       z     vdW  Elec       q    Type
REMARK                         _______ _______ _______ _____ _____    ______ ____
ROOT
ATOM      1  C   UNL     1      34.509 -18.273 -21.449  0.00  0.00    +0.103 C 
ENDROOT
BRANCH   1   2
ATOM      2  C   UNL     1      34.608 -18.436 -22.960  0.00  0.00    -0.011 C 
ATOM      3  C   UNL     1      34.744 -19.703 -23.486  0.00  0.00    -0.004 C 
ATOM      4  C   UNL     1      34.559 -17.309 -23.756  0.00  0.00    -0.004 C 
ATOM      5  C   UNL     1      34.836 -19.852 -24.870  0.00  0.00    -0.000 C 
ATOM      6  C   UNL     1      34.650 -17.458 -25.139  0.00  0.00    -0.000 C 
ATOM      7  C   UNL     1      34.789 -18.729 -25.697  0.00  0.00    -0.000 C 
ENDBRANCH   1   2
BRANCH   1   8
ATOM      8  C   UNL     1      33.969 -16.912 -21.035  0.00  0.00    -0.011 C 
ATOM      9  C   UNL     1      34.861 -15.894 -20.769  0.00  0.00    -0.004 C 
ATOM     10  C   UNL     1      32.603 -16.737 -20.937  0.00  0.00    -0.004 C 
ATOM     11  C   UNL     1      34.366 -14.646 -20.388  0.00  0.00    -0.000 C 
ATOM     12  C   UNL     1      32.109 -15.490 -20.557  0.00  0.00    -0.000 C 
ATOM     13  C   UNL     1      32.990 -14.444 -20.283  0.00  0.00    -0.000 C 
ENDBRANCH   1   8
BRANCH   1  15
ATOM     14  O   UNL     1      32.612 -19.381 -20.403  0.00  0.00    -0.294 OA
ATOM     15  C   UNL     1      33.785 -19.442 -20.776  0.00  0.00    +0.173 C 
BRANCH  15  18
ATOM     16  O   UNL     1      32.801 -22.237 -19.870  0.00  0.00    -0.290 OA
ATOM     17  O   UNL     1      36.828 -19.780 -20.309  0.00  0.00    -0.290 OA
ATOM     18  C   UNL     1      34.569 -20.695 -20.583  0.00  0.00    +0.181 C 
ATOM     19  C   UNL     1      33.887 -21.718 -19.693  0.00  0.00    +0.187 C 
ATOM     20  C   UNL     1      35.916 -20.481 -19.915  0.00  0.00    +0.187 C 
ATOM     21  C   UNL     1      34.765 -21.995 -18.556  0.00  0.00    +0.038 C 
ATOM     22  C   UNL     1      35.949 -21.273 -18.685  0.00  0.00    +0.038 C 
ATOM     23  C   UNL     1      34.541 -22.835 -17.483  0.00  0.00    +0.003 C 
ATOM     24  C   UNL     1      36.958 -21.360 -17.747  0.00  0.00    +0.003 C 
ATOM     25  C   UNL     1      35.551 -22.935 -16.522  0.00  0.00    +0.000 C 
ATOM     26  C   UNL     1      36.748 -22.205 -16.653  0.00  0.00    +0.000 C 
ENDBRANCH  15  18
ENDBRANCH   1  15
TORSDOF 4
ENDMDL
