MODEL 1
REMARK VINA RESULT:      -5.3      0.000      0.000
REMARK  Name = 9354
REMARK  7 active torsions:
REMARK  status: ('A' for Active; 'I' for Inactive)
REMARK    1  A    between atoms: C_1  and  S_2
REMARK    2  A    between atoms: C_1  and  C_5
REMARK    3  A    between atoms: C_1  and  C_8
REMARK    4  A    between atoms: C_5  and  O_6
REMARK    5  A    between atoms: C_8  and  S_9
REMARK    6  A    between atoms: C_8  and  C_12
REMARK    7  A    between atoms: C_12  and  O_13
REMARK                            x       y       z     vdW  Elec       q    Type
REMARK                         _______ _______ _______ _____ _____    ______ ____
ROOT
ATOM      1  C   UNL     1      37.736 -24.258 -13.370  0.00  0.00    +0.163 C 
ENDROOT
BRANCH   1   2
ATOM      2  S   UNL     1      35.956 -24.150 -13.785  0.00  0.00    -0.157 S 
ATOM      3  H   UNL     1      35.625 -22.852 -14.024  0.00  0.00    +0.103 HD
ENDBRANCH   1   2
BRANCH   1   5
ATOM      4  O   UNL     1      37.223 -24.324 -10.971  0.00  0.00    -0.249 OA
ATOM      5  C   UNL     1      37.943 -23.970 -11.893  0.00  0.00    +0.325 C 
BRANCH   5   6
ATOM      6  O   UNL     1      39.069 -23.230 -11.713  0.00  0.00    -0.480 OA
ATOM      7  H   UNL     1      39.806 -23.600 -11.267  0.00  0.00    +0.295 HD
ENDBRANCH   5   6
ENDBRANCH   1   5
BRANCH   1   8
ATOM      8  C   UNL     1      38.394 -25.586 -13.787  0.00  0.00    +0.163 C 
BRANCH   8   9
ATOM      9  S   UNL     1      37.329 -26.645 -14.836  0.00  0.00    -0.157 S 
ATOM     10  H   UNL     1      38.110 -27.458 -15.598  0.00  0.00    +0.103 HD
ENDBRANCH   8   9
BRANCH   8  12
ATOM     11  O   UNL     1      40.688 -24.757 -14.003  0.00  0.00    -0.249 OA
ATOM     12  C   UNL     1      39.734 -25.361 -14.472  0.00  0.00    +0.325 C 
BRANCH  12  13
ATOM     13  O   UNL     1      39.759 -25.908 -15.718  0.00  0.00    -0.480 OA
ATOM     14  H   UNL     1      39.977 -26.813 -15.828  0.00  0.00    +0.295 HD
ENDBRANCH  12  13
ENDBRANCH   8  12
ENDBRANCH   1   8
TORSDOF 7
ENDMDL
MODEL 2
REMARK VINA RESULT:      -5.3      0.037      3.695
REMARK  Name = 9354
REMARK  7 active torsions:
REMARK  status: ('A' for Active; 'I' for Inactive)
REMARK    1  A    between atoms: C_1  and  S_2
REMARK    2  A    between atoms: C_1  and  C_5
REMARK    3  A    between atoms: C_1  and  C_8
REMARK    4  A    between atoms: C_5  and  O_6
REMARK    5  A    between atoms: C_8  and  S_9
REMARK    6  A    between atoms: C_8  and  C_12
REMARK    7  A    between atoms: C_12  and  O_13
REMARK                            x       y       z     vdW  Elec       q    Type
REMARK                         _______ _______ _______ _____ _____    ______ ____
ROOT
ATOM      1  C   UNL     1      38.368 -25.597 -13.790  0.00  0.00    +0.163 C 
ENDROOT
BRANCH   1   2
ATOM      2  S   UNL     1      37.310 -26.655 -14.845  0.00  0.00    -0.157 S 
ATOM      3  H   UNL     1      36.958 -27.774 -14.156  0.00  0.00    +0.103 HD
ENDBRANCH   1   2
BRANCH   1   5
ATOM      4  O   UNL     1      40.670 -24.772 -13.997  0.00  0.00    -0.249 OA
ATOM      5  C   UNL     1      39.707 -25.362 -14.466  0.00  0.00    +0.325 C 
BRANCH   5   6
ATOM      6  O   UNL     1      39.703 -25.901 -15.714  0.00  0.00    -0.480 OA
ATOM      7  H   UNL     1      39.499 -25.366 -16.455  0.00  0.00    +0.295 HD
ENDBRANCH   5   6
ENDBRANCH   1   5
BRANCH   1   8
ATOM      8  C   UNL     1      37.703 -24.272 -13.371  0.00  0.00    +0.163 C 
BRANCH   8   9
ATOM      9  S   UNL     1      35.911 -24.189 -13.745  0.00  0.00    -0.157 S 
ATOM     10  H   UNL     1      35.336 -23.214 -12.990  0.00  0.00    +0.103 HD
ENDBRANCH   8   9
BRANCH   8  12
ATOM     11  O   UNL     1      37.214 -24.292 -10.972  0.00  0.00    -0.249 OA
ATOM     12  C   UNL     1      37.939 -23.963 -11.900  0.00  0.00    +0.325 C 
BRANCH  12  13
ATOM     13  O   UNL     1      39.077 -23.239 -11.715  0.00  0.00    -0.480 OA
ATOM     14  H   UNL     1      39.818 -23.383 -12.270  0.00  0.00    +0.295 HD
ENDBRANCH  12  13
ENDBRANCH   8  12
ENDBRANCH   1   8
TORSDOF 7
ENDMDL
MODEL 3
REMARK VINA RESULT:      -5.3      1.988      3.737
REMARK  Name = 9354
REMARK  7 active torsions:
REMARK  status: ('A' for Active; 'I' for Inactive)
REMARK    1  A    between atoms: C_1  and  S_2
REMARK    2  A    between atoms: C_1  and  C_5
REMARK    3  A    between atoms: C_1  and  C_8
REMARK    4  A    between atoms: C_5  and  O_6
REMARK    5  A    between atoms: C_8  and  S_9
REMARK    6  A    between atoms: C_8  and  C_12
REMARK    7  A    between atoms: C_12  and  O_13
REMARK                            x       y       z     vdW  Elec       q    Type
REMARK                         _______ _______ _______ _____ _____    ______ ____
ROOT
ATOM      1  C   UNL     1      38.571 -25.092 -14.637  0.00  0.00    +0.163 C 
ENDROOT
BRANCH   1   2
ATOM      2  S   UNL     1      37.834 -23.615 -15.428  0.00  0.00    -0.157 S 
ATOM      3  H   UNL     1      38.732 -23.067 -16.290  0.00  0.00    +0.103 HD
ENDBRANCH   1   2
BRANCH   1   5
ATOM      4  O   UNL     1      40.974 -24.693 -14.333  0.00  0.00    -0.249 OA
ATOM      5  C   UNL     1      40.050 -25.177 -14.972  0.00  0.00    +0.325 C 
BRANCH   5   6
ATOM      6  O   UNL     1      40.231 -25.877 -16.123  0.00  0.00    -0.480 OA
ATOM      7  H   UNL     1      39.492 -26.110 -16.650  0.00  0.00    +0.295 HD
ENDBRANCH   5   6
ENDBRANCH   1   5
BRANCH   1   8
ATOM      8  C   UNL     1      38.327 -25.174 -13.119  0.00  0.00    +0.163 C 
BRANCH   8   9
ATOM      9  S   UNL     1      37.825 -23.583 -12.360  0.00  0.00    -0.157 S 
ATOM     10  H   UNL     1      36.535 -23.310 -12.694  0.00  0.00    +0.103 HD
ENDBRANCH   8   9
BRANCH   8  12
ATOM     11  O   UNL     1      36.891 -26.504 -11.647  0.00  0.00    -0.249 OA
ATOM     12  C   UNL     1      37.317 -26.256 -12.767  0.00  0.00    +0.325 C 
BRANCH  12  13
ATOM     13  O   UNL     1      36.930 -26.959 -13.866  0.00  0.00    -0.480 OA
ATOM     14  H   UNL     1      36.839 -26.524 -14.692  0.00  0.00    +0.295 HD
ENDBRANCH  12  13
ENDBRANCH   8  12
ENDBRANCH   1   8
TORSDOF 7
ENDMDL
MODEL 4
REMARK VINA RESULT:      -5.1      2.640      4.595
REMARK  Name = 9354
REMARK  7 active torsions:
REMARK  status: ('A' for Active; 'I' for Inactive)
REMARK    1  A    between atoms: C_1  and  S_2
REMARK    2  A    between atoms: C_1  and  C_5
REMARK    3  A    between atoms: C_1  and  C_8
REMARK    4  A    between atoms: C_5  and  O_6
REMARK    5  A    between atoms: C_8  and  S_9
REMARK    6  A    between atoms: C_8  and  C_12
REMARK    7  A    between atoms: C_12  and  O_13
REMARK                            x       y       z     vdW  Elec       q    Type
REMARK                         _______ _______ _______ _____ _____    ______ ____
ROOT
ATOM      1  C   UNL     1      36.491 -25.205 -14.245  0.00  0.00    +0.163 C 
ENDROOT
BRANCH   1   2
ATOM      2  S   UNL     1      37.173 -23.718 -15.066  0.00  0.00    -0.157 S 
ATOM      3  H   UNL     1      38.344 -24.036 -15.680  0.00  0.00    +0.103 HD
ENDBRANCH   1   2
BRANCH   1   5
ATOM      4  O   UNL     1      38.130 -27.001 -14.578  0.00  0.00    -0.249 OA
ATOM      5  C   UNL     1      37.074 -26.458 -14.872  0.00  0.00    +0.325 C 
BRANCH   5   6
ATOM      6  O   UNL     1      36.251 -26.919 -15.851  0.00  0.00    -0.480 OA
ATOM      7  H   UNL     1      35.372 -26.600 -15.913  0.00  0.00    +0.295 HD
ENDBRANCH   5   6
ENDBRANCH   1   5
BRANCH   1   8
ATOM      8  C   UNL     1      36.660 -25.205 -12.714  0.00  0.00    +0.163 C 
BRANCH   8   9
ATOM      9  S   UNL     1      38.109 -24.250 -12.127  0.00  0.00    -0.157 S 
ATOM     10  H   UNL     1      37.943 -23.936 -10.814  0.00  0.00    +0.103 HD
ENDBRANCH   8   9
BRANCH   8  12
ATOM     11  O   UNL     1      34.505 -24.058 -12.511  0.00  0.00    -0.249 OA
ATOM     12  C   UNL     1      35.402 -24.721 -12.008  0.00  0.00    +0.325 C 
BRANCH  12  13
ATOM     13  O   UNL     1      35.381 -25.103 -10.701  0.00  0.00    -0.480 OA
ATOM     14  H   UNL     1      34.804 -24.677 -10.098  0.00  0.00    +0.295 HD
ENDBRANCH  12  13
ENDBRANCH   8  12
ENDBRANCH   1   8
TORSDOF 7
ENDMDL
MODEL 5
REMARK VINA RESULT:      -5.1      2.659      3.050
REMARK  Name = 9354
REMARK  7 active torsions:
REMARK  status: ('A' for Active; 'I' for Inactive)
REMARK    1  A    between atoms: C_1  and  S_2
REMARK    2  A    between atoms: C_1  and  C_5
REMARK    3  A    between atoms: C_1  and  C_8
REMARK    4  A    between atoms: C_5  and  O_6
REMARK    5  A    between atoms: C_8  and  S_9
REMARK    6  A    between atoms: C_8  and  C_12
REMARK    7  A    between atoms: C_12  and  O_13
REMARK                            x       y       z     vdW  Elec       q    Type
REMARK                         _______ _______ _______ _____ _____    ______ ____
ROOT
ATOM      1  C   UNL     1      36.658 -25.165 -12.639  0.00  0.00    +0.163 C 
ENDROOT
BRANCH   1   2
ATOM      2  S   UNL     1      38.106 -24.199 -12.075  0.00  0.00    -0.157 S 
ATOM      3  H   UNL     1      38.010 -22.924 -12.540  0.00  0.00    +0.103 HD
ENDBRANCH   1   2
BRANCH   1   5
ATOM      4  O   UNL     1      34.518 -23.984 -12.419  0.00  0.00    -0.249 OA
ATOM      5  C   UNL     1      35.403 -24.677 -11.937  0.00  0.00    +0.325 C 
BRANCH   5   6
ATOM      6  O   UNL     1      35.386 -25.114 -10.650  0.00  0.00    -0.480 OA
ATOM      7  H   UNL     1      34.683 -24.869 -10.082  0.00  0.00    +0.295 HD
ENDBRANCH   5   6
ENDBRANCH   1   5
BRANCH   1   8
ATOM      8  C   UNL     1      36.480 -25.187 -14.169  0.00  0.00    +0.163 C 
BRANCH   8   9
ATOM      9  S   UNL     1      37.245 -23.760 -15.027  0.00  0.00    -0.157 S 
ATOM     10  H   UNL     1      38.104 -23.131 -14.181  0.00  0.00    +0.103 HD
ENDBRANCH   8   9
BRANCH   8  12
ATOM     11  O   UNL     1      38.064 -27.018 -14.542  0.00  0.00    -0.249 OA
ATOM     12  C   UNL     1      36.987 -26.486 -14.777  0.00  0.00    +0.325 C 
BRANCH  12  13
ATOM     13  O   UNL     1      36.092 -27.012 -15.657  0.00  0.00    -0.480 OA
ATOM     14  H   UNL     1      36.260 -27.844 -16.055  0.00  0.00    +0.295 HD
ENDBRANCH  12  13
ENDBRANCH   8  12
ENDBRANCH   1   8
TORSDOF 7
ENDMDL
MODEL 6
REMARK VINA RESULT:      -5.0      1.863      2.185
REMARK  Name = 9354
REMARK  7 active torsions:
REMARK  status: ('A' for Active; 'I' for Inactive)
REMARK    1  A    between atoms: C_1  and  S_2
REMARK    2  A    between atoms: C_1  and  C_5
REMARK    3  A    between atoms: C_1  and  C_8
REMARK    4  A    between atoms: C_5  and  O_6
REMARK    5  A    between atoms: C_8  and  S_9
REMARK    6  A    between atoms: C_8  and  C_12
REMARK    7  A    between atoms: C_12  and  O_13
REMARK                            x       y       z     vdW  Elec       q    Type
REMARK                         _______ _______ _______ _____ _____    ______ ____
ROOT
ATOM      1  C   UNL     1      36.618 -23.513 -12.917  0.00  0.00    +0.163 C 
ENDROOT
BRANCH   1   2
ATOM      2  S   UNL     1      34.928 -24.205 -12.792  0.00  0.00    -0.157 S 
ATOM      3  H   UNL     1      34.544 -24.232 -11.487  0.00  0.00    +0.103 HD
ENDBRANCH   1   2
BRANCH   1   5
ATOM      4  O   UNL     1      36.759 -23.779 -10.481  0.00  0.00    -0.249 OA
ATOM      5  C   UNL     1      37.212 -23.342 -11.530  0.00  0.00    +0.325 C 
BRANCH   5   6
ATOM      6  O   UNL     1      38.352 -22.605 -11.596  0.00  0.00    -0.480 OA
ATOM      7  H   UNL     1      38.478 -21.999 -12.300  0.00  0.00    +0.295 HD
ENDBRANCH   5   6
ENDBRANCH   1   5
BRANCH   1   8
ATOM      8  C   UNL     1      37.553 -24.314 -13.841  0.00  0.00    +0.163 C 
BRANCH   8   9
ATOM      9  S   UNL     1      37.266 -26.123 -13.802  0.00  0.00    -0.157 S 
ATOM     10  H   UNL     1      37.600 -26.609 -12.576  0.00  0.00    +0.103 HD
ENDBRANCH   8   9
BRANCH   8  12
ATOM     11  O   UNL     1      36.478 -23.649 -15.938  0.00  0.00    -0.249 OA
ATOM     12  C   UNL     1      37.494 -23.813 -15.276  0.00  0.00    +0.325 C 
BRANCH  12  13
ATOM     13  O   UNL     1      38.736 -23.568 -15.775  0.00  0.00    -0.480 OA
ATOM     14  H   UNL     1      38.853 -23.430 -16.694  0.00  0.00    +0.295 HD
ENDBRANCH  12  13
ENDBRANCH   8  12
ENDBRANCH   1   8
TORSDOF 7
ENDMDL
MODEL 7
REMARK VINA RESULT:      -4.9      1.993      3.847
REMARK  Name = 9354
REMARK  7 active torsions:
REMARK  status: ('A' for Active; 'I' for Inactive)
REMARK    1  A    between atoms: C_1  and  S_2
REMARK    2  A    between atoms: C_1  and  C_5
REMARK    3  A    between atoms: C_1  and  C_8
REMARK    4  A    between atoms: C_5  and  O_6
REMARK    5  A    between atoms: C_8  and  S_9
REMARK    6  A    between atoms: C_8  and  C_12
REMARK    7  A    between atoms: C_12  and  O_13
REMARK                            x       y       z     vdW  Elec       q    Type
REMARK                         _______ _______ _______ _____ _____    ______ ____
ROOT
ATOM      1  C   UNL     1      37.818 -24.970 -14.468  0.00  0.00    +0.163 C 
ENDROOT
BRANCH   1   2
ATOM      2  S   UNL     1      39.507 -25.535 -14.047  0.00  0.00    -0.157 S 
ATOM      3  H   UNL     1      39.463 -26.299 -12.923  0.00  0.00    +0.103 HD
ENDBRANCH   1   2
BRANCH   1   5
ATOM      4  O   UNL     1      36.161 -26.410 -15.566  0.00  0.00    -0.249 OA
ATOM      5  C   UNL     1      36.893 -26.165 -14.617  0.00  0.00    +0.325 C 
BRANCH   5   6
ATOM      6  O   UNL     1      36.972 -26.959 -13.517  0.00  0.00    -0.480 OA
ATOM      7  H   UNL     1      37.275 -26.605 -12.704  0.00  0.00    +0.295 HD
ENDBRANCH   5   6
ENDBRANCH   1   5
BRANCH   1   8
ATOM      8  C   UNL     1      37.246 -23.928 -13.488  0.00  0.00    +0.163 C 
BRANCH   8   9
ATOM      9  S   UNL     1      35.416 -23.911 -13.406  0.00  0.00    -0.157 S 
ATOM     10  H   UNL     1      35.018 -23.173 -12.335  0.00  0.00    +0.103 HD
ENDBRANCH   8   9
BRANCH   8  12
ATOM     11  O   UNL     1      37.618 -25.030 -11.333  0.00  0.00    -0.249 OA
ATOM     12  C   UNL     1      37.825 -24.092 -12.090  0.00  0.00    +0.325 C 
BRANCH  12  13
ATOM     13  O   UNL     1      38.615 -23.038 -11.747  0.00  0.00    -0.480 OA
ATOM     14  H   UNL     1      38.696 -22.786 -10.848  0.00  0.00    +0.295 HD
ENDBRANCH  12  13
ENDBRANCH   8  12
ENDBRANCH   1   8
TORSDOF 7
ENDMDL
MODEL 8
REMARK VINA RESULT:      -4.9      1.977      2.420
REMARK  Name = 9354
REMARK  7 active torsions:
REMARK  status: ('A' for Active; 'I' for Inactive)
REMARK    1  A    between atoms: C_1  and  S_2
REMARK    2  A    between atoms: C_1  and  C_5
REMARK    3  A    between atoms: C_1  and  C_8
REMARK    4  A    between atoms: C_5  and  O_6
REMARK    5  A    between atoms: C_8  and  S_9
REMARK    6  A    between atoms: C_8  and  C_12
REMARK    7  A    between atoms: C_12  and  O_13
REMARK                            x       y       z     vdW  Elec       q    Type
REMARK                         _______ _______ _______ _____ _____    ______ ____
ROOT
ATOM      1  C   UNL     1      37.236 -23.902 -13.475  0.00  0.00    +0.163 C 
ENDROOT
BRANCH   1   2
ATOM      2  S   UNL     1      35.407 -23.846 -13.470  0.00  0.00    -0.157 S 
ATOM      3  H   UNL     1      34.992 -22.567 -13.680  0.00  0.00    +0.103 HD
ENDBRANCH   1   2
BRANCH   1   5
ATOM      4  O   UNL     1      37.516 -24.916 -11.258  0.00  0.00    -0.249 OA
ATOM      5  C   UNL     1      37.756 -24.019 -12.053  0.00  0.00    +0.325 C 
BRANCH   5   6
ATOM      6  O   UNL     1      38.546 -22.954 -11.753  0.00  0.00    -0.480 OA
ATOM      7  H   UNL     1      38.186 -22.089 -11.752  0.00  0.00    +0.295 HD
ENDBRANCH   5   6
ENDBRANCH   1   5
BRANCH   1   8
ATOM      8  C   UNL     1      37.824 -24.996 -14.386  0.00  0.00    +0.163 C 
BRANCH   8   9
ATOM      9  S   UNL     1      39.500 -25.551 -13.894  0.00  0.00    -0.157 S 
ATOM     10  H   UNL     1      39.599 -25.545 -12.538  0.00  0.00    +0.103 HD
ENDBRANCH   8   9
BRANCH   8  12
ATOM     11  O   UNL     1      36.244 -26.508 -15.486  0.00  0.00    -0.249 OA
ATOM     12  C   UNL     1      36.895 -26.195 -14.499  0.00  0.00    +0.325 C 
BRANCH  12  13
ATOM     13  O   UNL     1      36.848 -26.905 -13.339  0.00  0.00    -0.480 OA
ATOM     14  H   UNL     1      37.585 -27.422 -13.076  0.00  0.00    +0.295 HD
ENDBRANCH  12  13
ENDBRANCH   8  12
ENDBRANCH   1   8
TORSDOF 7
ENDMDL
MODEL 9
REMARK VINA RESULT:      -4.8      1.846      2.369
REMARK  Name = 9354
REMARK  7 active torsions:
REMARK  status: ('A' for Active; 'I' for Inactive)
REMARK    1  A    between atoms: C_1  and  S_2
REMARK    2  A    between atoms: C_1  and  C_5
REMARK    3  A    between atoms: C_1  and  C_8
REMARK    4  A    between atoms: C_5  and  O_6
REMARK    5  A    between atoms: C_8  and  S_9
REMARK    6  A    between atoms: C_8  and  C_12
REMARK    7  A    between atoms: C_12  and  O_13
REMARK                            x       y       z     vdW  Elec       q    Type
REMARK                         _______ _______ _______ _____ _____    ______ ____
ROOT
ATOM      1  C   UNL     1      36.111 -24.518 -13.288  0.00  0.00    +0.163 C 
ENDROOT
BRANCH   1   2
ATOM      2  S   UNL     1      35.011 -24.528 -14.750  0.00  0.00    -0.157 S 
ATOM      3  H   UNL     1      33.756 -24.891 -14.370  0.00  0.00    +0.103 HD
ENDBRANCH   1   2
BRANCH   1   5
ATOM      4  O   UNL     1      35.448 -25.149 -11.011  0.00  0.00    -0.249 OA
ATOM      5  C   UNL     1      35.284 -24.471 -12.015  0.00  0.00    +0.325 C 
BRANCH   5   6
ATOM      6  O   UNL     1      34.290 -23.552 -12.136  0.00  0.00    -0.480 OA
ATOM      7  H   UNL     1      34.322 -22.915 -12.822  0.00  0.00    +0.295 HD
ENDBRANCH   5   6
ENDBRANCH   1   5
BRANCH   1   8
ATOM      8  C   UNL     1      37.126 -25.677 -13.263  0.00  0.00    +0.163 C 
BRANCH   8   9
ATOM      9  S   UNL     1      37.110 -26.711 -14.775  0.00  0.00    -0.157 S 
ATOM     10  H   UNL     1      36.791 -25.939 -15.848  0.00  0.00    +0.103 HD
ENDBRANCH   8   9
BRANCH   8  12
ATOM     11  O   UNL     1      38.839 -24.127 -12.452  0.00  0.00    -0.249 OA
ATOM     12  C   UNL     1      38.539 -25.184 -12.990  0.00  0.00    +0.325 C 
BRANCH  12  13
ATOM     13  O   UNL     1      39.474 -26.066 -13.436  0.00  0.00    -0.480 OA
ATOM     14  H   UNL     1      39.692 -26.097 -14.347  0.00  0.00    +0.295 HD
ENDBRANCH  12  13
ENDBRANCH   8  12
ENDBRANCH   1   8
TORSDOF 7
ENDMDL
