MODEL 1
REMARK VINA RESULT:      -7.1      0.000      0.000
REMARK  Name = 656583
REMARK  3 active torsions:
REMARK  status: ('A' for Active; 'I' for Inactive)
REMARK    1  A    between atoms: C_15  and  O_21
REMARK    2  A    between atoms: C_18  and  O_23
REMARK    3  A    between atoms: C_20  and  C_26
REMARK                            x       y       z     vdW  Elec       q    Type
REMARK                         _______ _______ _______ _____ _____    ______ ____
ROOT
ATOM      1  O   UNL     1      34.108 -14.126 -20.841  0.00  0.00    -0.348 OA
ATOM      2  C   UNL     1      33.061 -13.212 -22.934  0.00  0.00    +0.030 C 
ATOM      3  C   UNL     1      32.887 -13.822 -21.538  0.00  0.00    +0.125 C 
ATOM      4  C   UNL     1      33.356 -11.680 -22.750  0.00  0.00    +0.003 C 
ATOM      5  C   UNL     1      32.284 -10.982 -21.845  0.00  0.00    +0.000 C 
ATOM      6  C   UNL     1      32.671  -9.509 -21.682  0.00  0.00    +0.002 C 
ATOM      7  C   UNL     1      32.737  -8.761 -23.028  0.00  0.00    +0.025 C 
ATOM      8  C   UNL     1      33.339 -15.252 -21.306  0.00  0.00    +0.196 C 
ATOM      9  C   UNL     1      31.872 -13.179 -20.637  0.00  0.00    +0.030 C 
ATOM     10  C   UNL     1      32.170 -11.689 -20.482  0.00  0.00    +0.003 C 
ATOM     11  C   UNL     1      33.586 -10.914 -24.078  0.00  0.00    +0.000 C 
ATOM     12  C   UNL     1      33.835  -9.408 -23.881  0.00  0.00    +0.002 C 
ATOM     13  C   UNL     1      34.242 -13.912 -23.690  0.00  0.00    +0.042 C 
ATOM     14  C   UNL     1      31.804  -8.604 -20.811  0.00  0.00    +0.003 C 
ATOM     15  C   UNL     1      33.071  -7.347 -22.511  0.00  0.00    +0.110 C 
ATOM     16  C   UNL     1      31.768 -13.458 -23.754  0.00  0.00    +0.003 C 
ATOM     17  C   UNL     1      32.177  -7.181 -21.268  0.00  0.00    +0.029 C 
ATOM     18  C   UNL     1      33.776 -16.032 -22.483  0.00  0.00    +0.146 C 
ATOM     19  C   UNL     1      31.407  -8.742 -23.823  0.00  0.00    +0.002 C 
ATOM     20  C   UNL     1      34.220 -15.427 -23.606  0.00  0.00    +0.078 C 
ENDROOT
BRANCH  15  21
ATOM     21  O   UNL     1      32.823  -6.321 -23.451  0.00  0.00    -0.384 OA
ATOM     22  H   UNL     1      31.973  -5.896 -23.250  0.00  0.00    +0.210 HD
ENDBRANCH  15  21
BRANCH  18  23
ATOM     23  O   UNL     1      33.749 -17.417 -22.408  0.00  0.00    -0.507 OA
ATOM     24  H   UNL     1      34.446 -17.920 -22.781  0.00  0.00    +0.292 HD
ENDBRANCH  18  23
BRANCH  20  26
ATOM     25  N   UNL     1      35.022 -16.812 -25.638  0.00  0.00    -0.191 NA
ATOM     26  C   UNL     1      34.662 -16.190 -24.727  0.00  0.00    +0.099 C 
ENDBRANCH  20  26
TORSDOF 3
ENDMDL
MODEL 2
REMARK VINA RESULT:      -6.7      9.796     13.185
REMARK  Name = 656583
REMARK  3 active torsions:
REMARK  status: ('A' for Active; 'I' for Inactive)
REMARK    1  A    between atoms: C_15  and  O_21
REMARK    2  A    between atoms: C_18  and  O_23
REMARK    3  A    between atoms: C_20  and  C_26
REMARK                            x       y       z     vdW  Elec       q    Type
REMARK                         _______ _______ _______ _____ _____    ______ ____
ROOT
ATOM      1  O   UNL     1      33.352 -22.705 -14.054  0.00  0.00    -0.348 OA
ATOM      2  C   UNL     1      35.217 -23.493 -15.542  0.00  0.00    +0.030 C 
ATOM      3  C   UNL     1      33.781 -23.669 -15.032  0.00  0.00    +0.125 C 
ATOM      4  C   UNL     1      35.197 -22.367 -16.639  0.00  0.00    +0.003 C 
ATOM      5  C   UNL     1      34.122 -22.647 -17.745  0.00  0.00    +0.000 C 
ATOM      6  C   UNL     1      34.140 -21.484 -18.742  0.00  0.00    +0.002 C 
ATOM      7  C   UNL     1      35.510 -21.307 -19.424  0.00  0.00    +0.025 C 
ATOM      8  C   UNL     1      33.567 -24.048 -13.578  0.00  0.00    +0.196 C 
ATOM      9  C   UNL     1      32.722 -23.934 -16.062  0.00  0.00    +0.030 C 
ATOM     10  C   UNL     1      32.727 -22.835 -17.123  0.00  0.00    +0.003 C 
ATOM     11  C   UNL     1      36.587 -22.045 -17.243  0.00  0.00    +0.000 C 
ATOM     12  C   UNL     1      36.543 -20.967 -18.341  0.00  0.00    +0.002 C 
ATOM     13  C   UNL     1      36.169 -23.095 -14.363  0.00  0.00    +0.042 C 
ATOM     14  C   UNL     1      33.157 -21.491 -19.909  0.00  0.00    +0.003 C 
ATOM     15  C   UNL     1      35.167 -20.144 -20.376  0.00  0.00    +0.110 C 
ATOM     16  C   UNL     1      35.716 -24.846 -16.112  0.00  0.00    +0.003 C 
ATOM     17  C   UNL     1      33.771 -20.502 -20.918  0.00  0.00    +0.029 C 
ATOM     18  C   UNL     1      34.761 -24.383 -12.774  0.00  0.00    +0.146 C 
ATOM     19  C   UNL     1      35.994 -22.538 -20.233  0.00  0.00    +0.002 C 
ATOM     20  C   UNL     1      35.989 -23.934 -13.112  0.00  0.00    +0.078 C 
ENDROOT
BRANCH  15  21
ATOM     21  O   UNL     1      36.091 -19.979 -21.433  0.00  0.00    -0.384 OA
ATOM     22  H   UNL     1      36.995 -20.085 -21.093  0.00  0.00    +0.210 HD
ENDBRANCH  15  21
BRANCH  18  23
ATOM     23  O   UNL     1      34.597 -25.156 -11.633  0.00  0.00    -0.507 OA
ATOM     24  H   UNL     1      34.664 -24.761 -10.786  0.00  0.00    +0.292 HD
ENDBRANCH  18  23
BRANCH  20  26
ATOM     25  N   UNL     1      38.058 -24.495 -11.665  0.00  0.00    -0.191 NA
ATOM     26  C   UNL     1      37.130 -24.243 -12.314  0.00  0.00    +0.099 C 
ENDBRANCH  20  26
TORSDOF 3
ENDMDL
MODEL 3
REMARK VINA RESULT:      -6.6      2.790      7.349
REMARK  Name = 656583
REMARK  3 active torsions:
REMARK  status: ('A' for Active; 'I' for Inactive)
REMARK    1  A    between atoms: C_15  and  O_21
REMARK    2  A    between atoms: C_18  and  O_23
REMARK    3  A    between atoms: C_20  and  C_26
REMARK                            x       y       z     vdW  Elec       q    Type
REMARK                         _______ _______ _______ _____ _____    ______ ____
ROOT
ATOM      1  O   UNL     1      34.447 -11.757 -24.523  0.00  0.00    -0.348 OA
ATOM      2  C   UNL     1      33.054 -12.928 -22.792  0.00  0.00    +0.030 C 
ATOM      3  C   UNL     1      33.298 -12.582 -24.266  0.00  0.00    +0.125 C 
ATOM      4  C   UNL     1      34.010 -14.119 -22.419  0.00  0.00    +0.003 C 
ATOM      5  C   UNL     1      33.871 -15.316 -23.420  0.00  0.00    +0.000 C 
ATOM      6  C   UNL     1      34.866 -16.407 -23.011  0.00  0.00    +0.002 C 
ATOM      7  C   UNL     1      34.618 -16.931 -21.583  0.00  0.00    +0.025 C 
ATOM      8  C   UNL     1      33.160 -11.136 -24.707  0.00  0.00    +0.196 C 
ATOM      9  C   UNL     1      33.178 -13.704 -25.257  0.00  0.00    +0.030 C 
ATOM     10  C   UNL     1      34.107 -14.854 -24.869  0.00  0.00    +0.003 C 
ATOM     11  C   UNL     1      33.907 -14.576 -20.942  0.00  0.00    +0.000 C 
ATOM     12  C   UNL     1      34.822 -15.767 -20.605  0.00  0.00    +0.002 C 
ATOM     13  C   UNL     1      33.345 -11.684 -21.885  0.00  0.00    +0.042 C 
ATOM     14  C   UNL     1      34.959 -17.680 -23.848  0.00  0.00    +0.003 C 
ATOM     15  C   UNL     1      35.707 -18.021 -21.525  0.00  0.00    +0.110 C 
ATOM     16  C   UNL     1      31.561 -13.306 -22.605  0.00  0.00    +0.003 C 
ATOM     17  C   UNL     1      35.639 -18.694 -22.909  0.00  0.00    +0.029 C 
ATOM     18  C   UNL     1      32.642 -10.165 -23.720  0.00  0.00    +0.146 C 
ATOM     19  C   UNL     1      33.218 -17.558 -21.358  0.00  0.00    +0.002 C 
ATOM     20  C   UNL     1      32.732 -10.392 -22.391  0.00  0.00    +0.078 C 
ENDROOT
BRANCH  15  21
ATOM     21  O   UNL     1      35.512 -18.969 -20.494  0.00  0.00    -0.384 OA
ATOM     22  H   UNL     1      36.333 -19.468 -20.354  0.00  0.00    +0.210 HD
ENDBRANCH  15  21
BRANCH  18  23
ATOM     23  O   UNL     1      32.076  -8.987 -24.183  0.00  0.00    -0.507 OA
ATOM     24  H   UNL     1      31.784  -8.336 -23.575  0.00  0.00    +0.292 HD
ENDBRANCH  18  23
BRANCH  20  26
ATOM     25  N   UNL     1      31.861  -8.659 -20.680  0.00  0.00    -0.191 NA
ATOM     26  C   UNL     1      32.251  -9.436 -21.448  0.00  0.00    +0.099 C 
ENDBRANCH  20  26
TORSDOF 3
ENDMDL
MODEL 4
REMARK VINA RESULT:      -6.4     12.977     14.997
REMARK  Name = 656583
REMARK  3 active torsions:
REMARK  status: ('A' for Active; 'I' for Inactive)
REMARK    1  A    between atoms: C_15  and  O_21
REMARK    2  A    between atoms: C_18  and  O_23
REMARK    3  A    between atoms: C_20  and  C_26
REMARK                            x       y       z     vdW  Elec       q    Type
REMARK                         _______ _______ _______ _____ _____    ______ ____
ROOT
ATOM      1  O   UNL     1      36.647 -23.067 -12.604  0.00  0.00    -0.348 OA
ATOM      2  C   UNL     1      35.763 -24.579 -14.405  0.00  0.00    +0.030 C 
ATOM      3  C   UNL     1      35.960 -24.292 -12.912  0.00  0.00    +0.125 C 
ATOM      4  C   UNL     1      34.523 -23.744 -14.890  0.00  0.00    +0.003 C 
ATOM      5  C   UNL     1      33.264 -23.990 -13.991  0.00  0.00    +0.000 C 
ATOM      6  C   UNL     1      32.122 -23.107 -14.504  0.00  0.00    +0.002 C 
ATOM      7  C   UNL     1      31.746 -23.415 -15.967  0.00  0.00    +0.025 C 
ATOM      8  C   UNL     1      37.369 -24.287 -12.350  0.00  0.00    +0.196 C 
ATOM      9  C   UNL     1      34.775 -24.511 -12.016  0.00  0.00    +0.030 C 
ATOM     10  C   UNL     1      33.578 -23.701 -12.512  0.00  0.00    +0.003 C 
ATOM     11  C   UNL     1      34.203 -23.902 -16.399  0.00  0.00    +0.000 C 
ATOM     12  C   UNL     1      32.963 -23.107 -16.848  0.00  0.00    +0.002 C 
ATOM     13  C   UNL     1      37.046 -24.176 -15.210  0.00  0.00    +0.042 C 
ATOM     14  C   UNL     1      30.780 -23.131 -13.777  0.00  0.00    +0.003 C 
ATOM     15  C   UNL     1      30.566 -22.436 -16.132  0.00  0.00    +0.110 C 
ATOM     16  C   UNL     1      35.546 -26.102 -14.600  0.00  0.00    +0.003 C 
ATOM     17  C   UNL     1      29.789 -22.558 -14.808  0.00  0.00    +0.029 C 
ATOM     18  C   UNL     1      38.465 -24.717 -13.245  0.00  0.00    +0.146 C 
ATOM     19  C   UNL     1      31.276 -24.870 -16.221  0.00  0.00    +0.002 C 
ATOM     20  C   UNL     1      38.343 -24.658 -14.589  0.00  0.00    +0.078 C 
ENDROOT
BRANCH  15  21
ATOM     21  O   UNL     1      29.731 -22.728 -17.235  0.00  0.00    -0.384 OA
ATOM     22  H   UNL     1      29.658 -21.944 -17.802  0.00  0.00    +0.210 HD
ENDBRANCH  15  21
BRANCH  18  23
ATOM     23  O   UNL     1      39.649 -25.164 -12.677  0.00  0.00    -0.507 OA
ATOM     24  H   UNL     1      40.465 -25.002 -13.107  0.00  0.00    +0.292 HD
ENDBRANCH  18  23
BRANCH  20  26
ATOM     25  N   UNL     1      40.289 -25.374 -16.136  0.00  0.00    -0.191 NA
ATOM     26  C   UNL     1      39.416 -25.053 -15.442  0.00  0.00    +0.099 C 
ENDBRANCH  20  26
TORSDOF 3
ENDMDL
MODEL 5
REMARK VINA RESULT:      -6.1      3.065      7.228
REMARK  Name = 656583
REMARK  3 active torsions:
REMARK  status: ('A' for Active; 'I' for Inactive)
REMARK    1  A    between atoms: C_15  and  O_21
REMARK    2  A    between atoms: C_18  and  O_23
REMARK    3  A    between atoms: C_20  and  C_26
REMARK                            x       y       z     vdW  Elec       q    Type
REMARK                         _______ _______ _______ _____ _____    ______ ____
ROOT
ATOM      1  O   UNL     1      30.558  -7.375 -22.809  0.00  0.00    -0.348 OA
ATOM      2  C   UNL     1      32.836  -8.230 -23.435  0.00  0.00    +0.030 C 
ATOM      3  C   UNL     1      31.893  -7.667 -22.363  0.00  0.00    +0.125 C 
ATOM      4  C   UNL     1      32.531  -9.765 -23.577  0.00  0.00    +0.003 C 
ATOM      5  C   UNL     1      32.574 -10.501 -22.195  0.00  0.00    +0.000 C 
ATOM      6  C   UNL     1      32.222 -11.975 -22.419  0.00  0.00    +0.002 C 
ATOM      7  C   UNL     1      33.201 -12.679 -23.379  0.00  0.00    +0.025 C 
ATOM      8  C   UNL     1      31.395  -6.242 -22.508  0.00  0.00    +0.196 C 
ATOM      9  C   UNL     1      31.902  -8.349 -21.025  0.00  0.00    +0.030 C 
ATOM     10  C   UNL     1      31.615  -9.840 -21.188  0.00  0.00    +0.003 C 
ATOM     11  C   UNL     1      33.387 -10.485 -24.650  0.00  0.00    +0.000 C 
ATOM     12  C   UNL     1      33.102 -11.995 -24.749  0.00  0.00    +0.002 C 
ATOM     13  C   UNL     1      32.608  -7.496 -24.800  0.00  0.00    +0.042 C 
ATOM     14  C   UNL     1      32.160 -12.916 -21.219  0.00  0.00    +0.003 C 
ATOM     15  C   UNL     1      32.618 -14.106 -23.328  0.00  0.00    +0.110 C 
ATOM     16  C   UNL     1      34.302  -7.970 -23.001  0.00  0.00    +0.003 C 
ATOM     17  C   UNL     1      32.281 -14.320 -21.840  0.00  0.00    +0.029 C 
ATOM     18  C   UNL     1      31.973  -5.420 -23.592  0.00  0.00    +0.146 C 
ATOM     19  C   UNL     1      34.677 -12.685 -22.908  0.00  0.00    +0.002 C 
ATOM     20  C   UNL     1      32.533  -5.984 -24.684  0.00  0.00    +0.078 C 
ENDROOT
BRANCH  15  21
ATOM     21  O   UNL     1      33.505 -15.103 -23.792  0.00  0.00    -0.384 OA
ATOM     22  H   UNL     1      33.171 -15.472 -24.626  0.00  0.00    +0.210 HD
ENDBRANCH  15  21
BRANCH  18  23
ATOM     23  O   UNL     1      31.911  -4.038 -23.483  0.00  0.00    -0.507 OA
ATOM     24  H   UNL     1      32.523  -3.583 -22.940  0.00  0.00    +0.292 HD
ENDBRANCH  18  23
BRANCH  20  26
ATOM     25  N   UNL     1      33.500  -4.529 -26.591  0.00  0.00    -0.191 NA
ATOM     26  C   UNL     1      33.066  -5.181 -25.736  0.00  0.00    +0.099 C 
ENDBRANCH  20  26
TORSDOF 3
ENDMDL
MODEL 6
REMARK VINA RESULT:      -6.0     13.283     15.291
REMARK  Name = 656583
REMARK  3 active torsions:
REMARK  status: ('A' for Active; 'I' for Inactive)
REMARK    1  A    between atoms: C_15  and  O_21
REMARK    2  A    between atoms: C_18  and  O_23
REMARK    3  A    between atoms: C_20  and  C_26
REMARK                            x       y       z     vdW  Elec       q    Type
REMARK                         _______ _______ _______ _____ _____    ______ ____
ROOT
ATOM      1  O   UNL     1      36.415 -24.635 -16.245  0.00  0.00    -0.348 OA
ATOM      2  C   UNL     1      35.068 -24.164 -14.177  0.00  0.00    +0.030 C 
ATOM      3  C   UNL     1      35.891 -23.632 -15.357  0.00  0.00    +0.125 C 
ATOM      4  C   UNL     1      33.621 -24.473 -14.707  0.00  0.00    +0.003 C 
ATOM      5  C   UNL     1      32.999 -23.246 -15.458  0.00  0.00    +0.000 C 
ATOM      6  C   UNL     1      31.615 -23.647 -15.978  0.00  0.00    +0.002 C 
ATOM      7  C   UNL     1      30.655 -24.068 -14.847  0.00  0.00    +0.025 C 
ATOM      8  C   UNL     1      37.373 -23.952 -15.414  0.00  0.00    +0.196 C 
ATOM      9  C   UNL     1      35.326 -22.459 -16.105  0.00  0.00    +0.030 C 
ATOM     10  C   UNL     1      33.916 -22.776 -16.601  0.00  0.00    +0.003 C 
ATOM     11  C   UNL     1      32.663 -25.049 -13.635  0.00  0.00    +0.000 C 
ATOM     12  C   UNL     1      31.240 -25.310 -14.162  0.00  0.00    +0.002 C 
ATOM     13  C   UNL     1      35.728 -25.461 -13.594  0.00  0.00    +0.042 C 
ATOM     14  C   UNL     1      30.801 -22.636 -16.781  0.00  0.00    +0.003 C 
ATOM     15  C   UNL     1      29.386 -24.329 -15.683  0.00  0.00    +0.110 C 
ATOM     16  C   UNL     1      35.056 -23.097 -13.052  0.00  0.00    +0.003 C 
ATOM     17  C   UNL     1      29.359 -23.170 -16.697  0.00  0.00    +0.029 C 
ATOM     18  C   UNL     1      37.975 -24.625 -14.244  0.00  0.00    +0.146 C 
ATOM     19  C   UNL     1      30.385 -22.970 -13.787  0.00  0.00    +0.002 C 
ATOM     20  C   UNL     1      37.227 -25.352 -13.385  0.00  0.00    +0.078 C 
ENDROOT
BRANCH  15  21
ATOM     21  O   UNL     1      28.196 -24.359 -14.920  0.00  0.00    -0.384 OA
ATOM     22  H   UNL     1      27.790 -25.238 -14.988  0.00  0.00    +0.210 HD
ENDBRANCH  15  21
BRANCH  18  23
ATOM     23  O   UNL     1      39.344 -24.520 -14.049  0.00  0.00    -0.507 OA
ATOM     24  H   UNL     1      39.875 -24.076 -14.681  0.00  0.00    +0.292 HD
ENDBRANCH  18  23
BRANCH  20  26
ATOM     25  N   UNL     1      38.307 -26.559 -11.369  0.00  0.00    -0.191 NA
ATOM     26  C   UNL     1      37.822 -26.018 -12.273  0.00  0.00    +0.099 C 
ENDBRANCH  20  26
TORSDOF 3
ENDMDL
MODEL 7
REMARK VINA RESULT:      -5.9      2.755      7.409
REMARK  Name = 656583
REMARK  3 active torsions:
REMARK  status: ('A' for Active; 'I' for Inactive)
REMARK    1  A    between atoms: C_15  and  O_21
REMARK    2  A    between atoms: C_18  and  O_23
REMARK    3  A    between atoms: C_20  and  C_26
REMARK                            x       y       z     vdW  Elec       q    Type
REMARK                         _______ _______ _______ _____ _____    ______ ____
ROOT
ATOM      1  O   UNL     1      31.434 -13.610 -22.733  0.00  0.00    -0.348 OA
ATOM      2  C   UNL     1      33.878 -14.118 -22.447  0.00  0.00    +0.030 C 
ATOM      3  C   UNL     1      32.543 -13.696 -21.821  0.00  0.00    +0.125 C 
ATOM      4  C   UNL     1      33.860 -15.682 -22.596  0.00  0.00    +0.003 C 
ATOM      5  C   UNL     1      33.498 -16.395 -21.248  0.00  0.00    +0.000 C 
ATOM      6  C   UNL     1      33.459 -17.906 -21.495  0.00  0.00    +0.002 C 
ATOM      7  C   UNL     1      34.807 -18.461 -21.996  0.00  0.00    +0.025 C 
ATOM      8  C   UNL     1      31.939 -12.363 -22.220  0.00  0.00    +0.196 C 
ATOM      9  C   UNL     1      32.158 -14.360 -20.530  0.00  0.00    +0.030 C 
ATOM     10  C   UNL     1      32.158 -15.879 -20.694  0.00  0.00    +0.003 C 
ATOM     11  C   UNL     1      35.138 -16.272 -23.245  0.00  0.00    +0.000 C 
ATOM     12  C   UNL     1      35.119 -17.808 -23.348  0.00  0.00    +0.002 C 
ATOM     13  C   UNL     1      34.063 -13.434 -23.845  0.00  0.00    +0.042 C 
ATOM     14  C   UNL     1      33.095 -18.838 -20.342  0.00  0.00    +0.003 C 
ATOM     15  C   UNL     1      34.448 -19.959 -22.071  0.00  0.00    +0.110 C 
ATOM     16  C   UNL     1      35.035 -13.638 -21.533  0.00  0.00    +0.003 C 
ATOM     17  C   UNL     1      33.626 -20.212 -20.793  0.00  0.00    +0.029 C 
ATOM     18  C   UNL     1      32.753 -11.470 -23.072  0.00  0.00    +0.146 C 
ATOM     19  C   UNL     1      35.997 -18.242 -21.027  0.00  0.00    +0.002 C 
ATOM     20  C   UNL     1      33.743 -11.951 -23.855  0.00  0.00    +0.078 C 
ENDROOT
BRANCH  15  21
ATOM     21  O   UNL     1      35.572 -20.814 -22.125  0.00  0.00    -0.384 OA
ATOM     22  H   UNL     1      35.294 -21.726 -21.944  0.00  0.00    +0.210 HD
ENDBRANCH  15  21
BRANCH  18  23
ATOM     23  O   UNL     1      32.465 -10.113 -23.077  0.00  0.00    -0.507 OA
ATOM     24  H   UNL     1      31.868  -9.759 -22.448  0.00  0.00    +0.292 HD
ENDBRANCH  18  23
BRANCH  20  26
ATOM     25  N   UNL     1      35.126 -10.377 -25.372  0.00  0.00    -0.191 NA
ATOM     26  C   UNL     1      34.506 -11.083 -24.692  0.00  0.00    +0.099 C 
ENDBRANCH  20  26
TORSDOF 3
ENDMDL
MODEL 8
REMARK VINA RESULT:      -5.8      3.767      6.187
REMARK  Name = 656583
REMARK  3 active torsions:
REMARK  status: ('A' for Active; 'I' for Inactive)
REMARK    1  A    between atoms: C_15  and  O_21
REMARK    2  A    between atoms: C_18  and  O_23
REMARK    3  A    between atoms: C_20  and  C_26
REMARK                            x       y       z     vdW  Elec       q    Type
REMARK                         _______ _______ _______ _____ _____    ______ ____
ROOT
ATOM      1  O   UNL     1      33.320  -9.728 -24.972  0.00  0.00    -0.348 OA
ATOM      2  C   UNL     1      32.493  -8.016 -23.328  0.00  0.00    +0.030 C 
ATOM      3  C   UNL     1      33.673  -8.755 -23.972  0.00  0.00    +0.125 C 
ATOM      4  C   UNL     1      32.057  -6.870 -24.311  0.00  0.00    +0.003 C 
ATOM      5  C   UNL     1      33.265  -5.965 -24.729  0.00  0.00    +0.000 C 
ATOM      6  C   UNL     1      32.761  -4.909 -25.717  0.00  0.00    +0.002 C 
ATOM      7  C   UNL     1      31.662  -4.011 -25.117  0.00  0.00    +0.025 C 
ATOM      8  C   UNL     1      33.823 -10.244 -23.724  0.00  0.00    +0.196 C 
ATOM      9  C   UNL     1      34.850  -7.921 -24.391  0.00  0.00    +0.030 C 
ATOM     10  C   UNL     1      34.401  -6.808 -25.336  0.00  0.00    +0.003 C 
ATOM     11  C   UNL     1      30.846  -6.038 -23.817  0.00  0.00    +0.000 C 
ATOM     12  C   UNL     1      30.457  -4.896 -24.774  0.00  0.00    +0.002 C 
ATOM     13  C   UNL     1      31.305  -9.005 -23.075  0.00  0.00    +0.042 C 
ATOM     14  C   UNL     1      33.753  -3.912 -26.310  0.00  0.00    +0.003 C 
ATOM     15  C   UNL     1      31.442  -3.056 -26.307  0.00  0.00    +0.110 C 
ATOM     16  C   UNL     1      32.941  -7.458 -21.953  0.00  0.00    +0.003 C 
ATOM     17  C   UNL     1      32.864  -2.762 -26.820  0.00  0.00    +0.029 C 
ATOM     18  C   UNL     1      32.911 -10.871 -22.744  0.00  0.00    +0.146 C 
ATOM     19  C   UNL     1      32.093  -3.213 -23.860  0.00  0.00    +0.002 C 
ATOM     20  C   UNL     1      31.718 -10.318 -22.435  0.00  0.00    +0.078 C 
ENDROOT
BRANCH  15  21
ATOM     21  O   UNL     1      30.772  -1.859 -25.964  0.00  0.00    -0.384 OA
ATOM     22  H   UNL     1      30.255  -1.999 -25.154  0.00  0.00    +0.210 HD
ENDBRANCH  15  21
BRANCH  18  23
ATOM     23  O   UNL     1      33.292 -12.067 -22.154  0.00  0.00    -0.507 OA
ATOM     24  H   UNL     1      33.722 -12.725 -22.664  0.00  0.00    +0.292 HD
ENDBRANCH  18  23
BRANCH  20  26
ATOM     25  N   UNL     1      30.118 -11.454 -20.750  0.00  0.00    -0.191 NA
ATOM     26  C   UNL     1      30.836 -10.944 -21.506  0.00  0.00    +0.099 C 
ENDBRANCH  20  26
TORSDOF 3
ENDMDL
MODEL 9
REMARK VINA RESULT:      -5.7      3.933      6.567
REMARK  Name = 656583
REMARK  3 active torsions:
REMARK  status: ('A' for Active; 'I' for Inactive)
REMARK    1  A    between atoms: C_15  and  O_21
REMARK    2  A    between atoms: C_18  and  O_23
REMARK    3  A    between atoms: C_20  and  C_26
REMARK                            x       y       z     vdW  Elec       q    Type
REMARK                         _______ _______ _______ _____ _____    ______ ____
ROOT
ATOM      1  O   UNL     1      32.644  -6.799 -21.234  0.00  0.00    -0.348 OA
ATOM      2  C   UNL     1      32.089  -7.353 -23.620  0.00  0.00    +0.030 C 
ATOM      3  C   UNL     1      31.639  -6.801 -22.262  0.00  0.00    +0.125 C 
ATOM      4  C   UNL     1      32.868  -6.209 -24.364  0.00  0.00    +0.003 C 
ATOM      5  C   UNL     1      32.040  -4.880 -24.423  0.00  0.00    +0.000 C 
ATOM      6  C   UNL     1      32.888  -3.812 -25.121  0.00  0.00    +0.002 C 
ATOM      7  C   UNL     1      33.280  -4.209 -26.558  0.00  0.00    +0.025 C 
ATOM      8  C   UNL     1      31.571  -7.747 -21.078  0.00  0.00    +0.196 C 
ATOM      9  C   UNL     1      30.846  -5.526 -22.276  0.00  0.00    +0.030 C 
ATOM     10  C   UNL     1      31.616  -4.431 -23.014  0.00  0.00    +0.003 C 
ATOM     11  C   UNL     1      33.419  -6.617 -25.754  0.00  0.00    +0.000 C 
ATOM     12  C   UNL     1      34.146  -5.473 -26.484  0.00  0.00    +0.002 C 
ATOM     13  C   UNL     1      33.009  -8.605 -23.421  0.00  0.00    +0.042 C 
ATOM     14  C   UNL     1      32.324  -2.403 -25.280  0.00  0.00    +0.003 C 
ATOM     15  C   UNL     1      34.037  -2.932 -26.972  0.00  0.00    +0.110 C 
ATOM     16  C   UNL     1      30.839  -7.812 -24.415  0.00  0.00    +0.003 C 
ATOM     17  C   UNL     1      33.178  -1.786 -26.404  0.00  0.00    +0.029 C 
ATOM     18  C   UNL     1      31.790  -9.186 -21.336  0.00  0.00    +0.146 C 
ATOM     19  C   UNL     1      32.082  -4.456 -27.509  0.00  0.00    +0.002 C 
ATOM     20  C   UNL     1      32.476  -9.612 -22.419  0.00  0.00    +0.078 C 
ENDROOT
BRANCH  15  21
ATOM     21  O   UNL     1      34.201  -2.793 -28.369  0.00  0.00    -0.384 OA
ATOM     22  H   UNL     1      33.370  -3.016 -28.817  0.00  0.00    +0.210 HD
ENDBRANCH  15  21
BRANCH  18  23
ATOM     23  O   UNL     1      31.297 -10.106 -20.423  0.00  0.00    -0.507 OA
ATOM     24  H   UNL     1      31.757 -10.265 -19.622  0.00  0.00    +0.292 HD
ENDBRANCH  18  23
BRANCH  20  26
ATOM     25  N   UNL     1      32.887 -12.133 -22.829  0.00  0.00    -0.191 NA
ATOM     26  C   UNL     1      32.703 -11.002 -22.644  0.00  0.00    +0.099 C 
ENDBRANCH  20  26
TORSDOF 3
ENDMDL
