MODEL 1
REMARK VINA RESULT:      -8.2      0.000      0.000
REMARK  Name = 73386890
REMARK  6 active torsions:
REMARK  status: ('A' for Active; 'I' for Inactive)
REMARK    1  A    between atoms: N_1  and  C_31
REMARK    2  A    between atoms: N_4  and  C_16
REMARK    3  A    between atoms: C_17  and  O_28
REMARK    4  A    between atoms: C_18  and  C_25
REMARK    5  A    between atoms: O_28  and  C_29
REMARK    6  A    between atoms: C_31  and  C_32
REMARK                            x       y       z     vdW  Elec       q    Type
REMARK                         _______ _______ _______ _____ _____    ______ ____
ROOT
ATOM      1  N   UNL     1      32.441 -22.813 -17.166  0.00  0.00    -0.306 N 
ATOM      2  N   UNL     1      30.135 -22.435 -17.173  0.00  0.00    -0.393 NA
ATOM      3  N   UNL     1      32.321 -24.000 -14.696  0.00  0.00    -0.334 NA
ATOM      4  N   UNL     1      33.346 -25.058 -12.871  0.00  0.00    -0.244 N 
ATOM      5  N   UNL     1      31.029 -24.719 -12.793  0.00  0.00    -0.170 NA
ATOM      6  C   UNL     1      31.219 -22.928 -16.525  0.00  0.00    +0.210 C 
ATOM      7  C   UNL     1      31.201 -23.533 -15.279  0.00  0.00    +0.185 C 
ATOM      8  C   UNL     1      29.949 -23.631 -14.662  0.00  0.00    +0.039 C 
ATOM      9  C   UNL     1      28.950 -22.553 -16.537  0.00  0.00    +0.093 C 
ATOM     10  C   UNL     1      28.800 -23.137 -15.293  0.00  0.00    +0.085 C 
ATOM     11  C   UNL     1      32.172 -24.568 -13.483  0.00  0.00    +0.149 C 
ATOM     12  C   UNL     1      29.931 -24.240 -13.410  0.00  0.00    +0.111 C 
ATOM     13  C   UNL     1      27.753 -22.013 -17.245  0.00  0.00    +0.062 C 
ATOM     14  H   UNL     1      33.239 -23.165 -16.711  0.00  0.00    +0.149 HD
ATOM     15  H   UNL     1      33.192 -25.465 -11.987  0.00  0.00    +0.165 HD
ENDROOT
BRANCH   4  16
ATOM     16  C   UNL     1      34.694 -25.079 -13.276  0.00  0.00    +0.091 C 
ATOM     17  C   UNL     1      35.719 -25.107 -12.330  0.00  0.00    +0.152 C 
ATOM     18  C   UNL     1      37.357 -25.120 -14.106  0.00  0.00    +0.037 C 
ATOM     19  C   UNL     1      37.051 -25.128 -12.745  0.00  0.00    +0.041 C 
ATOM     20  C   UNL     1      35.000 -25.072 -14.637  0.00  0.00    +0.018 C 
ATOM     21  C   UNL     1      36.332 -25.092 -15.052  0.00  0.00    +0.004 C 
BRANCH  18  25
ATOM     22  N   UNL     1      39.275 -24.246 -15.407  0.00  0.00    -0.251 N 
ATOM     23  N   UNL     1      39.650 -26.006 -14.162  0.00  0.00    -0.131 NA
ATOM     24  N   UNL     1      40.825 -25.668 -14.805  0.00  0.00    -0.128 NA
ATOM     25  C   UNL     1      38.734 -25.142 -14.536  0.00  0.00    +0.158 C 
ATOM     26  C   UNL     1      38.626 -23.134 -16.058  0.00  0.00    +0.120 C 
ATOM     27  C   UNL     1      40.579 -24.610 -15.546  0.00  0.00    +0.192 C 
ENDBRANCH  18  25
BRANCH  17  28
ATOM     28  O   UNL     1      35.441 -25.114 -10.996  0.00  0.00    -0.474 OA
BRANCH  28  29
ATOM     29  C   UNL     1      35.680 -23.906 -10.278  0.00  0.00    +0.206 C 
ATOM     30  C   UNL     1      36.698 -23.077 -11.033  0.00  0.00    +0.051 C 
ENDBRANCH  28  29
ENDBRANCH  17  28
ENDBRANCH   4  16
BRANCH   1  31
ATOM     31  C   UNL     1      32.610 -22.205 -18.466  0.00  0.00    +0.089 C 
BRANCH  31  32
ATOM     32  C   UNL     1      34.072 -22.281 -18.960  0.00  0.00    +0.018 C 
ATOM     33  C   UNL     1      35.049 -22.359 -17.774  0.00  0.00    +0.002 C 
ATOM     34  C   UNL     1      34.230 -23.555 -19.810  0.00  0.00    +0.002 C 
ATOM     35  C   UNL     1      34.423 -21.063 -19.832  0.00  0.00    +0.002 C 
ENDBRANCH  31  32
ENDBRANCH   1  31
TORSDOF 6
ENDMDL
MODEL 2
REMARK VINA RESULT:      -7.8     14.813     18.738
REMARK  Name = 73386890
REMARK  6 active torsions:
REMARK  status: ('A' for Active; 'I' for Inactive)
REMARK    1  A    between atoms: N_1  and  C_31
REMARK    2  A    between atoms: N_4  and  C_16
REMARK    3  A    between atoms: C_17  and  O_28
REMARK    4  A    between atoms: C_18  and  C_25
REMARK    5  A    between atoms: O_28  and  C_29
REMARK    6  A    between atoms: C_31  and  C_32
REMARK                            x       y       z     vdW  Elec       q    Type
REMARK                         _______ _______ _______ _____ _____    ______ ____
ROOT
ATOM      1  N   UNL     1      33.750 -11.815 -24.416  0.00  0.00    -0.306 N 
ATOM      2  N   UNL     1      33.058 -13.451 -22.899  0.00  0.00    -0.393 NA
ATOM      3  N   UNL     1      32.735  -9.811 -22.843  0.00  0.00    -0.334 NA
ATOM      4  N   UNL     1      32.320  -7.542 -22.414  0.00  0.00    -0.244 N 
ATOM      5  N   UNL     1      31.590  -9.116 -20.839  0.00  0.00    -0.170 NA
ATOM      6  C   UNL     1      33.128 -12.137 -23.222  0.00  0.00    +0.210 C 
ATOM      7  C   UNL     1      32.629 -11.096 -22.456  0.00  0.00    +0.185 C 
ATOM      8  C   UNL     1      32.006 -11.460 -21.257  0.00  0.00    +0.039 C 
ATOM      9  C   UNL     1      32.449 -13.752 -21.733  0.00  0.00    +0.093 C 
ATOM     10  C   UNL     1      31.911 -12.806 -20.881  0.00  0.00    +0.085 C 
ATOM     11  C   UNL     1      32.208  -8.891 -22.010  0.00  0.00    +0.149 C 
ATOM     12  C   UNL     1      31.504 -10.414 -20.488  0.00  0.00    +0.111 C 
ATOM     13  C   UNL     1      32.369 -15.197 -21.372  0.00  0.00    +0.062 C 
ATOM     14  H   UNL     1      33.811 -10.865 -24.667  0.00  0.00    +0.149 HD
ATOM     15  H   UNL     1      31.923  -6.904 -21.777  0.00  0.00    +0.165 HD
ENDROOT
BRANCH   4  16
ATOM     16  C   UNL     1      32.886  -6.931 -23.548  0.00  0.00    +0.091 C 
ATOM     17  C   UNL     1      32.178  -5.965 -24.263  0.00  0.00    +0.152 C 
ATOM     18  C   UNL     1      34.034  -5.736 -25.792  0.00  0.00    +0.037 C 
ATOM     19  C   UNL     1      32.752  -5.367 -25.385  0.00  0.00    +0.041 C 
ATOM     20  C   UNL     1      34.169  -7.299 -23.955  0.00  0.00    +0.018 C 
ATOM     21  C   UNL     1      34.743  -6.702 -25.077  0.00  0.00    +0.004 C 
BRANCH  18  25
ATOM     22  N   UNL     1      33.925  -4.423 -27.890  0.00  0.00    -0.251 N 
ATOM     23  N   UNL     1      35.902  -5.129 -27.272  0.00  0.00    -0.131 NA
ATOM     24  N   UNL     1      36.039  -4.423 -28.452  0.00  0.00    -0.128 NA
ATOM     25  C   UNL     1      34.628  -5.118 -26.952  0.00  0.00    +0.158 C 
ATOM     26  C   UNL     1      32.506  -4.165 -27.927  0.00  0.00    +0.120 C 
ATOM     27  C   UNL     1      34.843  -4.008 -28.805  0.00  0.00    +0.192 C 
ENDBRANCH  18  25
BRANCH  17  28
ATOM     28  O   UNL     1      30.924  -5.591 -23.881  0.00  0.00    -0.474 OA
BRANCH  28  29
ATOM     29  C   UNL     1      30.822  -4.489 -22.982  0.00  0.00    +0.206 C 
ATOM     30  C   UNL     1      30.309  -4.987 -21.647  0.00  0.00    +0.051 C 
ENDBRANCH  28  29
ENDBRANCH  17  28
ENDBRANCH   4  16
BRANCH   1  31
ATOM     31  C   UNL     1      34.317 -12.794 -25.315  0.00  0.00    +0.089 C 
BRANCH  31  32
ATOM     32  C   UNL     1      33.343 -13.175 -26.453  0.00  0.00    +0.018 C 
ATOM     33  C   UNL     1      32.320 -12.051 -26.698  0.00  0.00    +0.002 C 
ATOM     34  C   UNL     1      34.160 -13.384 -27.741  0.00  0.00    +0.002 C 
ATOM     35  C   UNL     1      32.599 -14.481 -26.126  0.00  0.00    +0.002 C 
ENDBRANCH  31  32
ENDBRANCH   1  31
TORSDOF 6
ENDMDL
MODEL 3
REMARK VINA RESULT:      -7.4     14.218     18.351
REMARK  Name = 73386890
REMARK  6 active torsions:
REMARK  status: ('A' for Active; 'I' for Inactive)
REMARK    1  A    between atoms: N_1  and  C_31
REMARK    2  A    between atoms: N_4  and  C_16
REMARK    3  A    between atoms: C_17  and  O_28
REMARK    4  A    between atoms: C_18  and  C_25
REMARK    5  A    between atoms: O_28  and  C_29
REMARK    6  A    between atoms: C_31  and  C_32
REMARK                            x       y       z     vdW  Elec       q    Type
REMARK                         _______ _______ _______ _____ _____    ______ ____
ROOT
ATOM      1  N   UNL     1      33.582 -11.793 -24.460  0.00  0.00    -0.306 N 
ATOM      2  N   UNL     1      33.482 -13.706 -23.121  0.00  0.00    -0.393 NA
ATOM      3  N   UNL     1      32.263 -10.304 -22.571  0.00  0.00    -0.334 NA
ATOM      4  N   UNL     1      31.337  -8.283 -21.824  0.00  0.00    -0.244 N 
ATOM      5  N   UNL     1      31.192 -10.151 -20.418  0.00  0.00    -0.170 NA
ATOM      6  C   UNL     1      33.187 -12.392 -23.276  0.00  0.00    +0.210 C 
ATOM      7  C   UNL     1      32.523 -11.606 -22.348  0.00  0.00    +0.185 C 
ATOM      8  C   UNL     1      32.138 -12.246 -21.164  0.00  0.00    +0.039 C 
ATOM      9  C   UNL     1      33.091 -14.278 -21.964  0.00  0.00    +0.093 C 
ATOM     10  C   UNL     1      32.423 -13.602 -20.960  0.00  0.00    +0.085 C 
ATOM     11  C   UNL     1      31.610  -9.649 -21.591  0.00  0.00    +0.149 C 
ATOM     12  C   UNL     1      31.471 -11.456 -20.232  0.00  0.00    +0.111 C 
ATOM     13  C   UNL     1      33.415 -15.724 -21.788  0.00  0.00    +0.062 C 
ATOM     14  H   UNL     1      33.376 -10.839 -24.589  0.00  0.00    +0.149 HD
ATOM     15  H   UNL     1      30.860  -7.842 -21.083  0.00  0.00    +0.165 HD
ENDROOT
BRANCH   4  16
ATOM     16  C   UNL     1      31.613  -7.427 -22.907  0.00  0.00    +0.091 C 
ATOM     17  C   UNL     1      32.927  -7.086 -23.227  0.00  0.00    +0.152 C 
ATOM     18  C   UNL     1      32.129  -5.729 -25.059  0.00  0.00    +0.037 C 
ATOM     19  C   UNL     1      33.185  -6.238 -24.303  0.00  0.00    +0.041 C 
ATOM     20  C   UNL     1      30.557  -6.920 -23.664  0.00  0.00    +0.018 C 
ATOM     21  C   UNL     1      30.814  -6.070 -24.740  0.00  0.00    +0.004 C 
BRANCH  18  25
ATOM     22  N   UNL     1      31.954  -3.566 -26.253  0.00  0.00    -0.251 N 
ATOM     23  N   UNL     1      33.087  -5.151 -27.249  0.00  0.00    -0.131 NA
ATOM     24  N   UNL     1      33.100  -4.031 -28.058  0.00  0.00    -0.128 NA
ATOM     25  C   UNL     1      32.396  -4.852 -26.172  0.00  0.00    +0.158 C 
ATOM     26  C   UNL     1      31.164  -2.835 -25.292  0.00  0.00    +0.120 C 
ATOM     27  C   UNL     1      32.416  -3.092 -27.443  0.00  0.00    +0.192 C 
ENDBRANCH  18  25
BRANCH  17  28
ATOM     28  O   UNL     1      33.973  -7.572 -22.500  0.00  0.00    -0.474 OA
BRANCH  28  29
ATOM     29  C   UNL     1      35.195  -7.803 -23.198  0.00  0.00    +0.206 C 
ATOM     30  C   UNL     1      35.000  -8.951 -24.166  0.00  0.00    +0.051 C 
ENDBRANCH  28  29
ENDBRANCH  17  28
ENDBRANCH   4  16
BRANCH   1  31
ATOM     31  C   UNL     1      34.281 -12.489 -25.516  0.00  0.00    +0.089 C 
BRANCH  31  32
ATOM     32  C   UNL     1      33.311 -13.122 -26.539  0.00  0.00    +0.018 C 
ATOM     33  C   UNL     1      32.166 -12.153 -26.883  0.00  0.00    +0.002 C 
ATOM     34  C   UNL     1      34.097 -13.429 -27.827  0.00  0.00    +0.002 C 
ATOM     35  C   UNL     1      32.723 -14.436 -25.998  0.00  0.00    +0.002 C 
ENDBRANCH  31  32
ENDBRANCH   1  31
TORSDOF 6
ENDMDL
MODEL 4
REMARK VINA RESULT:      -6.8     13.734     17.753
REMARK  Name = 73386890
REMARK  6 active torsions:
REMARK  status: ('A' for Active; 'I' for Inactive)
REMARK    1  A    between atoms: N_1  and  C_31
REMARK    2  A    between atoms: N_4  and  C_16
REMARK    3  A    between atoms: C_17  and  O_28
REMARK    4  A    between atoms: C_18  and  C_25
REMARK    5  A    between atoms: O_28  and  C_29
REMARK    6  A    between atoms: C_31  and  C_32
REMARK                            x       y       z     vdW  Elec       q    Type
REMARK                         _______ _______ _______ _____ _____    ______ ____
ROOT
ATOM      1  N   UNL     1      33.630 -12.382 -24.273  0.00  0.00    -0.306 N 
ATOM      2  N   UNL     1      33.505 -14.360 -23.036  0.00  0.00    -0.393 NA
ATOM      3  N   UNL     1      32.291 -10.985 -22.330  0.00  0.00    -0.334 NA
ATOM      4  N   UNL     1      31.364  -9.000 -21.493  0.00  0.00    -0.244 N 
ATOM      5  N   UNL     1      31.191 -10.937 -20.185  0.00  0.00    -0.170 NA
ATOM      6  C   UNL     1      33.216 -13.039 -23.127  0.00  0.00    +0.210 C 
ATOM      7  C   UNL     1      32.543 -12.298 -22.169  0.00  0.00    +0.185 C 
ATOM      8  C   UNL     1      32.140 -12.996 -21.025  0.00  0.00    +0.039 C 
ATOM      9  C   UNL     1      33.096 -14.989 -21.914  0.00  0.00    +0.093 C 
ATOM     10  C   UNL     1      32.416 -14.362 -20.886  0.00  0.00    +0.085 C 
ATOM     11  C   UNL     1      31.628 -10.377 -21.326  0.00  0.00    +0.149 C 
ATOM     12  C   UNL     1      31.463 -12.250 -20.063  0.00  0.00    +0.111 C 
ATOM     13  C   UNL     1      33.411 -16.443 -21.807  0.00  0.00    +0.062 C 
ATOM     14  H   UNL     1      33.430 -11.422 -24.357  0.00  0.00    +0.149 HD
ATOM     15  H   UNL     1      30.878  -8.595 -20.737  0.00  0.00    +0.165 HD
ENDROOT
BRANCH   4  16
ATOM     16  C   UNL     1      31.657  -8.092 -22.527  0.00  0.00    +0.091 C 
ATOM     17  C   UNL     1      32.844  -7.360 -22.515  0.00  0.00    +0.152 C 
ATOM     18  C   UNL     1      32.213  -6.299 -24.590  0.00  0.00    +0.037 C 
ATOM     19  C   UNL     1      33.122  -6.463 -23.546  0.00  0.00    +0.041 C 
ATOM     20  C   UNL     1      30.748  -7.928 -23.572  0.00  0.00    +0.018 C 
ATOM     21  C   UNL     1      31.026  -7.031 -24.604  0.00  0.00    +0.004 C 
BRANCH  18  25
ATOM     22  N   UNL     1      31.879  -4.170 -25.812  0.00  0.00    -0.251 N 
ATOM     23  N   UNL     1      33.381  -5.541 -26.617  0.00  0.00    -0.131 NA
ATOM     24  N   UNL     1      33.338  -4.420 -27.423  0.00  0.00    -0.128 NA
ATOM     25  C   UNL     1      32.500  -5.372 -25.658  0.00  0.00    +0.158 C 
ATOM     26  C   UNL     1      30.850  -3.587 -24.985  0.00  0.00    +0.120 C 
ATOM     27  C   UNL     1      32.431  -3.610 -26.923  0.00  0.00    +0.192 C 
ENDBRANCH  18  25
BRANCH  17  28
ATOM     28  O   UNL     1      33.745  -7.506 -21.502  0.00  0.00    -0.474 OA
BRANCH  28  29
ATOM     29  C   UNL     1      33.290  -7.211 -20.183  0.00  0.00    +0.206 C 
ATOM     30  C   UNL     1      32.311  -6.058 -20.244  0.00  0.00    +0.051 C 
ENDBRANCH  28  29
ENDBRANCH  17  28
ENDBRANCH   4  16
BRANCH   1  31
ATOM     31  C   UNL     1      34.341 -13.027 -25.354  0.00  0.00    +0.089 C 
BRANCH  31  32
ATOM     32  C   UNL     1      33.401 -13.426 -26.514  0.00  0.00    +0.018 C 
ATOM     33  C   UNL     1      32.763 -14.802 -26.255  0.00  0.00    +0.002 C 
ATOM     34  C   UNL     1      32.279 -12.376 -26.613  0.00  0.00    +0.002 C 
ATOM     35  C   UNL     1      34.161 -13.459 -27.851  0.00  0.00    +0.002 C 
ENDBRANCH  31  32
ENDBRANCH   1  31
TORSDOF 6
ENDMDL
MODEL 5
REMARK VINA RESULT:      -6.7     15.970     19.904
REMARK  Name = 73386890
REMARK  6 active torsions:
REMARK  status: ('A' for Active; 'I' for Inactive)
REMARK    1  A    between atoms: N_1  and  C_31
REMARK    2  A    between atoms: N_4  and  C_16
REMARK    3  A    between atoms: C_17  and  O_28
REMARK    4  A    between atoms: C_18  and  C_25
REMARK    5  A    between atoms: O_28  and  C_29
REMARK    6  A    between atoms: C_31  and  C_32
REMARK                            x       y       z     vdW  Elec       q    Type
REMARK                         _______ _______ _______ _____ _____    ______ ____
ROOT
ATOM      1  N   UNL     1      32.320 -10.399 -23.896  0.00  0.00    -0.306 N 
ATOM      2  N   UNL     1      32.108 -11.839 -22.067  0.00  0.00    -0.393 NA
ATOM      3  N   UNL     1      32.138  -8.190 -22.280  0.00  0.00    -0.334 NA
ATOM      4  N   UNL     1      32.105  -5.865 -21.971  0.00  0.00    -0.244 N 
ATOM      5  N   UNL     1      31.886  -7.234 -20.082  0.00  0.00    -0.170 NA
ATOM      6  C   UNL     1      32.163 -10.566 -22.530  0.00  0.00    +0.210 C 
ATOM      7  C   UNL     1      32.075  -9.425 -21.749  0.00  0.00    +0.185 C 
ATOM      8  C   UNL     1      31.917  -9.634 -20.374  0.00  0.00    +0.039 C 
ATOM      9  C   UNL     1      31.955 -11.988 -20.735  0.00  0.00    +0.093 C 
ATOM     10  C   UNL     1      31.855 -10.931 -19.850  0.00  0.00    +0.085 C 
ATOM     11  C   UNL     1      32.039  -7.161 -21.414  0.00  0.00    +0.149 C 
ATOM     12  C   UNL     1      31.828  -8.487 -19.589  0.00  0.00    +0.111 C 
ATOM     13  C   UNL     1      31.894 -13.387 -20.220  0.00  0.00    +0.062 C 
ATOM     14  H   UNL     1      32.362  -9.482 -24.250  0.00  0.00    +0.149 HD
ATOM     15  H   UNL     1      32.030  -5.144 -21.304  0.00  0.00    +0.165 HD
ENDROOT
BRANCH   4  16
ATOM     16  C   UNL     1      32.257  -5.401 -23.290  0.00  0.00    +0.091 C 
ATOM     17  C   UNL     1      31.782  -4.143 -23.661  0.00  0.00    +0.152 C 
ATOM     18  C   UNL     1      32.573  -4.507 -25.914  0.00  0.00    +0.037 C 
ATOM     19  C   UNL     1      31.939  -3.696 -24.973  0.00  0.00    +0.041 C 
ATOM     20  C   UNL     1      32.892  -6.211 -24.232  0.00  0.00    +0.018 C 
ATOM     21  C   UNL     1      33.050  -5.765 -25.544  0.00  0.00    +0.004 C 
BRANCH  18  25
ATOM     22  N   UNL     1      33.931  -3.999 -27.922  0.00  0.00    -0.251 N 
ATOM     23  N   UNL     1      31.784  -3.608 -28.063  0.00  0.00    -0.131 NA
ATOM     24  N   UNL     1      32.369  -3.267 -29.267  0.00  0.00    -0.128 NA
ATOM     25  C   UNL     1      32.736  -4.044 -27.270  0.00  0.00    +0.158 C 
ATOM     26  C   UNL     1      35.230  -4.385 -27.426  0.00  0.00    +0.120 C 
ATOM     27  C   UNL     1      33.657  -3.510 -29.162  0.00  0.00    +0.192 C 
ENDBRANCH  18  25
BRANCH  17  28
ATOM     28  O   UNL     1      31.159  -3.337 -22.756  0.00  0.00    -0.474 OA
BRANCH  28  29
ATOM     29  C   UNL     1      30.710  -2.066 -23.222  0.00  0.00    +0.206 C 
ATOM     30  C   UNL     1      29.338  -1.786 -22.648  0.00  0.00    +0.051 C 
ENDBRANCH  28  29
ENDBRANCH  17  28
ENDBRANCH   4  16
BRANCH   1  31
ATOM     31  C   UNL     1      32.425 -11.496 -24.831  0.00  0.00    +0.089 C 
BRANCH  31  32
ATOM     32  C   UNL     1      33.895 -11.860 -25.139  0.00  0.00    +0.018 C 
ATOM     33  C   UNL     1      34.844 -10.731 -24.700  0.00  0.00    +0.002 C 
ATOM     34  C   UNL     1      34.253 -13.136 -24.354  0.00  0.00    +0.002 C 
ATOM     35  C   UNL     1      34.089 -12.137 -26.640  0.00  0.00    +0.002 C 
ENDBRANCH  31  32
ENDBRANCH   1  31
TORSDOF 6
ENDMDL
MODEL 6
REMARK VINA RESULT:      -6.6     11.460     15.574
REMARK  Name = 73386890
REMARK  6 active torsions:
REMARK  status: ('A' for Active; 'I' for Inactive)
REMARK    1  A    between atoms: N_1  and  C_31
REMARK    2  A    between atoms: N_4  and  C_16
REMARK    3  A    between atoms: C_17  and  O_28
REMARK    4  A    between atoms: C_18  and  C_25
REMARK    5  A    between atoms: O_28  and  C_29
REMARK    6  A    between atoms: C_31  and  C_32
REMARK                            x       y       z     vdW  Elec       q    Type
REMARK                         _______ _______ _______ _____ _____    ______ ____
ROOT
ATOM      1  N   UNL     1      33.716 -14.187 -24.674  0.00  0.00    -0.306 N 
ATOM      2  N   UNL     1      34.174 -16.436 -24.235  0.00  0.00    -0.393 NA
ATOM      3  N   UNL     1      32.954 -13.751 -22.075  0.00  0.00    -0.334 NA
ATOM      4  N   UNL     1      32.170 -12.344 -20.370  0.00  0.00    -0.244 N 
ATOM      5  N   UNL     1      32.603 -14.585 -19.842  0.00  0.00    -0.170 NA
ATOM      6  C   UNL     1      33.754 -15.234 -23.769  0.00  0.00    +0.210 C 
ATOM      7  C   UNL     1      33.361 -14.973 -22.467  0.00  0.00    +0.185 C 
ATOM      8  C   UNL     1      33.412 -16.056 -21.582  0.00  0.00    +0.039 C 
ATOM      9  C   UNL     1      34.206 -17.448 -23.344  0.00  0.00    +0.093 C 
ATOM     10  C   UNL     1      33.840 -17.316 -22.017  0.00  0.00    +0.085 C 
ATOM     11  C   UNL     1      32.596 -13.626 -20.782  0.00  0.00    +0.149 C 
ATOM     12  C   UNL     1      33.016 -15.793 -20.272  0.00  0.00    +0.111 C 
ATOM     13  C   UNL     1      34.669 -18.773 -23.850  0.00  0.00    +0.062 C 
ATOM     14  H   UNL     1      33.414 -13.307 -24.353  0.00  0.00    +0.149 HD
ATOM     15  H   UNL     1      31.919 -12.296 -19.419  0.00  0.00    +0.165 HD
ENDROOT
BRANCH   4  16
ATOM     16  C   UNL     1      32.032 -11.121 -21.052  0.00  0.00    +0.091 C 
ATOM     17  C   UNL     1      32.095  -9.911 -20.362  0.00  0.00    +0.152 C 
ATOM     18  C   UNL     1      31.755  -8.712 -22.431  0.00  0.00    +0.037 C 
ATOM     19  C   UNL     1      31.957  -8.706 -21.051  0.00  0.00    +0.041 C 
ATOM     20  C   UNL     1      31.831 -11.126 -22.433  0.00  0.00    +0.018 C 
ATOM     21  C   UNL     1      31.692  -9.921 -23.123  0.00  0.00    +0.004 C 
BRANCH  18  25
ATOM     22  N   UNL     1      32.637  -6.825 -23.772  0.00  0.00    -0.251 N 
ATOM     23  N   UNL     1      30.503  -6.777 -23.291  0.00  0.00    -0.131 NA
ATOM     24  N   UNL     1      30.807  -5.655 -24.037  0.00  0.00    -0.128 NA
ATOM     25  C   UNL     1      31.612  -7.466 -23.144  0.00  0.00    +0.158 C 
ATOM     26  C   UNL     1      34.019  -7.231 -23.861  0.00  0.00    +0.120 C 
ATOM     27  C   UNL     1      32.091  -5.703 -24.316  0.00  0.00    +0.192 C 
ENDBRANCH  18  25
BRANCH  17  28
ATOM     28  O   UNL     1      32.291  -9.884 -19.013  0.00  0.00    -0.474 OA
BRANCH  28  29
ATOM     29  C   UNL     1      31.139 -10.046 -18.188  0.00  0.00    +0.206 C 
ATOM     30  C   UNL     1      31.303 -11.298 -17.352  0.00  0.00    +0.051 C 
ENDBRANCH  28  29
ENDBRANCH  17  28
ENDBRANCH   4  16
BRANCH   1  31
ATOM     31  C   UNL     1      34.096 -14.312 -26.062  0.00  0.00    +0.089 C 
BRANCH  31  32
ATOM     32  C   UNL     1      33.810 -13.023 -26.865  0.00  0.00    +0.018 C 
ATOM     33  C   UNL     1      32.458 -13.120 -27.595  0.00  0.00    +0.002 C 
ATOM     34  C   UNL     1      33.752 -11.841 -25.880  0.00  0.00    +0.002 C 
ATOM     35  C   UNL     1      34.926 -12.754 -27.889  0.00  0.00    +0.002 C 
ENDBRANCH  31  32
ENDBRANCH   1  31
TORSDOF 6
ENDMDL
MODEL 7
REMARK VINA RESULT:      -6.5     10.185     14.194
REMARK  Name = 73386890
REMARK  6 active torsions:
REMARK  status: ('A' for Active; 'I' for Inactive)
REMARK    1  A    between atoms: N_1  and  C_31
REMARK    2  A    between atoms: N_4  and  C_16
REMARK    3  A    between atoms: C_17  and  O_28
REMARK    4  A    between atoms: C_18  and  C_25
REMARK    5  A    between atoms: O_28  and  C_29
REMARK    6  A    between atoms: C_31  and  C_32
REMARK                            x       y       z     vdW  Elec       q    Type
REMARK                         _______ _______ _______ _____ _____    ______ ____
ROOT
ATOM      1  N   UNL     1      31.540 -11.542 -21.278  0.00  0.00    -0.306 N 
ATOM      2  N   UNL     1      31.332  -9.334 -22.012  0.00  0.00    -0.393 NA
ATOM      3  N   UNL     1      33.263 -12.146 -23.324  0.00  0.00    -0.334 NA
ATOM      4  N   UNL     1      34.635 -13.658 -24.480  0.00  0.00    -0.244 N 
ATOM      5  N   UNL     1      34.485 -11.463 -25.286  0.00  0.00    -0.170 NA
ATOM      6  C   UNL     1      31.883 -10.559 -22.191  0.00  0.00    +0.210 C 
ATOM      7  C   UNL     1      32.756 -10.905 -23.209  0.00  0.00    +0.185 C 
ATOM      8  C   UNL     1      33.078  -9.885 -24.112  0.00  0.00    +0.039 C 
ATOM      9  C   UNL     1      31.674  -8.385 -22.908  0.00  0.00    +0.093 C 
ATOM     10  C   UNL     1      32.535  -8.603 -23.967  0.00  0.00    +0.085 C 
ATOM     11  C   UNL     1      34.101 -12.356 -24.359  0.00  0.00    +0.149 C 
ATOM     12  C   UNL     1      33.956 -10.233 -25.137  0.00  0.00    +0.111 C 
ATOM     13  C   UNL     1      31.073  -7.033 -22.716  0.00  0.00    +0.062 C 
ATOM     14  H   UNL     1      31.930 -12.439 -21.392  0.00  0.00    +0.149 HD
ATOM     15  H   UNL     1      35.242 -13.767 -25.248  0.00  0.00    +0.165 HD
ENDROOT
BRANCH   4  16
ATOM     16  C   UNL     1      34.469 -14.830 -23.719  0.00  0.00    +0.091 C 
ATOM     17  C   UNL     1      34.274 -16.062 -24.345  0.00  0.00    +0.152 C 
ATOM     18  C   UNL     1      34.143 -17.137 -22.186  0.00  0.00    +0.037 C 
ATOM     19  C   UNL     1      34.111 -17.215 -23.578  0.00  0.00    +0.041 C 
ATOM     20  C   UNL     1      34.502 -14.753 -22.327  0.00  0.00    +0.018 C 
ATOM     21  C   UNL     1      34.339 -15.907 -21.560  0.00  0.00    +0.004 C 
BRANCH  18  25
ATOM     22  N   UNL     1      35.005 -19.108 -20.958  0.00  0.00    -0.251 N 
ATOM     23  N   UNL     1      32.835 -18.836 -20.981  0.00  0.00    -0.131 NA
ATOM     24  N   UNL     1      33.123 -19.976 -20.256  0.00  0.00    -0.128 NA
ATOM     25  C   UNL     1      33.975 -18.331 -21.393  0.00  0.00    +0.158 C 
ATOM     26  C   UNL     1      36.418 -18.920 -21.181  0.00  0.00    +0.120 C 
ATOM     27  C   UNL     1      34.430 -20.121 -20.254  0.00  0.00    +0.192 C 
ENDBRANCH  18  25
BRANCH  17  28
ATOM     28  O   UNL     1      34.238 -16.158 -25.704  0.00  0.00    -0.474 OA
BRANCH  28  29
ATOM     29  C   UNL     1      32.955 -16.103 -26.324  0.00  0.00    +0.206 C 
ATOM     30  C   UNL     1      32.716 -14.701 -26.842  0.00  0.00    +0.051 C 
ENDBRANCH  28  29
ENDBRANCH  17  28
ENDBRANCH   4  16
BRANCH   1  31
ATOM     31  C   UNL     1      30.641 -11.327 -20.167  0.00  0.00    +0.089 C 
BRANCH  31  32
ATOM     32  C   UNL     1      31.327 -10.583 -18.998  0.00  0.00    +0.018 C 
ATOM     33  C   UNL     1      31.049 -11.290 -17.660  0.00  0.00    +0.002 C 
ATOM     34  C   UNL     1      32.846 -10.585 -19.247  0.00  0.00    +0.002 C 
ATOM     35  C   UNL     1      30.844  -9.125 -18.915  0.00  0.00    +0.002 C 
ENDBRANCH  31  32
ENDBRANCH   1  31
TORSDOF 6
ENDMDL
MODEL 8
REMARK VINA RESULT:      -6.2     14.452     18.448
REMARK  Name = 73386890
REMARK  6 active torsions:
REMARK  status: ('A' for Active; 'I' for Inactive)
REMARK    1  A    between atoms: N_1  and  C_31
REMARK    2  A    between atoms: N_4  and  C_16
REMARK    3  A    between atoms: C_17  and  O_28
REMARK    4  A    between atoms: C_18  and  C_25
REMARK    5  A    between atoms: O_28  and  C_29
REMARK    6  A    between atoms: C_31  and  C_32
REMARK                            x       y       z     vdW  Elec       q    Type
REMARK                         _______ _______ _______ _____ _____    ______ ____
ROOT
ATOM      1  N   UNL     1      32.096 -11.100 -23.540  0.00  0.00    -0.306 N 
ATOM      2  N   UNL     1      32.236 -13.030 -22.230  0.00  0.00    -0.393 NA
ATOM      3  N   UNL     1      31.880  -9.508 -21.316  0.00  0.00    -0.334 NA
ATOM      4  N   UNL     1      31.652  -7.403 -20.308  0.00  0.00    -0.244 N 
ATOM      5  N   UNL     1      31.785  -9.285 -18.918  0.00  0.00    -0.170 NA
ATOM      6  C   UNL     1      32.112 -11.681 -22.283  0.00  0.00    +0.210 C 
ATOM      7  C   UNL     1      32.001 -10.843 -21.186  0.00  0.00    +0.185 C 
ATOM      8  C   UNL     1      32.020 -11.466 -19.933  0.00  0.00    +0.039 C 
ATOM      9  C   UNL     1      32.250 -13.584 -21.000  0.00  0.00    +0.093 C 
ATOM     10  C   UNL     1      32.147 -12.857 -19.828  0.00  0.00    +0.085 C 
ATOM     11  C   UNL     1      31.778  -8.803 -20.172  0.00  0.00    +0.149 C 
ATOM     12  C   UNL     1      31.908 -10.623 -18.830  0.00  0.00    +0.111 C 
ATOM     13  C   UNL     1      32.387 -15.068 -20.935  0.00  0.00    +0.062 C 
ATOM     14  H   UNL     1      32.007 -10.121 -23.598  0.00  0.00    +0.149 HD
ATOM     15  H   UNL     1      31.582  -6.926 -19.449  0.00  0.00    +0.165 HD
ENDROOT
BRANCH   4  16
ATOM     16  C   UNL     1      31.607  -6.555 -21.430  0.00  0.00    +0.091 C 
ATOM     17  C   UNL     1      32.649  -6.547 -22.358  0.00  0.00    +0.152 C 
ATOM     18  C   UNL     1      31.491  -4.862 -23.644  0.00  0.00    +0.037 C 
ATOM     19  C   UNL     1      32.591  -5.701 -23.465  0.00  0.00    +0.041 C 
ATOM     20  C   UNL     1      30.507  -5.716 -21.610  0.00  0.00    +0.018 C 
ATOM     21  C   UNL     1      30.448  -4.870 -22.718  0.00  0.00    +0.004 C 
BRANCH  18  25
ATOM     22  N   UNL     1      32.193  -4.141 -25.908  0.00  0.00    -0.251 N 
ATOM     23  N   UNL     1      30.652  -2.939 -24.926  0.00  0.00    -0.131 NA
ATOM     24  N   UNL     1      30.910  -2.389 -26.167  0.00  0.00    -0.128 NA
ATOM     25  C   UNL     1      31.430  -3.988 -24.790  0.00  0.00    +0.158 C 
ATOM     26  C   UNL     1      33.179  -5.160 -26.179  0.00  0.00    +0.120 C 
ATOM     27  C   UNL     1      31.837  -3.125 -26.739  0.00  0.00    +0.192 C 
ENDBRANCH  18  25
BRANCH  17  28
ATOM     28  O   UNL     1      33.733  -7.358 -22.199  0.00  0.00    -0.474 OA
BRANCH  28  29
ATOM     29  C   UNL     1      34.165  -8.091 -23.344  0.00  0.00    +0.206 C 
ATOM     30  C   UNL     1      35.290  -7.335 -24.018  0.00  0.00    +0.051 C 
ENDBRANCH  28  29
ENDBRANCH  17  28
ENDBRANCH   4  16
BRANCH   1  31
ATOM     31  C   UNL     1      32.203 -11.849 -24.771  0.00  0.00    +0.089 C 
BRANCH  31  32
ATOM     32  C   UNL     1      33.672 -12.141 -25.151  0.00  0.00    +0.018 C 
ATOM     33  C   UNL     1      34.176 -13.417 -24.454  0.00  0.00    +0.002 C 
ATOM     34  C   UNL     1      33.747 -12.350 -26.674  0.00  0.00    +0.002 C 
ATOM     35  C   UNL     1      34.583 -10.960 -24.773  0.00  0.00    +0.002 C 
ENDBRANCH  31  32
ENDBRANCH   1  31
TORSDOF 6
ENDMDL
MODEL 9
REMARK VINA RESULT:      -5.3     11.290     15.383
REMARK  Name = 73386890
REMARK  6 active torsions:
REMARK  status: ('A' for Active; 'I' for Inactive)
REMARK    1  A    between atoms: N_1  and  C_31
REMARK    2  A    between atoms: N_4  and  C_16
REMARK    3  A    between atoms: C_17  and  O_28
REMARK    4  A    between atoms: C_18  and  C_25
REMARK    5  A    between atoms: O_28  and  C_29
REMARK    6  A    between atoms: C_31  and  C_32
REMARK                            x       y       z     vdW  Elec       q    Type
REMARK                         _______ _______ _______ _____ _____    ______ ____
ROOT
ATOM      1  N   UNL     1      32.387  -9.820 -21.013  0.00  0.00    -0.306 N 
ATOM      2  N   UNL     1      32.377  -7.561 -21.610  0.00  0.00    -0.393 NA
ATOM      3  N   UNL     1      33.566 -10.526 -23.388  0.00  0.00    -0.334 NA
ATOM      4  N   UNL     1      34.440 -12.137 -24.851  0.00  0.00    -0.244 N 
ATOM      5  N   UNL     1      34.469  -9.895 -25.531  0.00  0.00    -0.170 NA
ATOM      6  C   UNL     1      32.690  -8.837 -21.941  0.00  0.00    +0.210 C 
ATOM      7  C   UNL     1      33.284  -9.235 -23.127  0.00  0.00    +0.185 C 
ATOM      8  C   UNL     1      33.574  -8.215 -24.040  0.00  0.00    +0.039 C 
ATOM      9  C   UNL     1      32.677  -6.613 -22.522  0.00  0.00    +0.093 C 
ATOM     10  C   UNL     1      33.270  -6.880 -23.742  0.00  0.00    +0.085 C 
ATOM     11  C   UNL     1      34.143 -10.783 -24.578  0.00  0.00    +0.149 C 
ATOM     12  C   UNL     1      34.172  -8.615 -25.233  0.00  0.00    +0.111 C 
ATOM     13  C   UNL     1      32.336  -5.206 -22.164  0.00  0.00    +0.062 C 
ATOM     14  H   UNL     1      32.607 -10.753 -21.236  0.00  0.00    +0.149 HD
ATOM     15  H   UNL     1      34.861 -12.280 -25.730  0.00  0.00    +0.165 HD
ENDROOT
BRANCH   4  16
ATOM     16  C   UNL     1      34.251 -13.321 -24.115  0.00  0.00    +0.091 C 
ATOM     17  C   UNL     1      34.009 -14.531 -24.765  0.00  0.00    +0.152 C 
ATOM     18  C   UNL     1      33.879 -15.653 -22.630  0.00  0.00    +0.037 C 
ATOM     19  C   UNL     1      33.823 -15.697 -24.023  0.00  0.00    +0.041 C 
ATOM     20  C   UNL     1      34.308 -13.278 -22.722  0.00  0.00    +0.018 C 
ATOM     21  C   UNL     1      34.122 -14.444 -21.979  0.00  0.00    +0.004 C 
BRANCH  18  25
ATOM     22  N   UNL     1      34.566 -17.901 -21.847  0.00  0.00    -0.251 N 
ATOM     23  N   UNL     1      32.666 -17.130 -21.083  0.00  0.00    -0.131 NA
ATOM     24  N   UNL     1      32.879 -18.383 -20.541  0.00  0.00    -0.128 NA
ATOM     25  C   UNL     1      33.688 -16.859 -21.863  0.00  0.00    +0.158 C 
ATOM     26  C   UNL     1      35.817 -18.021 -22.557  0.00  0.00    +0.120 C 
ATOM     27  C   UNL     1      34.023 -18.827 -21.011  0.00  0.00    +0.192 C 
ENDBRANCH  18  25
BRANCH  17  28
ATOM     28  O   UNL     1      33.949 -14.594 -26.126  0.00  0.00    -0.474 OA
BRANCH  28  29
ATOM     29  C   UNL     1      32.654 -14.534 -26.721  0.00  0.00    +0.206 C 
ATOM     30  C   UNL     1      32.499 -13.206 -27.432  0.00  0.00    +0.051 C 
ENDBRANCH  28  29
ENDBRANCH  17  28
ENDBRANCH   4  16
BRANCH   1  31
ATOM     31  C   UNL     1      31.767  -9.553 -19.736  0.00  0.00    +0.089 C 
BRANCH  31  32
ATOM     32  C   UNL     1      31.175 -10.829 -19.096  0.00  0.00    +0.018 C 
ATOM     33  C   UNL     1      29.649 -10.881 -19.287  0.00  0.00    +0.002 C 
ATOM     34  C   UNL     1      31.799 -12.053 -19.790  0.00  0.00    +0.002 C 
ATOM     35  C   UNL     1      31.504 -10.895 -17.595  0.00  0.00    +0.002 C 
ENDBRANCH  31  32
ENDBRANCH   1  31
TORSDOF 6
ENDMDL
