MODEL 1
REMARK VINA RESULT:      -8.4      0.000      0.000
REMARK  Name = 3899541
REMARK  2 active torsions:
REMARK  status: ('A' for Active; 'I' for Inactive)
REMARK    1  A    between atoms: C_9  and  N_17
REMARK    2  A    between atoms: C_10  and  N_20
REMARK                            x       y       z     vdW  Elec       q    Type
REMARK                         _______ _______ _______ _____ _____    ______ ____
ROOT
ATOM      1  O   UNL     1      30.776 -22.781 -14.628  0.00  0.00    -0.262 OA
ATOM      2  O   UNL     1      31.751 -22.781 -17.090  0.00  0.00    -0.262 OA
ATOM      3  N   UNL     1      32.774 -23.557 -13.769  0.00  0.00    -0.316 N 
ATOM      4  N   UNL     1      33.795 -23.560 -16.347  0.00  0.00    -0.316 N 
ATOM      5  C   UNL     1      34.094 -23.970 -13.988  0.00  0.00    +0.077 A 
ATOM      6  C   UNL     1      34.606 -23.972 -15.283  0.00  0.00    +0.077 A 
ATOM      7  C   UNL     1      34.889 -24.378 -12.917  0.00  0.00    +0.044 C 
ATOM      8  C   UNL     1      35.919 -24.380 -15.518  0.00  0.00    +0.044 C 
ATOM      9  C   UNL     1      36.203 -24.786 -13.150  0.00  0.00    +0.167 C 
ATOM     10  C   UNL     1      36.717 -24.788 -14.448  0.00  0.00    +0.167 C 
ATOM     11  C   UNL     1      31.935 -23.145 -14.781  0.00  0.00    +0.314 A 
ATOM     12  C   UNL     1      32.492 -23.146 -16.184  0.00  0.00    +0.314 A 
ATOM     13  H   UNL     1      32.429 -23.563 -12.847  0.00  0.00    +0.169 HD
ATOM     14  H   UNL     1      34.174 -23.568 -17.254  0.00  0.00    +0.169 HD
ENDROOT
BRANCH   9  17
ATOM     15  O   UNL     1      37.607 -24.327 -11.379  0.00  0.00    -0.126 OA
ATOM     16  O   UNL     1      37.054 -26.417 -11.760  0.00  0.00    -0.126 OA
ATOM     17  N   UNL     1      36.995 -25.197 -12.041  0.00  0.00    +0.059 N 
ENDBRANCH   9  17
BRANCH  10  20
ATOM     18  O   UNL     1      38.276 -26.413 -14.946  0.00  0.00    -0.126 OA
ATOM     19  O   UNL     1      38.964 -24.342 -14.707  0.00  0.00    -0.126 OA
ATOM     20  N   UNL     1      38.053 -25.201 -14.713  0.00  0.00    +0.059 N 
ENDBRANCH  10  20
TORSDOF 2
ENDMDL
MODEL 2
REMARK VINA RESULT:      -8.4      0.067      2.714
REMARK  Name = 3899541
REMARK  2 active torsions:
REMARK  status: ('A' for Active; 'I' for Inactive)
REMARK    1  A    between atoms: C_9  and  N_17
REMARK    2  A    between atoms: C_10  and  N_20
REMARK                            x       y       z     vdW  Elec       q    Type
REMARK                         _______ _______ _______ _____ _____    ______ ____
ROOT
ATOM      1  O   UNL     1      31.787 -22.779 -17.094  0.00  0.00    -0.262 OA
ATOM      2  O   UNL     1      30.822 -22.688 -14.630  0.00  0.00    -0.262 OA
ATOM      3  N   UNL     1      33.813 -23.591 -16.338  0.00  0.00    -0.316 N 
ATOM      4  N   UNL     1      32.804 -23.493 -13.758  0.00  0.00    -0.316 N 
ATOM      5  C   UNL     1      34.619 -23.992 -15.266  0.00  0.00    +0.077 A 
ATOM      6  C   UNL     1      34.112 -23.943 -13.970  0.00  0.00    +0.077 A 
ATOM      7  C   UNL     1      35.921 -24.437 -15.494  0.00  0.00    +0.044 C 
ATOM      8  C   UNL     1      34.902 -24.339 -12.890  0.00  0.00    +0.044 C 
ATOM      9  C   UNL     1      36.714 -24.833 -14.416  0.00  0.00    +0.167 C 
ATOM     10  C   UNL     1      36.206 -24.784 -13.117  0.00  0.00    +0.167 C 
ATOM     11  C   UNL     1      32.521 -23.140 -16.182  0.00  0.00    +0.314 A 
ATOM     12  C   UNL     1      31.971 -23.088 -14.777  0.00  0.00    +0.314 A 
ATOM     13  H   UNL     1      34.189 -23.633 -17.246  0.00  0.00    +0.169 HD
ATOM     14  H   UNL     1      32.463 -23.465 -12.835  0.00  0.00    +0.169 HD
ENDROOT
BRANCH   9  17
ATOM     15  O   UNL     1      38.231 -26.502 -14.896  0.00  0.00    -0.126 OA
ATOM     16  O   UNL     1      38.972 -24.448 -14.674  0.00  0.00    -0.126 OA
ATOM     17  N   UNL     1      38.039 -25.285 -14.674  0.00  0.00    +0.059 N 
ENDBRANCH   9  17
BRANCH  10  20
ATOM     18  O   UNL     1      37.028 -26.395 -11.686  0.00  0.00    -0.126 OA
ATOM     19  O   UNL     1      37.629 -24.308 -11.366  0.00  0.00    -0.126 OA
ATOM     20  N   UNL     1      36.993 -25.182 -11.999  0.00  0.00    +0.059 N 
ENDBRANCH  10  20
TORSDOF 2
ENDMDL
MODEL 3
REMARK VINA RESULT:      -8.0      1.946      2.590
REMARK  Name = 3899541
REMARK  2 active torsions:
REMARK  status: ('A' for Active; 'I' for Inactive)
REMARK    1  A    between atoms: C_9  and  N_17
REMARK    2  A    between atoms: C_10  and  N_20
REMARK                            x       y       z     vdW  Elec       q    Type
REMARK                         _______ _______ _______ _____ _____    ______ ____
ROOT
ATOM      1  O   UNL     1      32.769 -22.979 -18.172  0.00  0.00    -0.262 OA
ATOM      2  O   UNL     1      35.029 -21.839 -18.950  0.00  0.00    -0.262 OA
ATOM      3  N   UNL     1      33.691 -23.564 -16.137  0.00  0.00    -0.316 N 
ATOM      4  N   UNL     1      36.058 -22.373 -16.952  0.00  0.00    -0.316 N 
ATOM      5  C   UNL     1      34.795 -23.563 -15.276  0.00  0.00    +0.077 A 
ATOM      6  C   UNL     1      35.984 -22.965 -15.686  0.00  0.00    +0.077 A 
ATOM      7  C   UNL     1      34.705 -24.159 -14.018  0.00  0.00    +0.044 C 
ATOM      8  C   UNL     1      37.093 -22.956 -14.840  0.00  0.00    +0.044 C 
ATOM      9  C   UNL     1      35.814 -24.152 -13.171  0.00  0.00    +0.167 C 
ATOM     10  C   UNL     1      37.006 -23.552 -13.581  0.00  0.00    +0.167 C 
ATOM     11  C   UNL     1      33.712 -22.996 -17.391  0.00  0.00    +0.314 A 
ATOM     12  C   UNL     1      35.001 -22.346 -17.835  0.00  0.00    +0.314 A 
ATOM     13  H   UNL     1      32.859 -23.991 -15.830  0.00  0.00    +0.169 HD
ATOM     14  H   UNL     1      36.906 -21.955 -17.223  0.00  0.00    +0.169 HD
ENDROOT
BRANCH   9  17
ATOM     15  O   UNL     1      36.341 -25.815 -11.663  0.00  0.00    -0.126 OA
ATOM     16  O   UNL     1      34.956 -24.233 -11.032  0.00  0.00    -0.126 OA
ATOM     17  N   UNL     1      35.697 -24.765 -11.891  0.00  0.00    +0.059 N 
ENDBRANCH   9  17
BRANCH  10  20
ATOM     18  O   UNL     1      39.059 -24.374 -12.929  0.00  0.00    -0.126 OA
ATOM     19  O   UNL     1      38.218 -22.670 -11.829  0.00  0.00    -0.126 OA
ATOM     20  N   UNL     1      38.151 -23.531 -12.736  0.00  0.00    +0.059 N 
ENDBRANCH  10  20
TORSDOF 2
ENDMDL
MODEL 4
REMARK VINA RESULT:      -8.0      1.987      3.313
REMARK  Name = 3899541
REMARK  2 active torsions:
REMARK  status: ('A' for Active; 'I' for Inactive)
REMARK    1  A    between atoms: C_9  and  N_17
REMARK    2  A    between atoms: C_10  and  N_20
REMARK                            x       y       z     vdW  Elec       q    Type
REMARK                         _______ _______ _______ _____ _____    ______ ____
ROOT
ATOM      1  O   UNL     1      35.161 -21.887 -18.937  0.00  0.00    -0.262 OA
ATOM      2  O   UNL     1      32.886 -23.016 -18.189  0.00  0.00    -0.262 OA
ATOM      3  N   UNL     1      36.158 -22.414 -16.922  0.00  0.00    -0.316 N 
ATOM      4  N   UNL     1      33.775 -23.593 -16.136  0.00  0.00    -0.316 N 
ATOM      5  C   UNL     1      36.062 -22.997 -15.653  0.00  0.00    +0.077 A 
ATOM      6  C   UNL     1      34.865 -23.589 -15.258  0.00  0.00    +0.077 A 
ATOM      7  C   UNL     1      37.158 -22.984 -14.789  0.00  0.00    +0.044 C 
ATOM      8  C   UNL     1      34.753 -24.175 -13.997  0.00  0.00    +0.044 C 
ATOM      9  C   UNL     1      37.048 -23.570 -13.527  0.00  0.00    +0.167 C 
ATOM     10  C   UNL     1      35.848 -24.163 -13.132  0.00  0.00    +0.167 C 
ATOM     11  C   UNL     1      35.116 -22.390 -17.821  0.00  0.00    +0.314 A 
ATOM     12  C   UNL     1      33.818 -23.033 -17.394  0.00  0.00    +0.314 A 
ATOM     13  H   UNL     1      37.012 -22.000 -17.183  0.00  0.00    +0.169 HD
ATOM     14  H   UNL     1      32.938 -24.016 -15.840  0.00  0.00    +0.169 HD
ENDROOT
BRANCH   9  17
ATOM     15  O   UNL     1      39.066 -24.419 -12.803  0.00  0.00    -0.126 OA
ATOM     16  O   UNL     1      38.255 -22.647 -11.793  0.00  0.00    -0.126 OA
ATOM     17  N   UNL     1      38.180 -23.545 -12.664  0.00  0.00    +0.059 N 
ENDBRANCH   9  17
BRANCH  10  20
ATOM     18  O   UNL     1      36.341 -25.821 -11.607  0.00  0.00    -0.126 OA
ATOM     19  O   UNL     1      34.962 -24.224 -11.004  0.00  0.00    -0.126 OA
ATOM     20  N   UNL     1      35.709 -24.767 -11.849  0.00  0.00    +0.059 N 
ENDBRANCH  10  20
TORSDOF 2
ENDMDL
MODEL 5
REMARK VINA RESULT:      -7.9      2.356      3.077
REMARK  Name = 3899541
REMARK  2 active torsions:
REMARK  status: ('A' for Active; 'I' for Inactive)
REMARK    1  A    between atoms: C_9  and  N_17
REMARK    2  A    between atoms: C_10  and  N_20
REMARK                            x       y       z     vdW  Elec       q    Type
REMARK                         _______ _______ _______ _____ _____    ______ ____
ROOT
ATOM      1  O   UNL     1      33.327 -22.625 -18.975  0.00  0.00    -0.262 OA
ATOM      2  O   UNL     1      35.697 -21.559 -19.486  0.00  0.00    -0.262 OA
ATOM      3  N   UNL     1      33.988 -23.227 -16.846  0.00  0.00    -0.316 N 
ATOM      4  N   UNL     1      36.470 -22.114 -17.382  0.00  0.00    -0.316 N 
ATOM      5  C   UNL     1      34.984 -23.256 -15.863  0.00  0.00    +0.077 A 
ATOM      6  C   UNL     1      36.231 -22.697 -16.132  0.00  0.00    +0.077 A 
ATOM      7  C   UNL     1      34.730 -23.843 -14.623  0.00  0.00    +0.044 C 
ATOM      8  C   UNL     1      37.234 -22.718 -15.163  0.00  0.00    +0.044 C 
ATOM      9  C   UNL     1      35.733 -23.865 -13.652  0.00  0.00    +0.167 C 
ATOM     10  C   UNL     1      36.982 -23.304 -13.922  0.00  0.00    +0.167 C 
ATOM     11  C   UNL     1      34.173 -22.667 -18.090  0.00  0.00    +0.314 A 
ATOM     12  C   UNL     1      35.524 -22.059 -18.382  0.00  0.00    +0.314 A 
ATOM     13  H   UNL     1      33.114 -23.627 -16.637  0.00  0.00    +0.169 HD
ATOM     14  H   UNL     1      37.357 -21.724 -17.554  0.00  0.00    +0.169 HD
ENDROOT
BRANCH   9  17
ATOM     15  O   UNL     1      34.640 -23.904 -11.621  0.00  0.00    -0.126 OA
ATOM     16  O   UNL     1      36.017 -25.545 -12.099  0.00  0.00    -0.126 OA
ATOM     17  N   UNL     1      35.449 -24.468 -12.394  0.00  0.00    +0.059 N 
ENDBRANCH   9  17
BRANCH  10  20
ATOM     18  O   UNL     1      38.035 -22.422 -12.069  0.00  0.00    -0.126 OA
ATOM     19  O   UNL     1      38.890 -24.216 -13.003  0.00  0.00    -0.126 OA
ATOM     20  N   UNL     1      38.023 -23.315 -12.950  0.00  0.00    +0.059 N 
ENDBRANCH  10  20
TORSDOF 2
ENDMDL
MODEL 6
REMARK VINA RESULT:      -7.7      3.275      4.102
REMARK  Name = 3899541
REMARK  2 active torsions:
REMARK  status: ('A' for Active; 'I' for Inactive)
REMARK    1  A    between atoms: C_9  and  N_17
REMARK    2  A    between atoms: C_10  and  N_20
REMARK                            x       y       z     vdW  Elec       q    Type
REMARK                         _______ _______ _______ _____ _____    ______ ____
ROOT
ATOM      1  O   UNL     1      32.723 -21.080 -20.563  0.00  0.00    -0.262 OA
ATOM      2  O   UNL     1      35.094 -19.972 -20.966  0.00  0.00    -0.262 OA
ATOM      3  N   UNL     1      33.481 -22.161 -18.668  0.00  0.00    -0.316 N 
ATOM      4  N   UNL     1      35.964 -21.005 -19.092  0.00  0.00    -0.316 N 
ATOM      5  C   UNL     1      34.529 -22.432 -17.780  0.00  0.00    +0.077 A 
ATOM      6  C   UNL     1      35.776 -21.851 -17.993  0.00  0.00    +0.077 A 
ATOM      7  C   UNL     1      34.324 -23.279 -16.691  0.00  0.00    +0.044 C 
ATOM      8  C   UNL     1      36.830 -22.111 -17.118  0.00  0.00    +0.044 C 
ATOM      9  C   UNL     1      35.378 -23.540 -15.813  0.00  0.00    +0.167 C 
ATOM     10  C   UNL     1      36.628 -22.958 -16.027  0.00  0.00    +0.167 C 
ATOM     11  C   UNL     1      33.615 -21.338 -19.764  0.00  0.00    +0.314 A 
ATOM     12  C   UNL     1      34.967 -20.707 -19.994  0.00  0.00    +0.314 A 
ATOM     13  H   UNL     1      32.606 -22.581 -18.502  0.00  0.00    +0.169 HD
ATOM     14  H   UNL     1      36.853 -20.604 -19.226  0.00  0.00    +0.169 HD
ENDROOT
BRANCH   9  17
ATOM     15  O   UNL     1      34.550 -23.957 -13.702  0.00  0.00    -0.126 OA
ATOM     16  O   UNL     1      35.541 -25.593 -14.778  0.00  0.00    -0.126 OA
ATOM     17  N   UNL     1      35.145 -24.407 -14.708  0.00  0.00    +0.059 N 
ENDBRANCH   9  17
BRANCH  10  20
ATOM     18  O   UNL     1      38.731 -23.800 -15.594  0.00  0.00    -0.126 OA
ATOM     19  O   UNL     1      37.637 -22.829 -13.957  0.00  0.00    -0.126 OA
ATOM     20  N   UNL     1      37.720 -23.208 -15.148  0.00  0.00    +0.059 N 
ENDBRANCH  10  20
TORSDOF 2
ENDMDL
MODEL 7
REMARK VINA RESULT:      -7.6      3.081      4.335
REMARK  Name = 3899541
REMARK  2 active torsions:
REMARK  status: ('A' for Active; 'I' for Inactive)
REMARK    1  A    between atoms: C_9  and  N_17
REMARK    2  A    between atoms: C_10  and  N_20
REMARK                            x       y       z     vdW  Elec       q    Type
REMARK                         _______ _______ _______ _____ _____    ______ ____
ROOT
ATOM      1  O   UNL     1      34.965 -20.248 -20.813  0.00  0.00    -0.262 OA
ATOM      2  O   UNL     1      32.633 -21.413 -20.350  0.00  0.00    -0.262 OA
ATOM      3  N   UNL     1      35.890 -21.210 -18.928  0.00  0.00    -0.316 N 
ATOM      4  N   UNL     1      33.448 -22.428 -18.442  0.00  0.00    -0.316 N 
ATOM      5  C   UNL     1      35.741 -22.033 -17.806  0.00  0.00    +0.077 A 
ATOM      6  C   UNL     1      34.515 -22.645 -17.562  0.00  0.00    +0.077 A 
ATOM      7  C   UNL     1      36.814 -22.239 -16.938  0.00  0.00    +0.044 C 
ATOM      8  C   UNL     1      34.349 -23.469 -16.448  0.00  0.00    +0.044 C 
ATOM      9  C   UNL     1      36.651 -23.062 -15.823  0.00  0.00    +0.167 C 
ATOM     10  C   UNL     1      35.421 -23.676 -15.578  0.00  0.00    +0.167 C 
ATOM     11  C   UNL     1      34.873 -20.963 -19.823  0.00  0.00    +0.314 A 
ATOM     12  C   UNL     1      33.543 -21.628 -19.559  0.00  0.00    +0.314 A 
ATOM     13  H   UNL     1      36.765 -20.786 -19.084  0.00  0.00    +0.169 HD
ATOM     14  H   UNL     1      32.589 -22.869 -18.253  0.00  0.00    +0.169 HD
ENDROOT
BRANCH   9  17
ATOM     15  O   UNL     1      38.750 -23.903 -15.369  0.00  0.00    -0.126 OA
ATOM     16  O   UNL     1      37.712 -22.776 -13.797  0.00  0.00    -0.126 OA
ATOM     17  N   UNL     1      37.760 -23.258 -14.952  0.00  0.00    +0.059 N 
ENDBRANCH   9  17
BRANCH  10  20
ATOM     18  O   UNL     1      34.600 -24.071 -13.460  0.00  0.00    -0.126 OA
ATOM     19  O   UNL     1      35.688 -25.683 -14.477  0.00  0.00    -0.126 OA
ATOM     20  N   UNL     1      35.228 -24.519 -14.448  0.00  0.00    +0.059 N 
ENDBRANCH  10  20
TORSDOF 2
ENDMDL
MODEL 8
REMARK VINA RESULT:      -7.6      2.422      5.590
REMARK  Name = 3899541
REMARK  2 active torsions:
REMARK  status: ('A' for Active; 'I' for Inactive)
REMARK    1  A    between atoms: C_9  and  N_17
REMARK    2  A    between atoms: C_10  and  N_20
REMARK                            x       y       z     vdW  Elec       q    Type
REMARK                         _______ _______ _______ _____ _____    ______ ____
ROOT
ATOM      1  O   UNL     1      37.441 -23.794 -11.287  0.00  0.00    -0.262 OA
ATOM      2  O   UNL     1      35.097 -25.015 -11.117  0.00  0.00    -0.262 OA
ATOM      3  N   UNL     1      37.023 -23.161 -13.469  0.00  0.00    -0.316 N 
ATOM      4  N   UNL     1      34.571 -24.442 -13.292  0.00  0.00    -0.316 N 
ATOM      5  C   UNL     1      36.165 -23.163 -14.574  0.00  0.00    +0.077 A 
ATOM      6  C   UNL     1      34.933 -23.806 -14.486  0.00  0.00    +0.077 A 
ATOM      7  C   UNL     1      36.541 -22.526 -15.757  0.00  0.00    +0.044 C 
ATOM      8  C   UNL     1      34.066 -23.818 -15.578  0.00  0.00    +0.044 C 
ATOM      9  C   UNL     1      35.675 -22.535 -16.851  0.00  0.00    +0.167 C 
ATOM     10  C   UNL     1      34.440 -23.181 -16.762  0.00  0.00    +0.167 C 
ATOM     11  C   UNL     1      36.715 -23.772 -12.274  0.00  0.00    +0.314 A 
ATOM     12  C   UNL     1      35.379 -24.469 -12.177  0.00  0.00    +0.314 A 
ATOM     13  H   UNL     1      37.889 -22.701 -13.550  0.00  0.00    +0.169 HD
ATOM     14  H   UNL     1      33.697 -24.892 -13.248  0.00  0.00    +0.169 HD
ENDROOT
BRANCH   9  17
ATOM     15  O   UNL     1      36.833 -20.879 -17.962  0.00  0.00    -0.126 OA
ATOM     16  O   UNL     1      35.674 -22.319 -19.146  0.00  0.00    -0.126 OA
ATOM     17  N   UNL     1      36.080 -21.877 -18.047  0.00  0.00    +0.059 N 
ENDBRANCH   9  17
BRANCH  10  20
ATOM     18  O   UNL     1      32.671 -22.306 -17.955  0.00  0.00    -0.126 OA
ATOM     19  O   UNL     1      33.642 -24.125 -18.708  0.00  0.00    -0.126 OA
ATOM     20  N   UNL     1      33.539 -23.206 -17.864  0.00  0.00    +0.059 N 
ENDBRANCH  10  20
TORSDOF 2
ENDMDL
MODEL 9
REMARK VINA RESULT:      -7.6      1.678      6.050
REMARK  Name = 3899541
REMARK  2 active torsions:
REMARK  status: ('A' for Active; 'I' for Inactive)
REMARK    1  A    between atoms: C_9  and  N_17
REMARK    2  A    between atoms: C_10  and  N_20
REMARK                            x       y       z     vdW  Elec       q    Type
REMARK                         _______ _______ _______ _____ _____    ______ ____
ROOT
ATOM      1  O   UNL     1      38.502 -23.814 -12.831  0.00  0.00    -0.262 OA
ATOM      2  O   UNL     1      36.782 -24.219 -10.858  0.00  0.00    -0.262 OA
ATOM      3  N   UNL     1      36.788 -23.615 -14.367  0.00  0.00    -0.316 N 
ATOM      4  N   UNL     1      34.988 -24.042 -12.302  0.00  0.00    -0.316 N 
ATOM      5  C   UNL     1      35.415 -23.623 -14.639  0.00  0.00    +0.077 A 
ATOM      6  C   UNL     1      34.511 -23.837 -13.602  0.00  0.00    +0.077 A 
ATOM      7  C   UNL     1      34.956 -23.419 -15.941  0.00  0.00    +0.044 C 
ATOM      8  C   UNL     1      33.140 -23.849 -13.857  0.00  0.00    +0.044 C 
ATOM      9  C   UNL     1      33.585 -23.429 -16.198  0.00  0.00    +0.167 C 
ATOM     10  C   UNL     1      32.678 -23.644 -15.158  0.00  0.00    +0.167 C 
ATOM     11  C   UNL     1      37.308 -23.811 -13.107  0.00  0.00    +0.314 A 
ATOM     12  C   UNL     1      36.328 -24.043 -11.982  0.00  0.00    +0.314 A 
ATOM     13  H   UNL     1      37.412 -23.461 -15.112  0.00  0.00    +0.169 HD
ATOM     14  H   UNL     1      34.334 -24.191 -11.582  0.00  0.00    +0.169 HD
ENDROOT
BRANCH   9  17
ATOM     15  O   UNL     1      32.298 -22.317 -17.755  0.00  0.00    -0.126 OA
ATOM     16  O   UNL     1      33.608 -23.938 -18.446  0.00  0.00    -0.126 OA
ATOM     17  N   UNL     1      33.140 -23.218 -17.534  0.00  0.00    +0.059 N 
ENDBRANCH   9  17
BRANCH  10  20
ATOM     18  O   UNL     1      30.756 -24.693 -15.883  0.00  0.00    -0.126 OA
ATOM     19  O   UNL     1      30.600 -22.647 -15.102  0.00  0.00    -0.126 OA
ATOM     20  N   UNL     1      31.274 -23.661 -15.393  0.00  0.00    +0.059 N 
ENDBRANCH  10  20
TORSDOF 2
ENDMDL
