MODEL 1
REMARK VINA RESULT:      -7.7      0.000      0.000
REMARK  Name = 5360788
REMARK  5 active torsions:
REMARK  status: ('A' for Active; 'I' for Inactive)
REMARK    1  A    between atoms: N_2  and  N_7
REMARK    2  A    between atoms: C_5  and  N_13
REMARK    3  A    between atoms: N_13  and  C_14
REMARK    4  A    between atoms: C_14  and  O_15
REMARK    5  A    between atoms: O_15  and  C_16
REMARK                            x       y       z     vdW  Elec       q    Type
REMARK                         _______ _______ _______ _____ _____    ______ ____
ROOT
ATOM      1  O   UNL     1      35.036 -20.681 -19.743  0.00  0.00    -0.346 OA
ATOM      2  N   UNL     1      34.304 -19.147 -21.043  0.00  0.00    -0.136 N 
ATOM      3  N   UNL     1      35.425 -19.560 -20.499  0.00  0.00    +0.090 NA
ATOM      4  C   UNL     1      33.201 -19.888 -20.722  0.00  0.00    +0.157 C 
ATOM      5  C   UNL     1      33.684 -20.863 -19.892  0.00  0.00    +0.265 C 
ENDROOT
BRANCH   2   7
ATOM      6  O   UNL     1      35.372 -15.806 -23.398  0.00  0.00    -0.351 OA
ATOM      7  N   UNL     1      34.256 -17.967 -21.935  0.00  0.00    -0.182 NA
ATOM      8  C   UNL     1      35.011 -18.195 -23.172  0.00  0.00    +0.126 C 
ATOM      9  C   UNL     1      34.742 -16.760 -21.258  0.00  0.00    +0.126 C 
ATOM     10  C   UNL     1      34.891 -16.969 -24.074  0.00  0.00    +0.161 C 
ATOM     11  C   UNL     1      34.628 -15.567 -22.202  0.00  0.00    +0.161 C 
ENDBRANCH   2   7
BRANCH   5  12
ATOM     12  N   UNL     1      33.044 -21.876 -19.268  0.00  0.00    -0.104 NA
BRANCH  12  14
ATOM     13  O   UNL     1      34.098 -23.943 -19.678  0.00  0.00    -0.224 OA
ATOM     14  C   UNL     1      33.719 -22.968 -19.002  0.00  0.00    +0.428 C 
BRANCH  14  15
ATOM     15  O   UNL     1      34.163 -23.204 -17.726  0.00  0.00    -0.433 OA
BRANCH  15  16
ATOM     16  C   UNL     1      33.194 -23.297 -16.669  0.00  0.00    +0.210 C 
ATOM     17  C   UNL     1      33.916 -23.521 -15.356  0.00  0.00    +0.051 C 
ENDBRANCH  15  16
ENDBRANCH  14  15
ENDBRANCH  12  14
ENDBRANCH   5  12
TORSDOF 5
ENDMDL
MODEL 2
REMARK VINA RESULT:      -7.5      3.908      8.663
REMARK  Name = 5360788
REMARK  5 active torsions:
REMARK  status: ('A' for Active; 'I' for Inactive)
REMARK    1  A    between atoms: N_2  and  N_7
REMARK    2  A    between atoms: C_5  and  N_13
REMARK    3  A    between atoms: N_13  and  C_14
REMARK    4  A    between atoms: C_14  and  O_15
REMARK    5  A    between atoms: O_15  and  C_16
REMARK                            x       y       z     vdW  Elec       q    Type
REMARK                         _______ _______ _______ _____ _____    ______ ____
ROOT
ATOM      1  O   UNL     1      35.569 -22.824 -17.018  0.00  0.00    -0.346 OA
ATOM      2  N   UNL     1      35.823 -23.684 -15.075  0.00  0.00    -0.136 N 
ATOM      3  N   UNL     1      36.525 -23.116 -16.028  0.00  0.00    +0.090 NA
ATOM      4  C   UNL     1      34.486 -23.799 -15.335  0.00  0.00    +0.157 C 
ATOM      5  C   UNL     1      34.340 -23.247 -16.579  0.00  0.00    +0.265 C 
ENDROOT
BRANCH   2   7
ATOM      6  O   UNL     1      36.582 -25.696 -11.438  0.00  0.00    -0.351 OA
ATOM      7  N   UNL     1      36.449 -24.158 -13.820  0.00  0.00    -0.182 NA
ATOM      8  C   UNL     1      36.709 -25.601 -13.860  0.00  0.00    +0.126 C 
ATOM      9  C   UNL     1      35.631 -23.822 -12.650  0.00  0.00    +0.126 C 
ATOM     10  C   UNL     1      37.395 -26.029 -12.565  0.00  0.00    +0.161 C 
ATOM     11  C   UNL     1      36.340 -24.289 -11.383  0.00  0.00    +0.161 C 
ENDBRANCH   2   7
BRANCH   5  12
ATOM     12  N   UNL     1      33.235 -23.088 -17.340  0.00  0.00    -0.104 NA
BRANCH  12  14
ATOM     13  O   UNL     1      33.972 -23.589 -19.521  0.00  0.00    -0.224 OA
ATOM     14  C   UNL     1      33.387 -22.940 -18.634  0.00  0.00    +0.428 C 
BRANCH  14  15
ATOM     15  O   UNL     1      32.821 -21.866 -19.271  0.00  0.00    -0.433 OA
BRANCH  15  16
ATOM     16  C   UNL     1      33.685 -20.918 -19.918  0.00  0.00    +0.210 C 
ATOM     17  C   UNL     1      32.840 -19.930 -20.695  0.00  0.00    +0.051 C 
ENDBRANCH  15  16
ENDBRANCH  14  15
ENDBRANCH  12  14
ENDBRANCH   5  12
TORSDOF 5
ENDMDL
MODEL 3
REMARK VINA RESULT:      -7.4      1.896      6.881
REMARK  Name = 5360788
REMARK  5 active torsions:
REMARK  status: ('A' for Active; 'I' for Inactive)
REMARK    1  A    between atoms: N_2  and  N_7
REMARK    2  A    between atoms: C_5  and  N_13
REMARK    3  A    between atoms: N_13  and  C_14
REMARK    4  A    between atoms: C_14  and  O_15
REMARK    5  A    between atoms: O_15  and  C_16
REMARK                            x       y       z     vdW  Elec       q    Type
REMARK                         _______ _______ _______ _____ _____    ______ ____
ROOT
ATOM      1  O   UNL     1      34.678 -18.206 -23.375  0.00  0.00    -0.346 OA
ATOM      2  N   UNL     1      34.891 -18.997 -21.399  0.00  0.00    -0.136 N 
ATOM      3  N   UNL     1      34.541 -19.375 -22.606  0.00  0.00    +0.090 NA
ATOM      4  C   UNL     1      35.250 -17.682 -21.289  0.00  0.00    +0.157 C 
ATOM      5  C   UNL     1      35.109 -17.191 -22.558  0.00  0.00    +0.265 C 
ENDROOT
BRANCH   2   7
ATOM      6  O   UNL     1      34.986 -22.494 -19.031  0.00  0.00    -0.351 OA
ATOM      7  N   UNL     1      34.890 -19.935 -20.254  0.00  0.00    -0.182 NA
ATOM      8  C   UNL     1      36.142 -20.697 -20.182  0.00  0.00    +0.126 C 
ATOM      9  C   UNL     1      33.743 -20.847 -20.305  0.00  0.00    +0.126 C 
ATOM     10  C   UNL     1      36.109 -21.613 -18.961  0.00  0.00    +0.161 C 
ATOM     11  C   UNL     1      33.763 -21.758 -19.082  0.00  0.00    +0.161 C 
ENDBRANCH   2   7
BRANCH   5  12
ATOM     12  N   UNL     1      35.324 -15.949 -23.044  0.00  0.00    -0.104 NA
BRANCH  12  14
ATOM     13  O   UNL     1      33.445 -15.127 -24.203  0.00  0.00    -0.224 OA
ATOM     14  C   UNL     1      34.285 -15.186 -23.286  0.00  0.00    +0.428 C 
BRANCH  14  15
ATOM     15  O   UNL     1      33.944 -14.194 -22.404  0.00  0.00    -0.433 OA
BRANCH  15  16
ATOM     16  C   UNL     1      32.658 -14.254 -21.766  0.00  0.00    +0.210 C 
ATOM     17  C   UNL     1      32.794 -14.988 -20.449  0.00  0.00    +0.051 C 
ENDBRANCH  15  16
ENDBRANCH  14  15
ENDBRANCH  12  14
ENDBRANCH   5  12
TORSDOF 5
ENDMDL
MODEL 4
REMARK VINA RESULT:      -7.3      2.910      4.022
REMARK  Name = 5360788
REMARK  5 active torsions:
REMARK  status: ('A' for Active; 'I' for Inactive)
REMARK    1  A    between atoms: N_2  and  N_7
REMARK    2  A    between atoms: C_5  and  N_13
REMARK    3  A    between atoms: N_13  and  C_14
REMARK    4  A    between atoms: C_14  and  O_15
REMARK    5  A    between atoms: O_15  and  C_16
REMARK                            x       y       z     vdW  Elec       q    Type
REMARK                         _______ _______ _______ _____ _____    ______ ____
ROOT
ATOM      1  O   UNL     1      35.308 -16.983 -20.498  0.00  0.00    -0.346 OA
ATOM      2  N   UNL     1      34.502 -16.212 -22.323  0.00  0.00    -0.136 N 
ATOM      3  N   UNL     1      34.484 -15.977 -21.032  0.00  0.00    +0.090 NA
ATOM      4  C   UNL     1      35.262 -17.283 -22.703  0.00  0.00    +0.157 C 
ATOM      5  C   UNL     1      35.770 -17.765 -21.528  0.00  0.00    +0.265 C 
ENDROOT
BRANCH   2   7
ATOM      6  O   UNL     1      33.481 -13.573 -25.460  0.00  0.00    -0.351 OA
ATOM      7  N   UNL     1      33.749 -15.371 -23.282  0.00  0.00    -0.182 NA
ATOM      8  C   UNL     1      33.955 -15.816 -24.665  0.00  0.00    +0.126 C 
ATOM      9  C   UNL     1      34.099 -13.954 -23.146  0.00  0.00    +0.126 C 
ATOM     10  C   UNL     1      33.123 -14.948 -25.606  0.00  0.00    +0.161 C 
ATOM     11  C   UNL     1      33.264 -13.129 -24.120  0.00  0.00    +0.161 C 
ENDBRANCH   2   7
BRANCH   5  12
ATOM     12  N   UNL     1      36.588 -18.814 -21.294  0.00  0.00    -0.104 NA
BRANCH  12  14
ATOM     13  O   UNL     1      36.475 -20.326 -19.491  0.00  0.00    -0.224 OA
ATOM     14  C   UNL     1      36.134 -19.809 -20.571  0.00  0.00    +0.428 C 
BRANCH  14  15
ATOM     15  O   UNL     1      35.041 -20.520 -20.996  0.00  0.00    -0.433 OA
BRANCH  15  16
ATOM     16  C   UNL     1      33.963 -20.738 -20.071  0.00  0.00    +0.210 C 
ATOM     17  C   UNL     1      32.766 -19.919 -20.507  0.00  0.00    +0.051 C 
ENDBRANCH  15  16
ENDBRANCH  14  15
ENDBRANCH  12  14
ENDBRANCH   5  12
TORSDOF 5
ENDMDL
MODEL 5
REMARK VINA RESULT:      -7.3      2.223      7.696
REMARK  Name = 5360788
REMARK  5 active torsions:
REMARK  status: ('A' for Active; 'I' for Inactive)
REMARK    1  A    between atoms: N_2  and  N_7
REMARK    2  A    between atoms: C_5  and  N_13
REMARK    3  A    between atoms: N_13  and  C_14
REMARK    4  A    between atoms: C_14  and  O_15
REMARK    5  A    between atoms: O_15  and  C_16
REMARK                            x       y       z     vdW  Elec       q    Type
REMARK                         _______ _______ _______ _____ _____    ______ ____
ROOT
ATOM      1  O   UNL     1      35.339 -16.733 -22.378  0.00  0.00    -0.346 OA
ATOM      2  N   UNL     1      34.948 -18.603 -21.416  0.00  0.00    -0.136 N 
ATOM      3  N   UNL     1      35.380 -17.396 -21.138  0.00  0.00    +0.090 NA
ATOM      4  C   UNL     1      34.621 -18.810 -22.727  0.00  0.00    +0.157 C 
ATOM      5  C   UNL     1      34.876 -17.608 -23.328  0.00  0.00    +0.265 C 
ENDROOT
BRANCH   2   7
ATOM      6  O   UNL     1      34.612 -22.317 -19.429  0.00  0.00    -0.351 OA
ATOM      7  N   UNL     1      34.829 -19.650 -20.376  0.00  0.00    -0.182 NA
ATOM      8  C   UNL     1      35.980 -20.560 -20.394  0.00  0.00    +0.126 C 
ATOM      9  C   UNL     1      33.581 -20.407 -20.513  0.00  0.00    +0.126 C 
ATOM     10  C   UNL     1      35.832 -21.588 -19.276  0.00  0.00    +0.161 C 
ATOM     11  C   UNL     1      33.486 -21.438 -19.392  0.00  0.00    +0.161 C 
ENDBRANCH   2   7
BRANCH   5  12
ATOM     12  N   UNL     1      34.738 -17.228 -24.617  0.00  0.00    -0.104 NA
BRANCH  12  14
ATOM     13  O   UNL     1      33.425 -15.322 -24.178  0.00  0.00    -0.224 OA
ATOM     14  C   UNL     1      34.055 -16.139 -24.875  0.00  0.00    +0.428 C 
BRANCH  14  15
ATOM     15  O   UNL     1      33.934 -15.698 -26.168  0.00  0.00    -0.433 OA
BRANCH  15  16
ATOM     16  C   UNL     1      32.854 -14.807 -26.491  0.00  0.00    +0.210 C 
ATOM     17  C   UNL     1      33.414 -13.587 -27.192  0.00  0.00    +0.051 C 
ENDBRANCH  15  16
ENDBRANCH  14  15
ENDBRANCH  12  14
ENDBRANCH   5  12
TORSDOF 5
ENDMDL
MODEL 6
REMARK VINA RESULT:      -7.2      6.571      8.352
REMARK  Name = 5360788
REMARK  5 active torsions:
REMARK  status: ('A' for Active; 'I' for Inactive)
REMARK    1  A    between atoms: N_2  and  N_7
REMARK    2  A    between atoms: C_5  and  N_13
REMARK    3  A    between atoms: N_13  and  C_14
REMARK    4  A    between atoms: C_14  and  O_15
REMARK    5  A    between atoms: O_15  and  C_16
REMARK                            x       y       z     vdW  Elec       q    Type
REMARK                         _______ _______ _______ _____ _____    ______ ____
ROOT
ATOM      1  O   UNL     1      35.653 -23.995 -16.222  0.00  0.00    -0.346 OA
ATOM      2  N   UNL     1      33.680 -23.838 -15.410  0.00  0.00    -0.136 N 
ATOM      3  N   UNL     1      34.364 -23.490 -16.475  0.00  0.00    +0.090 NA
ATOM      4  C   UNL     1      34.390 -24.528 -14.468  0.00  0.00    +0.157 C 
ATOM      5  C   UNL     1      35.648 -24.619 -15.001  0.00  0.00    +0.265 C 
ENDROOT
BRANCH   2   7
ATOM      6  O   UNL     1      29.462 -23.877 -15.653  0.00  0.00    -0.351 OA
ATOM      7  N   UNL     1      32.247 -23.499 -15.257  0.00  0.00    -0.182 NA
ATOM      8  C   UNL     1      31.515 -24.560 -14.554  0.00  0.00    +0.126 C 
ATOM      9  C   UNL     1      31.618 -23.220 -16.552  0.00  0.00    +0.126 C 
ATOM     10  C   UNL     1      30.057 -24.141 -14.381  0.00  0.00    +0.161 C 
ATOM     11  C   UNL     1      30.159 -22.831 -16.334  0.00  0.00    +0.161 C 
ENDBRANCH   2   7
BRANCH   5  12
ATOM     12  N   UNL     1      36.766 -25.196 -14.508  0.00  0.00    -0.104 NA
BRANCH  12  14
ATOM     13  O   UNL     1      36.717 -27.093 -15.905  0.00  0.00    -0.224 OA
ATOM     14  C   UNL     1      37.187 -26.309 -15.060  0.00  0.00    +0.428 C 
BRANCH  14  15
ATOM     15  O   UNL     1      38.408 -26.826 -14.709  0.00  0.00    -0.433 OA
BRANCH  15  16
ATOM     16  C   UNL     1      39.337 -25.980 -14.013  0.00  0.00    +0.210 C 
ATOM     17  C   UNL     1      40.389 -25.496 -14.989  0.00  0.00    +0.051 C 
ENDBRANCH  15  16
ENDBRANCH  14  15
ENDBRANCH  12  14
ENDBRANCH   5  12
TORSDOF 5
ENDMDL
MODEL 7
REMARK VINA RESULT:      -7.2      2.560      3.819
REMARK  Name = 5360788
REMARK  5 active torsions:
REMARK  status: ('A' for Active; 'I' for Inactive)
REMARK    1  A    between atoms: N_2  and  N_7
REMARK    2  A    between atoms: C_5  and  N_13
REMARK    3  A    between atoms: N_13  and  C_14
REMARK    4  A    between atoms: C_14  and  O_15
REMARK    5  A    between atoms: O_15  and  C_16
REMARK                            x       y       z     vdW  Elec       q    Type
REMARK                         _______ _______ _______ _____ _____    ______ ____
ROOT
ATOM      1  O   UNL     1      35.285 -16.878 -20.378  0.00  0.00    -0.346 OA
ATOM      2  N   UNL     1      34.951 -16.153 -22.363  0.00  0.00    -0.136 N 
ATOM      3  N   UNL     1      34.919 -15.739 -21.119  0.00  0.00    +0.090 NA
ATOM      4  C   UNL     1      35.305 -17.464 -22.526  0.00  0.00    +0.157 C 
ATOM      5  C   UNL     1      35.515 -17.912 -21.250  0.00  0.00    +0.265 C 
ENDROOT
BRANCH   2   7
ATOM      6  O   UNL     1      32.882 -13.847 -25.235  0.00  0.00    -0.351 OA
ATOM      7  N   UNL     1      34.625 -15.256 -23.495  0.00  0.00    -0.182 NA
ATOM      8  C   UNL     1      33.902 -14.062 -23.044  0.00  0.00    +0.126 C 
ATOM      9  C   UNL     1      33.858 -15.954 -24.532  0.00  0.00    +0.126 C 
ATOM     10  C   UNL     1      33.632 -13.150 -24.238  0.00  0.00    +0.161 C 
ATOM     11  C   UNL     1      33.590 -15.001 -25.693  0.00  0.00    +0.161 C 
ENDBRANCH   2   7
BRANCH   5  12
ATOM     12  N   UNL     1      35.884 -19.132 -20.802  0.00  0.00    -0.104 NA
BRANCH  12  14
ATOM     13  O   UNL     1      33.753 -20.132 -20.910  0.00  0.00    -0.224 OA
ATOM     14  C   UNL     1      34.947 -20.022 -20.575  0.00  0.00    +0.428 C 
BRANCH  14  15
ATOM     15  O   UNL     1      35.223 -21.125 -19.809  0.00  0.00    -0.433 OA
BRANCH  15  16
ATOM     16  C   UNL     1      36.572 -21.325 -19.355  0.00  0.00    +0.210 C 
ATOM     17  C   UNL     1      36.546 -21.752 -17.902  0.00  0.00    +0.051 C 
ENDBRANCH  15  16
ENDBRANCH  14  15
ENDBRANCH  12  14
ENDBRANCH   5  12
TORSDOF 5
ENDMDL
MODEL 8
REMARK VINA RESULT:      -7.1      3.803      5.790
REMARK  Name = 5360788
REMARK  5 active torsions:
REMARK  status: ('A' for Active; 'I' for Inactive)
REMARK    1  A    between atoms: N_2  and  N_7
REMARK    2  A    between atoms: C_5  and  N_13
REMARK    3  A    between atoms: N_13  and  C_14
REMARK    4  A    between atoms: C_14  and  O_15
REMARK    5  A    between atoms: O_15  and  C_16
REMARK                            x       y       z     vdW  Elec       q    Type
REMARK                         _______ _______ _______ _____ _____    ______ ____
ROOT
ATOM      1  O   UNL     1      34.444 -16.800 -25.919  0.00  0.00    -0.346 OA
ATOM      2  N   UNL     1      33.704 -15.178 -24.736  0.00  0.00    -0.136 N 
ATOM      3  N   UNL     1      33.829 -15.536 -25.993  0.00  0.00    +0.090 NA
ATOM      4  C   UNL     1      34.178 -16.084 -23.829  0.00  0.00    +0.157 C 
ATOM      5  C   UNL     1      34.647 -17.113 -24.599  0.00  0.00    +0.265 C 
ENDROOT
BRANCH   2   7
ATOM      6  O   UNL     1      32.938 -11.451 -22.900  0.00  0.00    -0.351 OA
ATOM      7  N   UNL     1      33.093 -13.887 -24.349  0.00  0.00    -0.182 NA
ATOM      8  C   UNL     1      33.977 -12.758 -24.661  0.00  0.00    +0.126 C 
ATOM      9  C   UNL     1      32.727 -13.868 -22.929  0.00  0.00    +0.126 C 
ATOM     10  C   UNL     1      33.283 -11.451 -24.287  0.00  0.00    +0.161 C 
ATOM     11  C   UNL     1      32.061 -12.537 -22.594  0.00  0.00    +0.161 C 
ENDBRANCH   2   7
BRANCH   5  12
ATOM     12  N   UNL     1      35.227 -18.279 -24.240  0.00  0.00    -0.104 NA
BRANCH  12  14
ATOM     13  O   UNL     1      36.103 -18.386 -22.056  0.00  0.00    -0.224 OA
ATOM     14  C   UNL     1      35.276 -18.584 -22.966  0.00  0.00    +0.428 C 
BRANCH  14  15
ATOM     15  O   UNL     1      34.244 -19.277 -22.388  0.00  0.00    -0.433 OA
BRANCH  15  16
ATOM     16  C   UNL     1      34.381 -19.699 -21.022  0.00  0.00    +0.210 C 
ATOM     17  C   UNL     1      33.033 -20.168 -20.513  0.00  0.00    +0.051 C 
ENDBRANCH  15  16
ENDBRANCH  14  15
ENDBRANCH  12  14
ENDBRANCH   5  12
TORSDOF 5
ENDMDL
MODEL 9
REMARK VINA RESULT:      -7.1      7.930      9.212
REMARK  Name = 5360788
REMARK  5 active torsions:
REMARK  status: ('A' for Active; 'I' for Inactive)
REMARK    1  A    between atoms: N_2  and  N_7
REMARK    2  A    between atoms: C_5  and  N_13
REMARK    3  A    between atoms: N_13  and  C_14
REMARK    4  A    between atoms: C_14  and  O_15
REMARK    5  A    between atoms: O_15  and  C_16
REMARK                            x       y       z     vdW  Elec       q    Type
REMARK                         _______ _______ _______ _____ _____    ______ ____
ROOT
ATOM      1  O   UNL     1      34.663 -24.044 -12.408  0.00  0.00    -0.346 OA
ATOM      2  N   UNL     1      33.324 -24.284 -14.060  0.00  0.00    -0.136 N 
ATOM      3  N   UNL     1      33.313 -23.946 -12.792  0.00  0.00    +0.090 NA
ATOM      4  C   UNL     1      34.556 -24.599 -14.561  0.00  0.00    +0.157 C 
ATOM      5  C   UNL     1      35.400 -24.442 -13.495  0.00  0.00    +0.265 C 
ENDROOT
BRANCH   2   7
ATOM      6  O   UNL     1      29.335 -23.842 -15.379  0.00  0.00    -0.351 OA
ATOM      7  N   UNL     1      32.087 -24.317 -14.871  0.00  0.00    -0.182 NA
ATOM      8  C   UNL     1      31.585 -22.965 -15.144  0.00  0.00    +0.126 C 
ATOM      9  C   UNL     1      31.044 -25.126 -14.231  0.00  0.00    +0.126 C 
ATOM     10  C   UNL     1      30.339 -23.053 -16.021  0.00  0.00    +0.161 C 
ATOM     11  C   UNL     1      29.811 -25.166 -15.128  0.00  0.00    +0.161 C 
ENDBRANCH   2   7
BRANCH   5  12
ATOM     12  N   UNL     1      36.737 -24.616 -13.405  0.00  0.00    -0.104 NA
BRANCH  12  14
ATOM     13  O   UNL     1      36.944 -26.427 -11.913  0.00  0.00    -0.224 OA
ATOM     14  C   UNL     1      37.186 -25.754 -12.932  0.00  0.00    +0.428 C 
BRANCH  14  15
ATOM     15  O   UNL     1      38.139 -26.454 -13.625  0.00  0.00    -0.433 OA
BRANCH  15  16
ATOM     16  C   UNL     1      38.849 -25.786 -14.680  0.00  0.00    +0.210 C 
ATOM     17  C   UNL     1      40.326 -25.768 -14.345  0.00  0.00    +0.051 C 
ENDBRANCH  15  16
ENDBRANCH  14  15
ENDBRANCH  12  14
ENDBRANCH   5  12
TORSDOF 5
ENDMDL
