MODEL 1
REMARK VINA RESULT:      -9.1      0.000      0.000
REMARK  Name = 5468
REMARK  5 active torsions:
REMARK  status: ('A' for Active; 'I' for Inactive)
REMARK    1  A    between atoms: C_2  and  C_14
REMARK    2  A    between atoms: C_3  and  C_7
REMARK    3  A    between atoms: C_7  and  C_8
REMARK    4  A    between atoms: C_14  and  C_17
REMARK    5  A    between atoms: C_17  and  O_18
REMARK                            x       y       z     vdW  Elec       q    Type
REMARK                         _______ _______ _______ _____ _____    ______ ____
ROOT
ATOM      1  S   UNL     1      35.032 -16.444 -22.760  0.00  0.00    -0.088 S 
ATOM      2  C   UNL     1      34.425 -16.341 -24.358  0.00  0.00    +0.018 C 
ATOM      3  C   UNL     1      35.239 -18.100 -22.952  0.00  0.00    +0.068 C 
ATOM      4  C   UNL     1      34.400 -17.569 -24.981  0.00  0.00    +0.003 C 
ATOM      5  C   UNL     1      34.886 -18.608 -24.137  0.00  0.00    +0.010 C 
ENDROOT
BRANCH   3   7
ATOM      6  O   UNL     1      36.998 -18.694 -21.530  0.00  0.00    -0.286 OA
ATOM      7  C   UNL     1      35.797 -18.857 -21.790  0.00  0.00    +0.201 C 
BRANCH   7   8
ATOM      8  C   UNL     1      34.985 -19.752 -20.980  0.00  0.00    +0.039 C 
ATOM      9  C   UNL     1      35.592 -20.771 -20.246  0.00  0.00    +0.003 C 
ATOM     10  C   UNL     1      33.601 -19.590 -20.936  0.00  0.00    +0.003 C 
ATOM     11  C   UNL     1      34.813 -21.630 -19.470  0.00  0.00    +0.000 C 
ATOM     12  C   UNL     1      32.823 -20.448 -20.159  0.00  0.00    +0.000 C 
ATOM     13  C   UNL     1      33.429 -21.468 -19.426  0.00  0.00    +0.000 C 
ENDBRANCH   7   8
ENDBRANCH   3   7
BRANCH   2  14
ATOM     14  C   UNL     1      34.011 -15.027 -24.896  0.00  0.00    +0.127 C 
ATOM     15  C   UNL     1      32.957 -15.102 -26.026  0.00  0.00    +0.017 C 
BRANCH  14  17
ATOM     16  O   UNL     1      32.424 -14.262 -23.204  0.00  0.00    -0.250 OA
ATOM     17  C   UNL     1      33.466 -14.074 -23.820  0.00  0.00    +0.318 C 
BRANCH  17  18
ATOM     18  O   UNL     1      34.248 -12.983 -23.615  0.00  0.00    -0.480 OA
ATOM     19  H   UNL     1      34.648 -12.843 -22.778  0.00  0.00    +0.295 HD
ENDBRANCH  17  18
ENDBRANCH  14  17
ENDBRANCH   2  14
TORSDOF 5
ENDMDL
MODEL 2
REMARK VINA RESULT:      -9.1      5.770      9.616
REMARK  Name = 5468
REMARK  5 active torsions:
REMARK  status: ('A' for Active; 'I' for Inactive)
REMARK    1  A    between atoms: C_2  and  C_14
REMARK    2  A    between atoms: C_3  and  C_7
REMARK    3  A    between atoms: C_7  and  C_8
REMARK    4  A    between atoms: C_14  and  C_17
REMARK    5  A    between atoms: C_17  and  O_18
REMARK                            x       y       z     vdW  Elec       q    Type
REMARK                         _______ _______ _______ _____ _____    ______ ____
ROOT
ATOM      1  S   UNL     1      32.016 -23.100 -16.967  0.00  0.00    -0.088 S 
ATOM      2  C   UNL     1      32.490 -23.169 -15.323  0.00  0.00    +0.018 C 
ATOM      3  C   UNL     1      33.633 -23.073 -17.426  0.00  0.00    +0.068 C 
ATOM      4  C   UNL     1      33.860 -23.168 -15.180  0.00  0.00    +0.003 C 
ATOM      5  C   UNL     1      34.530 -23.112 -16.436  0.00  0.00    +0.010 C 
ENDROOT
BRANCH   3   7
ATOM      6  O   UNL     1      33.953 -24.084 -19.511  0.00  0.00    -0.286 OA
ATOM      7  C   UNL     1      33.925 -23.011 -18.891  0.00  0.00    +0.201 C 
BRANCH   7   8
ATOM      8  C   UNL     1      34.169 -21.756 -19.584  0.00  0.00    +0.039 C 
ATOM      9  C   UNL     1      35.476 -21.344 -19.841  0.00  0.00    +0.003 C 
ATOM     10  C   UNL     1      33.096 -20.965 -19.993  0.00  0.00    +0.003 C 
ATOM     11  C   UNL     1      35.710 -20.140 -20.506  0.00  0.00    +0.000 C 
ATOM     12  C   UNL     1      33.329 -19.762 -20.659  0.00  0.00    +0.000 C 
ATOM     13  C   UNL     1      34.637 -19.349 -20.915  0.00  0.00    +0.000 C 
ENDBRANCH   7   8
ENDBRANCH   3   7
BRANCH   2  14
ATOM     14  C   UNL     1      31.455 -23.223 -14.269  0.00  0.00    +0.127 C 
ATOM     15  C   UNL     1      30.059 -22.728 -14.716  0.00  0.00    +0.017 C 
BRANCH  14  17
ATOM     16  O   UNL     1      31.853 -25.626 -14.075  0.00  0.00    -0.250 OA
ATOM     17  C   UNL     1      31.275 -24.627 -13.667  0.00  0.00    +0.318 C 
BRANCH  17  18
ATOM     18  O   UNL     1      30.395 -24.664 -12.632  0.00  0.00    -0.480 OA
ATOM     19  H   UNL     1      29.572 -24.221 -12.699  0.00  0.00    +0.295 HD
ENDBRANCH  17  18
ENDBRANCH  14  17
ENDBRANCH   2  14
TORSDOF 5
ENDMDL
MODEL 3
REMARK VINA RESULT:      -8.9      1.692      2.319
REMARK  Name = 5468
REMARK  5 active torsions:
REMARK  status: ('A' for Active; 'I' for Inactive)
REMARK    1  A    between atoms: C_2  and  C_14
REMARK    2  A    between atoms: C_3  and  C_7
REMARK    3  A    between atoms: C_7  and  C_8
REMARK    4  A    between atoms: C_14  and  C_17
REMARK    5  A    between atoms: C_17  and  O_18
REMARK                            x       y       z     vdW  Elec       q    Type
REMARK                         _______ _______ _______ _____ _____    ______ ____
ROOT
ATOM      1  S   UNL     1      33.977 -16.183 -23.152  0.00  0.00    -0.088 S 
ATOM      2  C   UNL     1      33.492 -14.754 -22.342  0.00  0.00    +0.018 C 
ATOM      3  C   UNL     1      34.732 -16.715 -21.748  0.00  0.00    +0.068 C 
ATOM      4  C   UNL     1      33.920 -14.731 -21.033  0.00  0.00    +0.003 C 
ATOM      5  C   UNL     1      34.656 -15.902 -20.690  0.00  0.00    +0.010 C 
ENDROOT
BRANCH   3   7
ATOM      6  O   UNL     1      36.426 -18.133 -22.515  0.00  0.00    -0.286 OA
ATOM      7  C   UNL     1      35.415 -18.043 -21.803  0.00  0.00    +0.201 C 
BRANCH   7   8
ATOM      8  C   UNL     1      34.935 -19.198 -21.061  0.00  0.00    +0.039 C 
ATOM      9  C   UNL     1      35.844 -20.094 -20.499  0.00  0.00    +0.003 C 
ATOM     10  C   UNL     1      33.564 -19.409 -20.910  0.00  0.00    +0.003 C 
ATOM     11  C   UNL     1      35.383 -21.201 -19.787  0.00  0.00    +0.000 C 
ATOM     12  C   UNL     1      33.104 -20.517 -20.198  0.00  0.00    +0.000 C 
ATOM     13  C   UNL     1      34.013 -21.412 -19.636  0.00  0.00    +0.000 C 
ENDBRANCH   7   8
ENDBRANCH   3   7
BRANCH   2  14
ATOM     14  C   UNL     1      32.702 -13.737 -23.070  0.00  0.00    +0.127 C 
ATOM     15  C   UNL     1      32.174 -12.583 -22.185  0.00  0.00    +0.017 C 
BRANCH  14  17
ATOM     16  O   UNL     1      33.368 -13.484 -25.406  0.00  0.00    -0.250 OA
ATOM     17  C   UNL     1      33.464 -13.104 -24.246  0.00  0.00    +0.318 C 
BRANCH  17  18
ATOM     18  O   UNL     1      34.273 -12.076 -23.879  0.00  0.00    -0.480 OA
ATOM     19  H   UNL     1      33.967 -11.192 -23.944  0.00  0.00    +0.295 HD
ENDBRANCH  17  18
ENDBRANCH  14  17
ENDBRANCH   2  14
TORSDOF 5
ENDMDL
MODEL 4
REMARK VINA RESULT:      -8.9      1.261      1.691
REMARK  Name = 5468
REMARK  5 active torsions:
REMARK  status: ('A' for Active; 'I' for Inactive)
REMARK    1  A    between atoms: C_2  and  C_14
REMARK    2  A    between atoms: C_3  and  C_7
REMARK    3  A    between atoms: C_7  and  C_8
REMARK    4  A    between atoms: C_14  and  C_17
REMARK    5  A    between atoms: C_17  and  O_18
REMARK                            x       y       z     vdW  Elec       q    Type
REMARK                         _______ _______ _______ _____ _____    ______ ____
ROOT
ATOM      1  S   UNL     1      34.451 -16.072 -22.621  0.00  0.00    -0.088 S 
ATOM      2  C   UNL     1      33.908 -15.711 -24.204  0.00  0.00    +0.018 C 
ATOM      3  C   UNL     1      35.059 -17.540 -23.170  0.00  0.00    +0.068 C 
ATOM      4  C   UNL     1      34.207 -16.718 -25.095  0.00  0.00    +0.003 C 
ATOM      5  C   UNL     1      34.891 -17.800 -24.471  0.00  0.00    +0.010 C 
ENDROOT
BRANCH   3   7
ATOM      6  O   UNL     1      36.963 -18.327 -22.064  0.00  0.00    -0.286 OA
ATOM      7  C   UNL     1      35.731 -18.419 -22.166  0.00  0.00    +0.201 C 
BRANCH   7   8
ATOM      8  C   UNL     1      34.993 -19.352 -21.329  0.00  0.00    +0.039 C 
ATOM      9  C   UNL     1      35.679 -20.292 -20.560  0.00  0.00    +0.003 C 
ATOM     10  C   UNL     1      33.599 -19.306 -21.295  0.00  0.00    +0.003 C 
ATOM     11  C   UNL     1      34.971 -21.187 -19.757  0.00  0.00    +0.000 C 
ATOM     12  C   UNL     1      32.892 -20.200 -20.492  0.00  0.00    +0.000 C 
ATOM     13  C   UNL     1      33.577 -21.141 -19.723  0.00  0.00    +0.000 C 
ENDBRANCH   7   8
ENDBRANCH   3   7
BRANCH   2  14
ATOM     14  C   UNL     1      33.214 -14.430 -24.461  0.00  0.00    +0.127 C 
ATOM     15  C   UNL     1      33.886 -13.197 -23.813  0.00  0.00    +0.017 C 
BRANCH  14  17
ATOM     16  O   UNL     1      33.645 -13.245 -26.553  0.00  0.00    -0.250 OA
ATOM     17  C   UNL     1      33.037 -14.125 -25.957  0.00  0.00    +0.318 C 
BRANCH  17  18
ATOM     18  O   UNL     1      32.124 -14.925 -26.569  0.00  0.00    -0.480 OA
ATOM     19  H   UNL     1      31.774 -14.683 -27.405  0.00  0.00    +0.295 HD
ENDBRANCH  17  18
ENDBRANCH  14  17
ENDBRANCH   2  14
TORSDOF 5
ENDMDL
MODEL 5
REMARK VINA RESULT:      -8.9      3.157      5.049
REMARK  Name = 5468
REMARK  5 active torsions:
REMARK  status: ('A' for Active; 'I' for Inactive)
REMARK    1  A    between atoms: C_2  and  C_14
REMARK    2  A    between atoms: C_3  and  C_7
REMARK    3  A    between atoms: C_7  and  C_8
REMARK    4  A    between atoms: C_14  and  C_17
REMARK    5  A    between atoms: C_17  and  O_18
REMARK                            x       y       z     vdW  Elec       q    Type
REMARK                         _______ _______ _______ _____ _____    ______ ____
ROOT
ATOM      1  S   UNL     1      35.367 -20.910 -20.179  0.00  0.00    -0.088 S 
ATOM      2  C   UNL     1      34.598 -19.523 -20.825  0.00  0.00    +0.018 C 
ATOM      3  C   UNL     1      33.872 -21.506 -19.694  0.00  0.00    +0.068 C 
ATOM      4  C   UNL     1      33.232 -19.561 -20.650  0.00  0.00    +0.003 C 
ATOM      5  C   UNL     1      32.811 -20.744 -19.977  0.00  0.00    +0.010 C 
ENDROOT
BRANCH   3   7
ATOM      6  O   UNL     1      34.147 -23.829 -19.669  0.00  0.00    -0.286 OA
ATOM      7  C   UNL     1      33.859 -22.828 -18.996  0.00  0.00    +0.201 C 
BRANCH   7   8
ATOM      8  C   UNL     1      33.526 -22.962 -17.587  0.00  0.00    +0.039 C 
ATOM      9  C   UNL     1      32.190 -23.028 -17.189  0.00  0.00    +0.003 C 
ATOM     10  C   UNL     1      34.541 -23.024 -16.633  0.00  0.00    +0.003 C 
ATOM     11  C   UNL     1      31.871 -23.157 -15.837  0.00  0.00    +0.000 C 
ATOM     12  C   UNL     1      34.222 -23.153 -15.281  0.00  0.00    +0.000 C 
ATOM     13  C   UNL     1      32.887 -23.219 -14.883  0.00  0.00    +0.000 C 
ENDBRANCH   7   8
ENDBRANCH   3   7
BRANCH   2  14
ATOM     14  C   UNL     1      35.413 -18.476 -21.476  0.00  0.00    +0.127 C 
ATOM     15  C   UNL     1      35.555 -18.636 -23.008  0.00  0.00    +0.017 C 
BRANCH  14  17
ATOM     16  O   UNL     1      35.131 -16.424 -20.181  0.00  0.00    -0.250 OA
ATOM     17  C   UNL     1      34.900 -17.052 -21.207  0.00  0.00    +0.318 C 
BRANCH  17  18
ATOM     18  O   UNL     1      34.147 -16.546 -22.219  0.00  0.00    -0.480 OA
ATOM     19  H   UNL     1      33.214 -16.515 -22.139  0.00  0.00    +0.295 HD
ENDBRANCH  17  18
ENDBRANCH  14  17
ENDBRANCH   2  14
TORSDOF 5
ENDMDL
MODEL 6
REMARK VINA RESULT:      -8.7      1.580      2.198
REMARK  Name = 5468
REMARK  5 active torsions:
REMARK  status: ('A' for Active; 'I' for Inactive)
REMARK    1  A    between atoms: C_2  and  C_14
REMARK    2  A    between atoms: C_3  and  C_7
REMARK    3  A    between atoms: C_7  and  C_8
REMARK    4  A    between atoms: C_14  and  C_17
REMARK    5  A    between atoms: C_17  and  O_18
REMARK                            x       y       z     vdW  Elec       q    Type
REMARK                         _______ _______ _______ _____ _____    ______ ____
ROOT
ATOM      1  S   UNL     1      34.333 -16.042 -23.515  0.00  0.00    -0.088 S 
ATOM      2  C   UNL     1      34.165 -14.635 -22.554  0.00  0.00    +0.018 C 
ATOM      3  C   UNL     1      34.754 -16.920 -22.146  0.00  0.00    +0.068 C 
ATOM      4  C   UNL     1      34.435 -14.881 -21.226  0.00  0.00    +0.003 C 
ATOM      5  C   UNL     1      34.783 -16.243 -20.994  0.00  0.00    +0.010 C 
ENDROOT
BRANCH   3   7
ATOM      6  O   UNL     1      35.666 -18.699 -23.361  0.00  0.00    -0.286 OA
ATOM      7  C   UNL     1      35.055 -18.372 -22.332  0.00  0.00    +0.201 C 
BRANCH   7   8
ATOM      8  C   UNL     1      34.659 -19.381 -21.362  0.00  0.00    +0.039 C 
ATOM      9  C   UNL     1      35.629 -20.156 -20.726  0.00  0.00    +0.003 C 
ATOM     10  C   UNL     1      33.310 -19.573 -21.067  0.00  0.00    +0.003 C 
ATOM     11  C   UNL     1      35.250 -21.123 -19.796  0.00  0.00    +0.000 C 
ATOM     12  C   UNL     1      32.930 -20.541 -20.136  0.00  0.00    +0.000 C 
ATOM     13  C   UNL     1      33.900 -21.315 -19.500  0.00  0.00    +0.000 C 
ENDBRANCH   7   8
ENDBRANCH   3   7
BRANCH   2  14
ATOM     14  C   UNL     1      33.766 -13.361 -23.191  0.00  0.00    +0.127 C 
ATOM     15  C   UNL     1      33.548 -13.452 -24.720  0.00  0.00    +0.017 C 
BRANCH  14  17
ATOM     16  O   UNL     1      32.275 -11.545 -22.522  0.00  0.00    -0.250 OA
ATOM     17  C   UNL     1      32.495 -12.749 -22.580  0.00  0.00    +0.318 C 
BRANCH  17  18
ATOM     18  O   UNL     1      31.627 -13.674 -22.093  0.00  0.00    -0.480 OA
ATOM     19  H   UNL     1      31.492 -13.749 -21.168  0.00  0.00    +0.295 HD
ENDBRANCH  17  18
ENDBRANCH  14  17
ENDBRANCH   2  14
TORSDOF 5
ENDMDL
MODEL 7
REMARK VINA RESULT:      -8.7      5.339      9.585
REMARK  Name = 5468
REMARK  5 active torsions:
REMARK  status: ('A' for Active; 'I' for Inactive)
REMARK    1  A    between atoms: C_2  and  C_14
REMARK    2  A    between atoms: C_3  and  C_7
REMARK    3  A    between atoms: C_7  and  C_8
REMARK    4  A    between atoms: C_14  and  C_17
REMARK    5  A    between atoms: C_17  and  O_18
REMARK                            x       y       z     vdW  Elec       q    Type
REMARK                         _______ _______ _______ _____ _____    ______ ____
ROOT
ATOM      1  S   UNL     1      35.022 -23.226 -16.243  0.00  0.00    -0.088 S 
ATOM      2  C   UNL     1      36.521 -22.800 -15.534  0.00  0.00    +0.018 C 
ATOM      3  C   UNL     1      35.460 -22.410 -17.645  0.00  0.00    +0.068 C 
ATOM      4  C   UNL     1      37.303 -22.053 -16.387  0.00  0.00    +0.003 C 
ATOM      5  C   UNL     1      36.663 -21.827 -17.640  0.00  0.00    +0.010 C 
ENDROOT
BRANCH   3   7
ATOM      6  O   UNL     1      33.802 -23.437 -18.937  0.00  0.00    -0.286 OA
ATOM      7  C   UNL     1      34.475 -22.409 -18.770  0.00  0.00    +0.201 C 
BRANCH   7   8
ATOM      8  C   UNL     1      34.294 -21.263 -19.646  0.00  0.00    +0.039 C 
ATOM      9  C   UNL     1      33.017 -20.740 -19.855  0.00  0.00    +0.003 C 
ATOM     10  C   UNL     1      35.395 -20.685 -20.275  0.00  0.00    +0.003 C 
ATOM     11  C   UNL     1      32.843 -19.640 -20.695  0.00  0.00    +0.000 C 
ATOM     12  C   UNL     1      35.221 -19.585 -21.115  0.00  0.00    +0.000 C 
ATOM     13  C   UNL     1      33.945 -19.062 -21.325  0.00  0.00    +0.000 C 
ENDBRANCH   7   8
ENDBRANCH   3   7
BRANCH   2  14
ATOM     14  C   UNL     1      36.829 -23.247 -14.158  0.00  0.00    +0.127 C 
ATOM     15  C   UNL     1      35.601 -23.735 -13.354  0.00  0.00    +0.017 C 
BRANCH  14  17
ATOM     16  O   UNL     1      38.744 -24.448 -13.233  0.00  0.00    -0.250 OA
ATOM     17  C   UNL     1      37.888 -24.361 -14.104  0.00  0.00    +0.318 C 
BRANCH  17  18
ATOM     18  O   UNL     1      37.795 -25.248 -15.128  0.00  0.00    -0.480 OA
ATOM     19  H   UNL     1      37.063 -25.832 -15.179  0.00  0.00    +0.295 HD
ENDBRANCH  17  18
ENDBRANCH  14  17
ENDBRANCH   2  14
TORSDOF 5
ENDMDL
MODEL 8
REMARK VINA RESULT:      -8.3      2.927      7.069
REMARK  Name = 5468
REMARK  5 active torsions:
REMARK  status: ('A' for Active; 'I' for Inactive)
REMARK    1  A    between atoms: C_2  and  C_14
REMARK    2  A    between atoms: C_3  and  C_7
REMARK    3  A    between atoms: C_7  and  C_8
REMARK    4  A    between atoms: C_14  and  C_17
REMARK    5  A    between atoms: C_17  and  O_18
REMARK                            x       y       z     vdW  Elec       q    Type
REMARK                         _______ _______ _______ _____ _____    ______ ____
ROOT
ATOM      1  S   UNL     1      36.014 -20.208 -20.767  0.00  0.00    -0.088 S 
ATOM      2  C   UNL     1      34.854 -21.088 -19.865  0.00  0.00    +0.018 C 
ATOM      3  C   UNL     1      34.782 -19.277 -21.431  0.00  0.00    +0.068 C 
ATOM      4  C   UNL     1      33.572 -20.644 -20.100  0.00  0.00    +0.003 C 
ATOM      5  C   UNL     1      33.540 -19.567 -21.032  0.00  0.00    +0.010 C 
ENDROOT
BRANCH   3   7
ATOM      6  O   UNL     1      35.811 -18.566 -23.407  0.00  0.00    -0.286 OA
ATOM      7  C   UNL     1      35.180 -18.211 -22.401  0.00  0.00    +0.201 C 
BRANCH   7   8
ATOM      8  C   UNL     1      34.850 -16.810 -22.197  0.00  0.00    +0.039 C 
ATOM      9  C   UNL     1      34.649 -15.973 -23.295  0.00  0.00    +0.003 C 
ATOM     10  C   UNL     1      34.734 -16.302 -20.903  0.00  0.00    +0.003 C 
ATOM     11  C   UNL     1      34.332 -14.629 -23.099  0.00  0.00    +0.000 C 
ATOM     12  C   UNL     1      34.418 -14.957 -20.708  0.00  0.00    +0.000 C 
ATOM     13  C   UNL     1      34.216 -14.121 -21.806  0.00  0.00    +0.000 C 
ENDBRANCH   7   8
ENDBRANCH   3   7
BRANCH   2  14
ATOM     14  C   UNL     1      35.302 -22.175 -18.968  0.00  0.00    +0.127 C 
ATOM     15  C   UNL     1      36.182 -21.706 -17.785  0.00  0.00    +0.017 C 
BRANCH  14  17
ATOM     16  O   UNL     1      33.616 -22.763 -17.301  0.00  0.00    -0.250 OA
ATOM     17  C   UNL     1      34.142 -22.996 -18.382  0.00  0.00    +0.318 C 
BRANCH  17  18
ATOM     18  O   UNL     1      33.750 -24.026 -19.178  0.00  0.00    -0.480 OA
ATOM     19  H   UNL     1      32.911 -24.004 -19.594  0.00  0.00    +0.295 HD
ENDBRANCH  17  18
ENDBRANCH  14  17
ENDBRANCH   2  14
TORSDOF 5
ENDMDL
MODEL 9
REMARK VINA RESULT:      -8.2      8.843     11.480
REMARK  Name = 5468
REMARK  5 active torsions:
REMARK  status: ('A' for Active; 'I' for Inactive)
REMARK    1  A    between atoms: C_2  and  C_14
REMARK    2  A    between atoms: C_3  and  C_7
REMARK    3  A    between atoms: C_7  and  C_8
REMARK    4  A    between atoms: C_14  and  C_17
REMARK    5  A    between atoms: C_17  and  O_18
REMARK                            x       y       z     vdW  Elec       q    Type
REMARK                         _______ _______ _______ _____ _____    ______ ____
ROOT
ATOM      1  S   UNL     1      35.610 -25.069 -15.093  0.00  0.00    -0.088 S 
ATOM      2  C   UNL     1      37.160 -24.572 -14.561  0.00  0.00    +0.018 C 
ATOM      3  C   UNL     1      35.405 -23.589 -15.862  0.00  0.00    +0.068 C 
ATOM      4  C   UNL     1      37.468 -23.298 -14.986  0.00  0.00    +0.003 C 
ATOM      5  C   UNL     1      36.419 -22.723 -15.759  0.00  0.00    +0.010 C 
ENDROOT
BRANCH   3   7
ATOM      6  O   UNL     1      34.172 -23.289 -17.827  0.00  0.00    -0.286 OA
ATOM      7  C   UNL     1      34.119 -23.371 -16.590  0.00  0.00    +0.201 C 
BRANCH   7   8
ATOM      8  C   UNL     1      32.843 -23.258 -15.902  0.00  0.00    +0.039 C 
ATOM      9  C   UNL     1      32.799 -23.261 -14.508  0.00  0.00    +0.003 C 
ATOM     10  C   UNL     1      31.662 -23.145 -16.636  0.00  0.00    +0.003 C 
ATOM     11  C   UNL     1      31.575 -23.152 -13.848  0.00  0.00    +0.000 C 
ATOM     12  C   UNL     1      30.438 -23.036 -15.976  0.00  0.00    +0.000 C 
ATOM     13  C   UNL     1      30.395 -23.039 -14.582  0.00  0.00    +0.000 C 
ENDBRANCH   7   8
ENDBRANCH   3   7
BRANCH   2  14
ATOM     14  C   UNL     1      37.982 -25.495 -13.748  0.00  0.00    +0.127 C 
ATOM     15  C   UNL     1      39.506 -25.255 -13.853  0.00  0.00    +0.017 C 
BRANCH  14  17
ATOM     16  O   UNL     1      37.995 -24.625 -11.466  0.00  0.00    -0.250 OA
ATOM     17  C   UNL     1      37.614 -25.480 -12.255  0.00  0.00    +0.318 C 
BRANCH  17  18
ATOM     18  O   UNL     1      36.825 -26.521 -11.881  0.00  0.00    -0.480 OA
ATOM     19  H   UNL     1      36.339 -26.477 -11.080  0.00  0.00    +0.295 HD
ENDBRANCH  17  18
ENDBRANCH  14  17
ENDBRANCH   2  14
TORSDOF 5
ENDMDL
