MODEL 1
REMARK VINA RESULT:      -6.7      0.000      0.000
REMARK  Name = 5315892
REMARK  3 active torsions:
REMARK  status: ('A' for Active; 'I' for Inactive)
REMARK    1  A    between atoms: C_1  and  C_7
REMARK    2  A    between atoms: C_8  and  C_9
REMARK    3  A    between atoms: C_9  and  O_10
REMARK                            x       y       z     vdW  Elec       q    Type
REMARK                         _______ _______ _______ _____ _____    ______ ____
ROOT
ATOM      1  C   UNL     1      34.528 -19.642 -21.004  0.00  0.00    -0.000 C 
ATOM      2  C   UNL     1      35.719 -20.240 -20.591  0.00  0.00    -0.000 C 
ATOM      3  C   UNL     1      33.306 -20.130 -20.542  0.00  0.00    -0.000 C 
ATOM      4  C   UNL     1      35.688 -21.326 -19.716  0.00  0.00    -0.000 C 
ATOM      5  C   UNL     1      33.275 -21.216 -19.666  0.00  0.00    -0.000 C 
ATOM      6  C   UNL     1      34.467 -21.814 -19.254  0.00  0.00    -0.000 C 
ENDROOT
BRANCH   1   7
ATOM      7  C   UNL     1      34.561 -18.510 -21.916  0.00  0.00    -0.002 C 
ATOM      8  C   UNL     1      34.923 -18.551 -23.218  0.00  0.00    +0.005 C 
BRANCH   8   9
ATOM      9  C   UNL     1      34.927 -17.361 -24.122  0.00  0.00    +0.163 C 
BRANCH   9  10
ATOM     10  O   UNL     1      35.707 -16.336 -23.524  0.00  0.00    -0.377 OA
ATOM     11  H   UNL     1      36.128 -15.803 -24.217  0.00  0.00    +0.211 HD
ENDBRANCH   9  10
ENDBRANCH   8   9
ENDBRANCH   1   7
TORSDOF 3
ENDMDL
MODEL 2
REMARK VINA RESULT:      -6.7      0.011      1.528
REMARK  Name = 5315892
REMARK  3 active torsions:
REMARK  status: ('A' for Active; 'I' for Inactive)
REMARK    1  A    between atoms: C_1  and  C_7
REMARK    2  A    between atoms: C_8  and  C_9
REMARK    3  A    between atoms: C_9  and  O_10
REMARK                            x       y       z     vdW  Elec       q    Type
REMARK                         _______ _______ _______ _____ _____    ______ ____
ROOT
ATOM      1  C   UNL     1      34.528 -19.633 -21.008  0.00  0.00    -0.000 C 
ATOM      2  C   UNL     1      33.306 -20.122 -20.545  0.00  0.00    -0.000 C 
ATOM      3  C   UNL     1      35.720 -20.231 -20.596  0.00  0.00    -0.000 C 
ATOM      4  C   UNL     1      33.276 -21.209 -19.671  0.00  0.00    -0.000 C 
ATOM      5  C   UNL     1      35.688 -21.318 -19.722  0.00  0.00    -0.000 C 
ATOM      6  C   UNL     1      34.466 -21.806 -19.259  0.00  0.00    -0.000 C 
ENDROOT
BRANCH   1   7
ATOM      7  C   UNL     1      34.560 -18.501 -21.919  0.00  0.00    -0.002 C 
ATOM      8  C   UNL     1      34.927 -18.540 -23.220  0.00  0.00    +0.005 C 
BRANCH   8   9
ATOM      9  C   UNL     1      34.928 -17.349 -24.123  0.00  0.00    +0.163 C 
BRANCH   9  10
ATOM     10  O   UNL     1      35.717 -16.327 -23.530  0.00  0.00    -0.377 OA
ATOM     11  H   UNL     1      35.454 -15.465 -23.890  0.00  0.00    +0.211 HD
ENDBRANCH   9  10
ENDBRANCH   8   9
ENDBRANCH   1   7
TORSDOF 3
ENDMDL
MODEL 3
REMARK VINA RESULT:      -6.3      2.493      5.166
REMARK  Name = 5315892
REMARK  3 active torsions:
REMARK  status: ('A' for Active; 'I' for Inactive)
REMARK    1  A    between atoms: C_1  and  C_7
REMARK    2  A    between atoms: C_8  and  C_9
REMARK    3  A    between atoms: C_9  and  O_10
REMARK                            x       y       z     vdW  Elec       q    Type
REMARK                         _______ _______ _______ _____ _____    ______ ____
ROOT
ATOM      1  C   UNL     1      34.793 -18.557 -22.809  0.00  0.00    -0.000 C 
ATOM      2  C   UNL     1      34.968 -17.211 -22.487  0.00  0.00    -0.000 C 
ATOM      3  C   UNL     1      34.593 -18.937 -24.137  0.00  0.00    -0.000 C 
ATOM      4  C   UNL     1      34.943 -16.245 -23.493  0.00  0.00    -0.000 C 
ATOM      5  C   UNL     1      34.569 -17.969 -25.142  0.00  0.00    -0.000 C 
ATOM      6  C   UNL     1      34.743 -16.623 -24.819  0.00  0.00    -0.000 C 
ENDROOT
BRANCH   1   7
ATOM      7  C   UNL     1      34.819 -19.565 -21.760  0.00  0.00    -0.002 C 
ATOM      8  C   UNL     1      33.798 -19.868 -20.928  0.00  0.00    +0.005 C 
BRANCH   8   9
ATOM      9  C   UNL     1      33.867 -20.925 -19.873  0.00  0.00    +0.163 C 
BRANCH   9  10
ATOM     10  O   UNL     1      32.727 -21.765 -19.993  0.00  0.00    -0.377 OA
ATOM     11  H   UNL     1      32.381 -21.713 -20.898  0.00  0.00    +0.211 HD
ENDBRANCH   9  10
ENDBRANCH   8   9
ENDBRANCH   1   7
TORSDOF 3
ENDMDL
MODEL 4
REMARK VINA RESULT:      -6.2      3.602      5.556
REMARK  Name = 5315892
REMARK  3 active torsions:
REMARK  status: ('A' for Active; 'I' for Inactive)
REMARK    1  A    between atoms: C_1  and  C_7
REMARK    2  A    between atoms: C_8  and  C_9
REMARK    3  A    between atoms: C_9  and  O_10
REMARK                            x       y       z     vdW  Elec       q    Type
REMARK                         _______ _______ _______ _____ _____    ______ ____
ROOT
ATOM      1  C   UNL     1      35.196 -21.197 -19.464  0.00  0.00    -0.000 C 
ATOM      2  C   UNL     1      33.802 -21.249 -19.507  0.00  0.00    -0.000 C 
ATOM      3  C   UNL     1      35.891 -20.385 -20.362  0.00  0.00    -0.000 C 
ATOM      4  C   UNL     1      33.104 -20.490 -20.446  0.00  0.00    -0.000 C 
ATOM      5  C   UNL     1      35.192 -19.627 -21.301  0.00  0.00    -0.000 C 
ATOM      6  C   UNL     1      33.799 -19.679 -21.343  0.00  0.00    -0.000 C 
ENDROOT
BRANCH   1   7
ATOM      7  C   UNL     1      35.923 -21.988 -18.485  0.00  0.00    -0.002 C 
ATOM      8  C   UNL     1      36.724 -21.501 -17.510  0.00  0.00    +0.005 C 
BRANCH   8   9
ATOM      9  C   UNL     1      37.441 -22.356 -16.514  0.00  0.00    +0.163 C 
BRANCH   9  10
ATOM     10  O   UNL     1      36.641 -23.495 -16.231  0.00  0.00    -0.377 OA
ATOM     11  H   UNL     1      36.204 -23.793 -17.045  0.00  0.00    +0.211 HD
ENDBRANCH   9  10
ENDBRANCH   8   9
ENDBRANCH   1   7
TORSDOF 3
ENDMDL
MODEL 5
REMARK VINA RESULT:      -6.2      2.673      4.998
REMARK  Name = 5315892
REMARK  3 active torsions:
REMARK  status: ('A' for Active; 'I' for Inactive)
REMARK    1  A    between atoms: C_1  and  C_7
REMARK    2  A    between atoms: C_8  and  C_9
REMARK    3  A    between atoms: C_9  and  O_10
REMARK                            x       y       z     vdW  Elec       q    Type
REMARK                         _______ _______ _______ _____ _____    ______ ____
ROOT
ATOM      1  C   UNL     1      34.907 -18.905 -21.853  0.00  0.00    -0.000 C 
ATOM      2  C   UNL     1      34.891 -19.089 -23.236  0.00  0.00    -0.000 C 
ATOM      3  C   UNL     1      34.918 -17.615 -21.322  0.00  0.00    -0.000 C 
ATOM      4  C   UNL     1      34.885 -17.984 -24.087  0.00  0.00    -0.000 C 
ATOM      5  C   UNL     1      34.911 -16.510 -22.174  0.00  0.00    -0.000 C 
ATOM      6  C   UNL     1      34.895 -16.695 -23.556  0.00  0.00    -0.000 C 
ENDROOT
BRANCH   1   7
ATOM      7  C   UNL     1      34.914 -20.057 -20.966  0.00  0.00    -0.002 C 
ATOM      8  C   UNL     1      33.864 -20.506 -20.242  0.00  0.00    +0.005 C 
BRANCH   8   9
ATOM      9  C   UNL     1      33.915 -21.707 -19.353  0.00  0.00    +0.163 C 
BRANCH   9  10
ATOM     10  O   UNL     1      32.598 -22.004 -18.911  0.00  0.00    -0.377 OA
ATOM     11  H   UNL     1      32.587 -22.061 -17.943  0.00  0.00    +0.211 HD
ENDBRANCH   9  10
ENDBRANCH   8   9
ENDBRANCH   1   7
TORSDOF 3
ENDMDL
MODEL 6
REMARK VINA RESULT:      -6.1      2.643      4.902
REMARK  Name = 5315892
REMARK  3 active torsions:
REMARK  status: ('A' for Active; 'I' for Inactive)
REMARK    1  A    between atoms: C_1  and  C_7
REMARK    2  A    between atoms: C_8  and  C_9
REMARK    3  A    between atoms: C_9  and  O_10
REMARK                            x       y       z     vdW  Elec       q    Type
REMARK                         _______ _______ _______ _____ _____    ______ ____
ROOT
ATOM      1  C   UNL     1      34.884 -19.001 -21.614  0.00  0.00    -0.000 C 
ATOM      2  C   UNL     1      34.984 -17.668 -21.217  0.00  0.00    -0.000 C 
ATOM      3  C   UNL     1      34.831 -19.322 -22.971  0.00  0.00    -0.000 C 
ATOM      4  C   UNL     1      35.032 -16.656 -22.175  0.00  0.00    -0.000 C 
ATOM      5  C   UNL     1      34.878 -18.310 -23.929  0.00  0.00    -0.000 C 
ATOM      6  C   UNL     1      34.979 -16.976 -23.531  0.00  0.00    -0.000 C 
ENDROOT
BRANCH   1   7
ATOM      7  C   UNL     1      34.835 -20.056 -20.614  0.00  0.00    -0.002 C 
ATOM      8  C   UNL     1      35.902 -20.690 -20.077  0.00  0.00    +0.005 C 
BRANCH   8   9
ATOM      9  C   UNL     1      35.801 -21.760 -19.039  0.00  0.00    +0.163 C 
BRANCH   9  10
ATOM     10  O   UNL     1      34.857 -22.729 -19.471  0.00  0.00    -0.377 OA
ATOM     11  H   UNL     1      35.256 -23.612 -19.427  0.00  0.00    +0.211 HD
ENDBRANCH   9  10
ENDBRANCH   8   9
ENDBRANCH   1   7
TORSDOF 3
ENDMDL
MODEL 7
REMARK VINA RESULT:      -6.1      3.463      5.246
REMARK  Name = 5315892
REMARK  3 active torsions:
REMARK  status: ('A' for Active; 'I' for Inactive)
REMARK    1  A    between atoms: C_1  and  C_7
REMARK    2  A    between atoms: C_8  and  C_9
REMARK    3  A    between atoms: C_9  and  O_10
REMARK                            x       y       z     vdW  Elec       q    Type
REMARK                         _______ _______ _______ _____ _____    ______ ____
ROOT
ATOM      1  C   UNL     1      34.304 -20.524 -20.216  0.00  0.00    -0.000 C 
ATOM      2  C   UNL     1      35.697 -20.446 -20.174  0.00  0.00    -0.000 C 
ATOM      3  C   UNL     1      33.579 -19.620 -20.992  0.00  0.00    -0.000 C 
ATOM      4  C   UNL     1      36.363 -19.464 -20.908  0.00  0.00    -0.000 C 
ATOM      5  C   UNL     1      34.246 -18.638 -21.726  0.00  0.00    -0.000 C 
ATOM      6  C   UNL     1      35.638 -18.561 -21.683  0.00  0.00    -0.000 C 
ENDROOT
BRANCH   1   7
ATOM      7  C   UNL     1      33.610 -21.547 -19.451  0.00  0.00    -0.002 C 
ATOM      8  C   UNL     1      34.170 -22.369 -18.535  0.00  0.00    +0.005 C 
BRANCH   8   9
ATOM      9  C   UNL     1      33.411 -23.398 -17.761  0.00  0.00    +0.163 C 
BRANCH   9  10
ATOM     10  O   UNL     1      34.232 -23.871 -16.702  0.00  0.00    -0.377 OA
ATOM     11  H   UNL     1      35.162 -23.841 -16.977  0.00  0.00    +0.211 HD
ENDBRANCH   9  10
ENDBRANCH   8   9
ENDBRANCH   1   7
TORSDOF 3
ENDMDL
MODEL 8
REMARK VINA RESULT:      -5.8      2.959      5.368
REMARK  Name = 5315892
REMARK  3 active torsions:
REMARK  status: ('A' for Active; 'I' for Inactive)
REMARK    1  A    between atoms: C_1  and  C_7
REMARK    2  A    between atoms: C_8  and  C_9
REMARK    3  A    between atoms: C_9  and  O_10
REMARK                            x       y       z     vdW  Elec       q    Type
REMARK                         _______ _______ _______ _____ _____    ______ ____
ROOT
ATOM      1  C   UNL     1      34.593 -17.163 -21.693  0.00  0.00    -0.000 C 
ATOM      2  C   UNL     1      34.351 -16.094 -20.829  0.00  0.00    -0.000 C 
ATOM      3  C   UNL     1      34.777 -16.929 -23.056  0.00  0.00    -0.000 C 
ATOM      4  C   UNL     1      34.294 -14.793 -21.327  0.00  0.00    -0.000 C 
ATOM      5  C   UNL     1      34.720 -15.627 -23.554  0.00  0.00    -0.000 C 
ATOM      6  C   UNL     1      34.478 -14.559 -22.689  0.00  0.00    -0.000 C 
ENDROOT
BRANCH   1   7
ATOM      7  C   UNL     1      34.653 -18.519 -21.173  0.00  0.00    -0.002 C 
ATOM      8  C   UNL     1      33.594 -19.268 -20.790  0.00  0.00    +0.005 C 
BRANCH   8   9
ATOM      9  C   UNL     1      33.704 -20.667 -20.275  0.00  0.00    +0.163 C 
BRANCH   9  10
ATOM     10  O   UNL     1      32.602 -20.926 -19.416  0.00  0.00    -0.377 OA
ATOM     11  H   UNL     1      32.702 -21.804 -19.018  0.00  0.00    +0.211 HD
ENDBRANCH   9  10
ENDBRANCH   8   9
ENDBRANCH   1   7
TORSDOF 3
ENDMDL
MODEL 9
REMARK VINA RESULT:      -5.8      3.314      4.732
REMARK  Name = 5315892
REMARK  3 active torsions:
REMARK  status: ('A' for Active; 'I' for Inactive)
REMARK    1  A    between atoms: C_1  and  C_7
REMARK    2  A    between atoms: C_8  and  C_9
REMARK    3  A    between atoms: C_9  and  O_10
REMARK                            x       y       z     vdW  Elec       q    Type
REMARK                         _______ _______ _______ _____ _____    ______ ____
ROOT
ATOM      1  C   UNL     1      34.357 -16.589 -24.164  0.00  0.00    -0.000 C 
ATOM      2  C   UNL     1      34.709 -16.576 -22.814  0.00  0.00    -0.000 C 
ATOM      3  C   UNL     1      34.402 -17.783 -24.885  0.00  0.00    -0.000 C 
ATOM      4  C   UNL     1      35.107 -17.756 -22.186  0.00  0.00    -0.000 C 
ATOM      5  C   UNL     1      34.800 -18.963 -24.256  0.00  0.00    -0.000 C 
ATOM      6  C   UNL     1      35.152 -18.949 -22.906  0.00  0.00    -0.000 C 
ENDROOT
BRANCH   1   7
ATOM      7  C   UNL     1      33.942 -15.359 -24.819  0.00  0.00    -0.002 C 
ATOM      8  C   UNL     1      33.338 -15.268 -26.026  0.00  0.00    +0.005 C 
BRANCH   8   9
ATOM      9  C   UNL     1      32.916 -13.979 -26.653  0.00  0.00    +0.163 C 
BRANCH   9  10
ATOM     10  O   UNL     1      33.818 -13.666 -27.705  0.00  0.00    -0.377 OA
ATOM     11  H   UNL     1      34.240 -12.811 -27.526  0.00  0.00    +0.211 HD
ENDBRANCH   9  10
ENDBRANCH   8   9
ENDBRANCH   1   7
TORSDOF 3
ENDMDL
