MODEL 1
REMARK VINA RESULT:     -12.0      0.000      0.000
REMARK  Name = 59473233
REMARK  3 active torsions:
REMARK  status: ('A' for Active; 'I' for Inactive)
REMARK    1  A    between atoms: N_1  and  C_25
REMARK    2  A    between atoms: C_7  and  C_14
REMARK    3  A    between atoms: C_22  and  N_29
REMARK                            x       y       z     vdW  Elec       q    Type
REMARK                         _______ _______ _______ _____ _____    ______ ____
ROOT
ATOM      1  N   UNL     1      36.615 -22.896 -16.313  0.00  0.00    -0.286 N 
ATOM      2  N   UNL     1      35.311 -23.771 -12.961  0.00  0.00    -0.260 N 
ATOM      3  N   UNL     1      34.457 -23.394 -15.568  0.00  0.00    -0.387 NA
ATOM      4  N   UNL     1      37.430 -23.327 -13.496  0.00  0.00    -0.224 NA
ATOM      5  C   UNL     1      35.741 -23.239 -15.307  0.00  0.00    +0.216 C 
ATOM      6  C   UNL     1      36.201 -23.436 -13.947  0.00  0.00    +0.180 C 
ATOM      7  C   UNL     1      33.579 -23.743 -14.542  0.00  0.00    +0.131 C 
ATOM      8  C   UNL     1      33.973 -23.927 -13.261  0.00  0.00    +0.156 C 
ATOM      9  C   UNL     1      36.019 -23.885 -11.798  0.00  0.00    +0.088 C 
ATOM     10  C   UNL     1      37.322 -23.606 -12.153  0.00  0.00    +0.117 C 
ATOM     11  H   UNL     1      37.541 -23.218 -16.221  0.00  0.00    +0.155 HD
ENDROOT
BRANCH   7  14
ATOM     12  N   UNL     1      29.431 -22.645 -17.099  0.00  0.00    -0.236 N 
ATOM     13  N   UNL     1      28.166 -23.099 -17.090  0.00  0.00    -0.180 NA
ATOM     14  C   UNL     1      32.150 -23.890 -14.897  0.00  0.00    +0.028 C 
ATOM     15  C   UNL     1      30.254 -23.259 -16.194  0.00  0.00    +0.067 C 
ATOM     16  C   UNL     1      31.607 -23.079 -15.898  0.00  0.00    +0.018 C 
ATOM     17  C   UNL     1      29.454 -24.192 -15.544  0.00  0.00    +0.035 C 
ATOM     18  C   UNL     1      31.368 -24.834 -14.228  0.00  0.00    +0.002 C 
ATOM     19  C   UNL     1      30.013 -24.999 -14.540  0.00  0.00    +0.003 C 
ATOM     20  C   UNL     1      28.184 -24.039 -16.143  0.00  0.00    +0.119 C 
ATOM     21  H   UNL     1      29.738 -21.931 -17.703  0.00  0.00    +0.174 HD
ENDBRANCH   7  14
BRANCH   1  25
ATOM     22  C   UNL     1      35.748 -20.631 -19.719  0.00  0.00    +0.048 C 
ATOM     23  C   UNL     1      36.927 -20.400 -19.010  0.00  0.00    +0.016 C 
ATOM     24  C   UNL     1      34.859 -21.617 -19.292  0.00  0.00    +0.016 C 
ATOM     25  C   UNL     1      36.326 -22.141 -17.446  0.00  0.00    +0.050 C 
ATOM     26  C   UNL     1      37.216 -21.155 -17.872  0.00  0.00    +0.016 C 
ATOM     27  C   UNL     1      35.147 -22.371 -18.155  0.00  0.00    +0.016 C 
BRANCH  22  29
ATOM     28  O   UNL     1      34.815 -18.142 -22.976  0.00  0.00    -0.350 OA
ATOM     29  N   UNL     1      35.458 -19.874 -20.859  0.00  0.00    -0.303 N 
ATOM     30  C   UNL     1      36.315 -18.719 -21.159  0.00  0.00    +0.123 C 
ATOM     31  C   UNL     1      34.074 -19.766 -21.334  0.00  0.00    +0.123 C 
ATOM     32  C   UNL     1      36.185 -18.351 -22.633  0.00  0.00    +0.164 C 
ATOM     33  C   UNL     1      34.064 -19.341 -22.798  0.00  0.00    +0.164 C 
ENDBRANCH  22  29
ENDBRANCH   1  25
TORSDOF 3
ENDMDL
MODEL 2
REMARK VINA RESULT:      -9.8      6.143     11.625
REMARK  Name = 59473233
REMARK  3 active torsions:
REMARK  status: ('A' for Active; 'I' for Inactive)
REMARK    1  A    between atoms: N_1  and  C_25
REMARK    2  A    between atoms: C_7  and  C_14
REMARK    3  A    between atoms: C_22  and  N_29
REMARK                            x       y       z     vdW  Elec       q    Type
REMARK                         _______ _______ _______ _____ _____    ______ ____
ROOT
ATOM      1  N   UNL     1      34.785 -16.378 -24.455  0.00  0.00    -0.286 N 
ATOM      2  N   UNL     1      32.811 -13.519 -25.730  0.00  0.00    -0.260 N 
ATOM      3  N   UNL     1      33.659 -14.654 -23.352  0.00  0.00    -0.387 NA
ATOM      4  N   UNL     1      33.833 -15.084 -26.946  0.00  0.00    -0.224 NA
ATOM      5  C   UNL     1      34.016 -15.237 -24.479  0.00  0.00    +0.216 C 
ATOM      6  C   UNL     1      33.581 -14.652 -25.732  0.00  0.00    +0.180 C 
ATOM      7  C   UNL     1      32.881 -13.497 -23.387  0.00  0.00    +0.131 C 
ATOM      8  C   UNL     1      32.451 -12.928 -24.536  0.00  0.00    +0.156 C 
ATOM      9  C   UNL     1      32.552 -13.204 -27.035  0.00  0.00    +0.088 C 
ATOM     10  C   UNL     1      33.193 -14.183 -27.764  0.00  0.00    +0.117 C 
ATOM     11  H   UNL     1      35.386 -16.521 -25.221  0.00  0.00    +0.155 HD
ENDROOT
BRANCH   7  14
ATOM     12  N   UNL     1      31.399  -9.781 -20.394  0.00  0.00    -0.236 N 
ATOM     13  N   UNL     1      31.147  -9.670 -19.079  0.00  0.00    -0.180 NA
ATOM     14  C   UNL     1      32.503 -12.897 -22.088  0.00  0.00    +0.028 C 
ATOM     15  C   UNL     1      31.795 -11.032 -20.786  0.00  0.00    +0.067 C 
ATOM     16  C   UNL     1      32.142 -11.547 -22.036  0.00  0.00    +0.018 C 
ATOM     17  C   UNL     1      31.796 -11.796 -19.624  0.00  0.00    +0.035 C 
ATOM     18  C   UNL     1      32.515 -13.687 -20.936  0.00  0.00    +0.002 C 
ATOM     19  C   UNL     1      32.163 -13.151 -19.691  0.00  0.00    +0.003 C 
ATOM     20  C   UNL     1      31.390 -10.897 -18.614  0.00  0.00    +0.119 C 
ATOM     21  H   UNL     1      31.309  -9.028 -21.021  0.00  0.00    +0.174 HD
ENDBRANCH   7  14
BRANCH   1  25
ATOM     22  C   UNL     1      34.835 -19.301 -21.464  0.00  0.00    +0.048 C 
ATOM     23  C   UNL     1      34.618 -19.666 -22.794  0.00  0.00    +0.016 C 
ATOM     24  C   UNL     1      35.034 -17.960 -21.134  0.00  0.00    +0.016 C 
ATOM     25  C   UNL     1      34.800 -17.351 -23.459  0.00  0.00    +0.050 C 
ATOM     26  C   UNL     1      34.601 -18.691 -23.792  0.00  0.00    +0.016 C 
ATOM     27  C   UNL     1      35.016 -16.985 -22.130  0.00  0.00    +0.016 C 
BRANCH  22  29
ATOM     28  O   UNL     1      34.954 -22.426 -18.656  0.00  0.00    -0.350 OA
ATOM     29  N   UNL     1      34.852 -20.278 -20.465  0.00  0.00    -0.303 N 
ATOM     30  C   UNL     1      36.135 -20.915 -20.140  0.00  0.00    +0.123 C 
ATOM     31  C   UNL     1      33.665 -21.111 -20.235  0.00  0.00    +0.123 C 
ATOM     32  C   UNL     1      36.065 -21.535 -18.749  0.00  0.00    +0.164 C 
ATOM     33  C   UNL     1      33.728 -21.721 -18.839  0.00  0.00    +0.164 C 
ENDBRANCH  22  29
ENDBRANCH   1  25
TORSDOF 3
ENDMDL
MODEL 3
REMARK VINA RESULT:      -9.6     12.403     15.981
REMARK  Name = 59473233
REMARK  3 active torsions:
REMARK  status: ('A' for Active; 'I' for Inactive)
REMARK    1  A    between atoms: N_1  and  C_25
REMARK    2  A    between atoms: C_7  and  C_14
REMARK    3  A    between atoms: C_22  and  N_29
REMARK                            x       y       z     vdW  Elec       q    Type
REMARK                         _______ _______ _______ _____ _____    ______ ____
ROOT
ATOM      1  N   UNL     1      32.771  -7.505 -21.887  0.00  0.00    -0.286 N 
ATOM      2  N   UNL     1      31.876 -10.833 -20.537  0.00  0.00    -0.260 N 
ATOM      3  N   UNL     1      32.846  -9.637 -22.838  0.00  0.00    -0.387 NA
ATOM      4  N   UNL     1      31.743  -8.879 -19.470  0.00  0.00    -0.224 NA
ATOM      5  C   UNL     1      32.574  -8.864 -21.805  0.00  0.00    +0.216 C 
ATOM      6  C   UNL     1      32.068  -9.477 -20.593  0.00  0.00    +0.180 C 
ATOM      7  C   UNL     1      32.645 -11.015 -22.744  0.00  0.00    +0.131 C 
ATOM      8  C   UNL     1      32.167 -11.619 -21.633  0.00  0.00    +0.156 C 
ATOM      9  C   UNL     1      31.393 -11.121 -19.292  0.00  0.00    +0.088 C 
ATOM     10  C   UNL     1      31.320  -9.901 -18.653  0.00  0.00    +0.117 C 
ATOM     11  H   UNL     1      33.000  -7.041 -21.049  0.00  0.00    +0.155 HD
ENDROOT
BRANCH   7  14
ATOM     12  N   UNL     1      32.951 -15.256 -25.365  0.00  0.00    -0.236 N 
ATOM     13  N   UNL     1      33.354 -15.574 -26.607  0.00  0.00    -0.180 NA
ATOM     14  C   UNL     1      32.957 -11.826 -23.942  0.00  0.00    +0.028 C 
ATOM     15  C   UNL     1      33.047 -13.924 -25.067  0.00  0.00    +0.067 C 
ATOM     16  C   UNL     1      32.736 -13.207 -23.910  0.00  0.00    +0.018 C 
ATOM     17  C   UNL     1      33.555 -13.327 -26.216  0.00  0.00    +0.035 C 
ATOM     18  C   UNL     1      33.468 -11.201 -25.082  0.00  0.00    +0.002 C 
ATOM     19  C   UNL     1      33.773 -11.939 -26.232  0.00  0.00    +0.003 C 
ATOM     20  C   UNL     1      33.721 -14.398 -27.121  0.00  0.00    +0.119 C 
ATOM     21  H   UNL     1      32.617 -15.925 -24.725  0.00  0.00    +0.174 HD
ENDBRANCH   7  14
BRANCH   1  25
ATOM     22  C   UNL     1      32.497  -5.138 -25.324  0.00  0.00    +0.048 C 
ATOM     23  C   UNL     1      31.493  -5.083 -24.357  0.00  0.00    +0.016 C 
ATOM     24  C   UNL     1      33.592  -5.983 -25.143  0.00  0.00    +0.016 C 
ATOM     25  C   UNL     1      32.679  -6.718 -23.032  0.00  0.00    +0.050 C 
ATOM     26  C   UNL     1      31.583  -5.874 -23.211  0.00  0.00    +0.016 C 
ATOM     27  C   UNL     1      33.683  -6.773 -23.998  0.00  0.00    +0.016 C 
BRANCH  22  29
ATOM     28  O   UNL     1      32.488  -2.680 -28.734  0.00  0.00    -0.350 OA
ATOM     29  N   UNL     1      32.406  -4.346 -26.473  0.00  0.00    -0.303 N 
ATOM     30  C   UNL     1      33.235  -4.707 -27.631  0.00  0.00    +0.123 C 
ATOM     31  C   UNL     1      32.084  -2.919 -26.354  0.00  0.00    +0.123 C 
ATOM     32  C   UNL     1      32.648  -4.089 -28.895  0.00  0.00    +0.164 C 
ATOM     33  C   UNL     1      31.561  -2.397 -27.687  0.00  0.00    +0.164 C 
ENDBRANCH  22  29
ENDBRANCH   1  25
TORSDOF 3
ENDMDL
MODEL 4
REMARK VINA RESULT:      -9.1      2.547      7.061
REMARK  Name = 59473233
REMARK  3 active torsions:
REMARK  status: ('A' for Active; 'I' for Inactive)
REMARK    1  A    between atoms: N_1  and  C_25
REMARK    2  A    between atoms: C_7  and  C_14
REMARK    3  A    between atoms: C_22  and  N_29
REMARK                            x       y       z     vdW  Elec       q    Type
REMARK                         _______ _______ _______ _____ _____    ______ ____
ROOT
ATOM      1  N   UNL     1      33.513 -23.697 -13.628  0.00  0.00    -0.286 N 
ATOM      2  N   UNL     1      37.017 -24.555 -14.457  0.00  0.00    -0.260 N 
ATOM      3  N   UNL     1      34.944 -22.928 -15.307  0.00  0.00    -0.387 NA
ATOM      4  N   UNL     1      35.794 -25.396 -12.792  0.00  0.00    -0.224 NA
ATOM      5  C   UNL     1      34.734 -23.705 -14.262  0.00  0.00    +0.216 C 
ATOM      6  C   UNL     1      35.811 -24.560 -13.805  0.00  0.00    +0.180 C 
ATOM      7  C   UNL     1      36.186 -22.943 -15.942  0.00  0.00    +0.131 C 
ATOM      8  C   UNL     1      37.210 -23.733 -15.548  0.00  0.00    +0.156 C 
ATOM      9  C   UNL     1      37.826 -25.451 -13.817  0.00  0.00    +0.088 C 
ATOM     10  C   UNL     1      37.050 -25.955 -12.795  0.00  0.00    +0.117 C 
ATOM     11  H   UNL     1      33.516 -23.897 -12.664  0.00  0.00    +0.155 HD
ENDROOT
BRANCH   7  14
ATOM     12  N   UNL     1      34.980 -21.139 -20.442  0.00  0.00    -0.236 N 
ATOM     13  N   UNL     1      35.488 -20.193 -21.248  0.00  0.00    -0.180 NA
ATOM     14  C   UNL     1      36.354 -22.057 -17.116  0.00  0.00    +0.028 C 
ATOM     15  C   UNL     1      35.660 -21.298 -19.265  0.00  0.00    +0.067 C 
ATOM     16  C   UNL     1      35.456 -22.158 -18.183  0.00  0.00    +0.018 C 
ATOM     17  C   UNL     1      36.697 -20.374 -19.313  0.00  0.00    +0.035 C 
ATOM     18  C   UNL     1      37.405 -21.138 -17.139  0.00  0.00    +0.002 C 
ATOM     19  C   UNL     1      37.592 -20.285 -18.234  0.00  0.00    +0.003 C 
ATOM     20  C   UNL     1      36.533 -19.729 -20.559  0.00  0.00    +0.119 C 
ATOM     21  H   UNL     1      34.188 -21.673 -20.678  0.00  0.00    +0.174 HD
ENDBRANCH   7  14
BRANCH   1  25
ATOM     22  C   UNL     1      29.796 -22.905 -15.371  0.00  0.00    +0.048 C 
ATOM     23  C   UNL     1      29.888 -23.134 -13.997  0.00  0.00    +0.016 C 
ATOM     24  C   UNL     1      30.944 -22.940 -16.162  0.00  0.00    +0.016 C 
ATOM     25  C   UNL     1      32.275 -23.435 -14.208  0.00  0.00    +0.050 C 
ATOM     26  C   UNL     1      31.128 -23.399 -13.416  0.00  0.00    +0.016 C 
ATOM     27  C   UNL     1      32.183 -23.206 -15.581  0.00  0.00    +0.016 C 
BRANCH  22  29
ATOM     28  O   UNL     1      25.972 -22.355 -17.029  0.00  0.00    -0.350 OA
ATOM     29  N   UNL     1      28.552 -22.639 -15.953  0.00  0.00    -0.303 N 
ATOM     30  C   UNL     1      27.391 -22.483 -15.067  0.00  0.00    +0.123 C 
ATOM     31  C   UNL     1      28.249 -23.147 -17.296  0.00  0.00    +0.123 C 
ATOM     32  C   UNL     1      26.289 -21.719 -15.792  0.00  0.00    +0.164 C 
ATOM     33  C   UNL     1      27.101 -22.348 -17.902  0.00  0.00    +0.164 C 
ENDBRANCH  22  29
ENDBRANCH   1  25
TORSDOF 3
ENDMDL
