MODEL 1
REMARK VINA RESULT:     -10.4      0.000      0.000
REMARK  Name = 6433114
REMARK  8 active torsions:
REMARK  status: ('A' for Active; 'I' for Inactive)
REMARK    1  A    between atoms: C_3  and  O_15
REMARK    2  A    between atoms: C_5  and  C_9
REMARK    3  A    between atoms: O_15  and  C_16
REMARK    4  A    between atoms: C_16  and  C_17
REMARK    5  A    between atoms: C_17  and  C_18
REMARK    6  A    between atoms: C_18  and  C_19
REMARK    7  A    between atoms: C_19  and  C_20
REMARK    8  A    between atoms: C_20  and  N_21
REMARK                            x       y       z     vdW  Elec       q    Type
REMARK                         _______ _______ _______ _____ _____    ______ ____
ROOT
ATOM      1  N   UNL     1      34.587 -16.137 -23.575  0.00  0.00    -0.311 NA
ATOM      2  N   UNL     1      34.619 -18.513 -23.177  0.00  0.00    -0.347 NA
ATOM      3  C   UNL     1      34.537 -15.953 -22.240  0.00  0.00    +0.270 C 
ATOM      4  C   UNL     1      34.525 -16.983 -21.323  0.00  0.00    +0.159 C 
ATOM      5  C   UNL     1      34.568 -18.255 -21.854  0.00  0.00    +0.132 C 
ATOM      6  C   UNL     1      34.626 -17.424 -23.968  0.00  0.00    +0.117 C 
ATOM      7  C   UNL     1      34.681 -17.670 -25.438  0.00  0.00    +0.143 C 
ENDROOT
BRANCH   5   9
ATOM      8  F   UNL     1      34.538 -22.757 -18.563  0.00  0.00    -0.204 F 
ATOM      9  C   UNL     1      34.561 -19.420 -21.001  0.00  0.00    +0.027 C 
ATOM     10  C   UNL     1      33.349 -19.963 -20.567  0.00  0.00    +0.005 C 
ATOM     11  C   UNL     1      35.764 -20.010 -20.609  0.00  0.00    +0.005 C 
ATOM     12  C   UNL     1      33.342 -21.089 -19.743  0.00  0.00    +0.030 C 
ATOM     13  C   UNL     1      35.757 -21.136 -19.785  0.00  0.00    +0.030 C 
ATOM     14  C   UNL     1      34.546 -21.674 -19.352  0.00  0.00    +0.140 C 
ENDBRANCH   5   9
BRANCH   3  15
ATOM     15  O   UNL     1      34.495 -14.658 -21.791  0.00  0.00    -0.454 OA
BRANCH  15  16
ATOM     16  C   UNL     1      33.860 -13.707 -22.635  0.00  0.00    +0.208 C 
BRANCH  16  17
ATOM     17  C   UNL     1      32.412 -13.516 -22.205  0.00  0.00    +0.047 C 
BRANCH  17  18
ATOM     18  C   UNL     1      32.285 -13.236 -20.705  0.00  0.00    +0.002 C 
BRANCH  18  19
ATOM     19  C   UNL     1      31.708 -11.843 -20.446  0.00  0.00    -0.023 C 
BRANCH  19  20
ATOM     20  C   UNL     1      31.056 -11.271 -21.704  0.00  0.00    -0.077 C 
BRANCH  20  21
ATOM     21  N   UNL     1      31.498  -9.895 -21.925  0.00  0.00    +0.387 N 
ATOM     22  C   UNL     1      31.965  -9.296 -20.667  0.00  0.00    -0.077 C 
ATOM     23  C   UNL     1      32.547  -9.851 -22.954  0.00  0.00    -0.077 C 
ATOM     24  C   UNL     1      32.385  -7.839 -20.872  0.00  0.00    -0.023 C 
ATOM     25  C   UNL     1      32.985  -8.413 -23.234  0.00  0.00    -0.023 C 
ATOM     26  C   UNL     1      33.446  -7.716 -21.959  0.00  0.00    -0.004 C 
ATOM     27  H   UNL     1      30.706  -9.347 -22.260  0.00  0.00    -0.080 HD
ENDBRANCH  20  21
ENDBRANCH  19  20
ENDBRANCH  18  19
ENDBRANCH  17  18
ENDBRANCH  16  17
ENDBRANCH  15  16
ENDBRANCH   3  15
TORSDOF 8
ENDMDL
MODEL 2
REMARK VINA RESULT:     -10.0      4.643      8.201
REMARK  Name = 6433114
REMARK  8 active torsions:
REMARK  status: ('A' for Active; 'I' for Inactive)
REMARK    1  A    between atoms: C_3  and  O_15
REMARK    2  A    between atoms: C_5  and  C_9
REMARK    3  A    between atoms: O_15  and  C_16
REMARK    4  A    between atoms: C_16  and  C_17
REMARK    5  A    between atoms: C_17  and  C_18
REMARK    6  A    between atoms: C_18  and  C_19
REMARK    7  A    between atoms: C_19  and  C_20
REMARK    8  A    between atoms: C_20  and  N_21
REMARK                            x       y       z     vdW  Elec       q    Type
REMARK                         _______ _______ _______ _____ _____    ______ ____
ROOT
ATOM      1  N   UNL     1      31.801 -22.723 -17.331  0.00  0.00    -0.311 NA
ATOM      2  N   UNL     1      32.978 -23.416 -15.345  0.00  0.00    -0.347 NA
ATOM      3  C   UNL     1      32.984 -22.703 -17.978  0.00  0.00    +0.270 C 
ATOM      4  C   UNL     1      34.189 -23.022 -17.386  0.00  0.00    +0.159 C 
ATOM      5  C   UNL     1      34.124 -23.375 -16.054  0.00  0.00    +0.132 C 
ATOM      6  C   UNL     1      31.870 -23.083 -16.035  0.00  0.00    +0.117 C 
ATOM      7  C   UNL     1      30.583 -23.117 -15.284  0.00  0.00    +0.143 C 
ENDROOT
BRANCH   5   9
ATOM      8  F   UNL     1      38.721 -24.752 -13.213  0.00  0.00    -0.204 F 
ATOM      9  C   UNL     1      35.314 -23.731 -15.319  0.00  0.00    +0.027 C 
ATOM     10  C   UNL     1      35.217 -24.511 -14.164  0.00  0.00    +0.005 C 
ATOM     11  C   UNL     1      36.567 -23.298 -15.759  0.00  0.00    +0.005 C 
ATOM     12  C   UNL     1      36.368 -24.854 -13.453  0.00  0.00    +0.030 C 
ATOM     13  C   UNL     1      37.717 -23.642 -15.049  0.00  0.00    +0.030 C 
ATOM     14  C   UNL     1      37.616 -24.420 -13.895  0.00  0.00    +0.140 C 
ENDBRANCH   5   9
BRANCH   3  15
ATOM     15  O   UNL     1      32.964 -22.341 -19.300  0.00  0.00    -0.454 OA
BRANCH  15  16
ATOM     16  C   UNL     1      33.746 -21.213 -19.667  0.00  0.00    +0.208 C 
BRANCH  16  17
ATOM     17  C   UNL     1      32.935 -20.288 -20.566  0.00  0.00    +0.047 C 
BRANCH  17  18
ATOM     18  C   UNL     1      33.721 -19.039 -20.973  0.00  0.00    +0.002 C 
BRANCH  18  19
ATOM     19  C   UNL     1      34.773 -19.367 -22.036  0.00  0.00    -0.023 C 
BRANCH  19  20
ATOM     20  C   UNL     1      35.886 -18.321 -22.052  0.00  0.00    -0.077 C 
BRANCH  20  21
ATOM     21  N   UNL     1      35.606 -17.294 -23.055  0.00  0.00    +0.387 N 
ATOM     22  C   UNL     1      34.914 -17.881 -24.212  0.00  0.00    -0.077 C 
ATOM     23  C   UNL     1      34.820 -16.201 -22.466  0.00  0.00    -0.077 C 
ATOM     24  C   UNL     1      34.656 -16.829 -25.292  0.00  0.00    -0.023 C 
ATOM     25  C   UNL     1      34.560 -15.094 -23.488  0.00  0.00    -0.023 C 
ATOM     26  C   UNL     1      33.877 -15.642 -24.736  0.00  0.00    -0.004 C 
ATOM     27  H   UNL     1      36.490 -16.906 -23.382  0.00  0.00    -0.080 HD
ENDBRANCH  20  21
ENDBRANCH  19  20
ENDBRANCH  18  19
ENDBRANCH  17  18
ENDBRANCH  16  17
ENDBRANCH  15  16
ENDBRANCH   3  15
TORSDOF 8
ENDMDL
MODEL 3
REMARK VINA RESULT:      -9.9      6.781     11.815
REMARK  Name = 6433114
REMARK  8 active torsions:
REMARK  status: ('A' for Active; 'I' for Inactive)
REMARK    1  A    between atoms: C_3  and  O_15
REMARK    2  A    between atoms: C_5  and  C_9
REMARK    3  A    between atoms: O_15  and  C_16
REMARK    4  A    between atoms: C_16  and  C_17
REMARK    5  A    between atoms: C_17  and  C_18
REMARK    6  A    between atoms: C_18  and  C_19
REMARK    7  A    between atoms: C_19  and  C_20
REMARK    8  A    between atoms: C_20  and  N_21
REMARK                            x       y       z     vdW  Elec       q    Type
REMARK                         _______ _______ _______ _____ _____    ______ ____
ROOT
ATOM      1  N   UNL     1      35.113 -22.820 -17.303  0.00  0.00    -0.311 NA
ATOM      2  N   UNL     1      36.311 -21.212 -18.641  0.00  0.00    -0.347 NA
ATOM      3  C   UNL     1      34.061 -22.668 -18.133  0.00  0.00    +0.270 C 
ATOM      4  C   UNL     1      34.056 -21.820 -19.221  0.00  0.00    +0.159 C 
ATOM      5  C   UNL     1      35.220 -21.110 -19.429  0.00  0.00    +0.132 C 
ATOM      6  C   UNL     1      36.190 -22.072 -17.612  0.00  0.00    +0.117 C 
ATOM      7  C   UNL     1      37.375 -22.212 -16.719  0.00  0.00    +0.143 C 
ENDROOT
BRANCH   5   9
ATOM      8  F   UNL     1      35.699 -17.549 -23.692  0.00  0.00    -0.204 F 
ATOM      9  C   UNL     1      35.345 -20.189 -20.533  0.00  0.00    +0.027 C 
ATOM     10  C   UNL     1      34.265 -19.977 -21.394  0.00  0.00    +0.005 C 
ATOM     11  C   UNL     1      36.544 -19.504 -20.744  0.00  0.00    +0.005 C 
ATOM     12  C   UNL     1      34.386 -19.086 -22.461  0.00  0.00    +0.030 C 
ATOM     13  C   UNL     1      36.664 -18.614 -21.811  0.00  0.00    +0.030 C 
ATOM     14  C   UNL     1      35.585 -18.405 -22.669  0.00  0.00    +0.140 C 
ENDBRANCH   5   9
BRANCH   3  15
ATOM     15  O   UNL     1      32.940 -23.408 -17.857  0.00  0.00    -0.454 OA
BRANCH  15  16
ATOM     16  C   UNL     1      31.949 -22.794 -17.046  0.00  0.00    +0.208 C 
BRANCH  16  17
ATOM     17  C   UNL     1      31.712 -23.628 -15.793  0.00  0.00    +0.047 C 
BRANCH  17  18
ATOM     18  C   UNL     1      32.704 -23.291 -14.677  0.00  0.00    +0.002 C 
BRANCH  18  19
ATOM     19  C   UNL     1      33.531 -24.516 -14.280  0.00  0.00    -0.023 C 
BRANCH  19  20
ATOM     20  C   UNL     1      34.692 -24.126 -13.366  0.00  0.00    -0.077 C 
BRANCH  20  21
ATOM     21  N   UNL     1      35.806 -25.059 -13.534  0.00  0.00    +0.387 N 
ATOM     22  C   UNL     1      35.934 -25.460 -14.943  0.00  0.00    -0.077 C 
ATOM     23  C   UNL     1      37.054 -24.464 -13.037  0.00  0.00    -0.077 C 
ATOM     24  C   UNL     1      37.064 -26.474 -15.127  0.00  0.00    -0.023 C 
ATOM     25  C   UNL     1      38.221 -25.445 -13.159  0.00  0.00    -0.023 C 
ATOM     26  C   UNL     1      38.386 -25.934 -14.593  0.00  0.00    -0.004 C 
ATOM     27  H   UNL     1      35.616 -25.897 -12.984  0.00  0.00    -0.080 HD
ENDBRANCH  20  21
ENDBRANCH  19  20
ENDBRANCH  18  19
ENDBRANCH  17  18
ENDBRANCH  16  17
ENDBRANCH  15  16
ENDBRANCH   3  15
TORSDOF 8
ENDMDL
MODEL 4
REMARK VINA RESULT:      -9.9      2.184      3.896
REMARK  Name = 6433114
REMARK  8 active torsions:
REMARK  status: ('A' for Active; 'I' for Inactive)
REMARK    1  A    between atoms: C_3  and  O_15
REMARK    2  A    between atoms: C_5  and  C_9
REMARK    3  A    between atoms: O_15  and  C_16
REMARK    4  A    between atoms: C_16  and  C_17
REMARK    5  A    between atoms: C_17  and  C_18
REMARK    6  A    between atoms: C_18  and  C_19
REMARK    7  A    between atoms: C_19  and  C_20
REMARK    8  A    between atoms: C_20  and  N_21
REMARK                            x       y       z     vdW  Elec       q    Type
REMARK                         _______ _______ _______ _____ _____    ______ ____
ROOT
ATOM      1  N   UNL     1      33.257 -13.135 -25.261  0.00  0.00    -0.311 NA
ATOM      2  N   UNL     1      33.670 -15.484 -24.921  0.00  0.00    -0.347 NA
ATOM      3  C   UNL     1      33.769 -12.907 -24.034  0.00  0.00    +0.270 C 
ATOM      4  C   UNL     1      34.245 -13.901 -23.204  0.00  0.00    +0.159 C 
ATOM      5  C   UNL     1      34.170 -15.184 -23.705  0.00  0.00    +0.132 C 
ATOM      6  C   UNL     1      33.239 -14.428 -25.636  0.00  0.00    +0.117 C 
ATOM      7  C   UNL     1      32.680 -14.721 -26.987  0.00  0.00    +0.143 C 
ENDROOT
BRANCH   5   9
ATOM      8  F   UNL     1      35.964 -19.547 -20.733  0.00  0.00    -0.204 F 
ATOM      9  C   UNL     1      34.633 -16.313 -22.936  0.00  0.00    +0.027 C 
ATOM     10  C   UNL     1      34.968 -17.508 -23.576  0.00  0.00    +0.005 C 
ATOM     11  C   UNL     1      34.752 -16.215 -21.547  0.00  0.00    +0.005 C 
ATOM     12  C   UNL     1      35.416 -18.600 -22.832  0.00  0.00    +0.030 C 
ATOM     13  C   UNL     1      35.200 -17.307 -20.803  0.00  0.00    +0.030 C 
ATOM     14  C   UNL     1      35.532 -18.499 -21.446  0.00  0.00    +0.140 C 
ENDBRANCH   5   9
BRANCH   3  15
ATOM     15  O   UNL     1      33.808 -11.604 -23.608  0.00  0.00    -0.454 OA
BRANCH  15  16
ATOM     16  C   UNL     1      33.952 -10.606 -24.608  0.00  0.00    +0.208 C 
BRANCH  16  17
ATOM     17  C   UNL     1      35.017  -9.600 -24.189  0.00  0.00    +0.047 C 
BRANCH  17  18
ATOM     18  C   UNL     1      34.480  -8.167 -24.161  0.00  0.00    +0.002 C 
BRANCH  18  19
ATOM     19  C   UNL     1      34.001  -7.779 -22.760  0.00  0.00    -0.023 C 
BRANCH  19  20
ATOM     20  C   UNL     1      32.517  -8.093 -22.576  0.00  0.00    -0.077 C 
BRANCH  20  21
ATOM     21  N   UNL     1      32.348  -9.265 -21.718  0.00  0.00    +0.387 N 
ATOM     22  C   UNL     1      32.164  -8.855 -20.318  0.00  0.00    -0.077 C 
ATOM     23  C   UNL     1      31.220 -10.084 -22.183  0.00  0.00    -0.077 C 
ATOM     24  C   UNL     1      32.035 -10.071 -19.400  0.00  0.00    -0.023 C 
ATOM     25  C   UNL     1      31.060 -11.341 -21.326  0.00  0.00    -0.023 C 
ATOM     26  C   UNL     1      30.905 -10.989 -19.851  0.00  0.00    -0.004 C 
ATOM     27  H   UNL     1      33.193  -9.833 -21.771  0.00  0.00    -0.080 HD
ENDBRANCH  20  21
ENDBRANCH  19  20
ENDBRANCH  18  19
ENDBRANCH  17  18
ENDBRANCH  16  17
ENDBRANCH  15  16
ENDBRANCH   3  15
TORSDOF 8
ENDMDL
MODEL 5
REMARK VINA RESULT:      -9.8      4.998      8.642
REMARK  Name = 6433114
REMARK  8 active torsions:
REMARK  status: ('A' for Active; 'I' for Inactive)
REMARK    1  A    between atoms: C_3  and  O_15
REMARK    2  A    between atoms: C_5  and  C_9
REMARK    3  A    between atoms: O_15  and  C_16
REMARK    4  A    between atoms: C_16  and  C_17
REMARK    5  A    between atoms: C_17  and  C_18
REMARK    6  A    between atoms: C_18  and  C_19
REMARK    7  A    between atoms: C_19  and  C_20
REMARK    8  A    between atoms: C_20  and  N_21
REMARK                            x       y       z     vdW  Elec       q    Type
REMARK                         _______ _______ _______ _____ _____    ______ ____
ROOT
ATOM      1  N   UNL     1      36.606 -22.846 -15.959  0.00  0.00    -0.311 NA
ATOM      2  N   UNL     1      34.886 -23.738 -14.526  0.00  0.00    -0.347 NA
ATOM      3  C   UNL     1      35.664 -22.653 -16.905  0.00  0.00    +0.270 C 
ATOM      4  C   UNL     1      34.333 -22.972 -16.739  0.00  0.00    +0.159 C 
ATOM      5  C   UNL     1      33.998 -23.517 -15.517  0.00  0.00    +0.132 C 
ATOM      6  C   UNL     1      36.154 -23.384 -14.811  0.00  0.00    +0.117 C 
ATOM      7  C   UNL     1      37.166 -23.614 -13.740  0.00  0.00    +0.143 C 
ENDROOT
BRANCH   5   9
ATOM      8  F   UNL     1      28.743 -24.980 -14.359  0.00  0.00    -0.204 F 
ATOM      9  C   UNL     1      32.638 -23.895 -15.216  0.00  0.00    +0.027 C 
ATOM     10  C   UNL     1      31.599 -23.511 -16.068  0.00  0.00    +0.005 C 
ATOM     11  C   UNL     1      32.354 -24.648 -14.075  0.00  0.00    +0.005 C 
ATOM     12  C   UNL     1      30.284 -23.877 -15.778  0.00  0.00    +0.030 C 
ATOM     13  C   UNL     1      31.040 -25.014 -13.784  0.00  0.00    +0.030 C 
ATOM     14  C   UNL     1      30.005 -24.628 -14.636  0.00  0.00    +0.140 C 
ENDBRANCH   5   9
BRANCH   3  15
ATOM     15  O   UNL     1      36.078 -22.108 -18.093  0.00  0.00    -0.454 OA
BRANCH  15  16
ATOM     16  C   UNL     1      35.067 -21.800 -19.043  0.00  0.00    +0.208 C 
BRANCH  16  17
ATOM     17  C   UNL     1      35.644 -20.932 -20.154  0.00  0.00    +0.047 C 
BRANCH  17  18
ATOM     18  C   UNL     1      34.614 -19.949 -20.716  0.00  0.00    +0.002 C 
BRANCH  18  19
ATOM     19  C   UNL     1      35.027 -19.440 -22.099  0.00  0.00    -0.023 C 
BRANCH  19  20
ATOM     20  C   UNL     1      35.996 -18.265 -21.988  0.00  0.00    -0.077 C 
BRANCH  20  21
ATOM     21  N   UNL     1      35.656 -17.231 -22.965  0.00  0.00    +0.387 N 
ATOM     22  C   UNL     1      35.016 -17.830 -24.146  0.00  0.00    -0.077 C 
ATOM     23  C   UNL     1      34.792 -16.211 -22.355  0.00  0.00    -0.077 C 
ATOM     24  C   UNL     1      34.698 -16.767 -25.199  0.00  0.00    -0.023 C 
ATOM     25  C   UNL     1      34.467 -15.095 -23.349  0.00  0.00    -0.023 C 
ATOM     26  C   UNL     1      33.835 -15.653 -24.619  0.00  0.00    -0.004 C 
ATOM     27  H   UNL     1      36.515 -16.774 -23.271  0.00  0.00    -0.080 HD
ENDBRANCH  20  21
ENDBRANCH  19  20
ENDBRANCH  18  19
ENDBRANCH  17  18
ENDBRANCH  16  17
ENDBRANCH  15  16
ENDBRANCH   3  15
TORSDOF 8
ENDMDL
MODEL 6
REMARK VINA RESULT:      -9.8      5.696     11.368
REMARK  Name = 6433114
REMARK  8 active torsions:
REMARK  status: ('A' for Active; 'I' for Inactive)
REMARK    1  A    between atoms: C_3  and  O_15
REMARK    2  A    between atoms: C_5  and  C_9
REMARK    3  A    between atoms: O_15  and  C_16
REMARK    4  A    between atoms: C_16  and  C_17
REMARK    5  A    between atoms: C_17  and  C_18
REMARK    6  A    between atoms: C_18  and  C_19
REMARK    7  A    between atoms: C_19  and  C_20
REMARK    8  A    between atoms: C_20  and  N_21
REMARK                            x       y       z     vdW  Elec       q    Type
REMARK                         _______ _______ _______ _____ _____    ______ ____
ROOT
ATOM      1  N   UNL     1      34.803 -22.053 -18.548  0.00  0.00    -0.311 NA
ATOM      2  N   UNL     1      35.956 -20.449 -19.928  0.00  0.00    -0.347 NA
ATOM      3  C   UNL     1      33.654 -21.687 -19.150  0.00  0.00    +0.270 C 
ATOM      4  C   UNL     1      33.575 -20.723 -20.134  0.00  0.00    +0.159 C 
ATOM      5  C   UNL     1      34.770 -20.132 -20.487  0.00  0.00    +0.132 C 
ATOM      6  C   UNL     1      35.901 -21.403 -18.980  0.00  0.00    +0.117 C 
ATOM      7  C   UNL     1      37.193 -21.781 -18.339  0.00  0.00    +0.143 C 
ENDROOT
BRANCH   5   9
ATOM      8  F   UNL     1      34.977 -16.181 -24.416  0.00  0.00    -0.204 F 
ATOM      9  C   UNL     1      34.825 -19.110 -21.504  0.00  0.00    +0.027 C 
ATOM     10  C   UNL     1      34.854 -19.464 -22.855  0.00  0.00    +0.005 C 
ATOM     11  C   UNL     1      34.846 -17.761 -21.142  0.00  0.00    +0.005 C 
ATOM     12  C   UNL     1      34.906 -18.475 -23.837  0.00  0.00    +0.030 C 
ATOM     13  C   UNL     1      34.898 -16.772 -22.124  0.00  0.00    +0.030 C 
ATOM     14  C   UNL     1      34.929 -17.130 -23.472  0.00  0.00    +0.140 C 
ENDBRANCH   5   9
BRANCH   3  15
ATOM     15  O   UNL     1      32.508 -22.321 -18.742  0.00  0.00    -0.454 OA
BRANCH  15  16
ATOM     16  C   UNL     1      32.585 -23.072 -17.539  0.00  0.00    +0.208 C 
BRANCH  16  17
ATOM     17  C   UNL     1      31.334 -22.842 -16.701  0.00  0.00    +0.047 C 
BRANCH  17  18
ATOM     18  C   UNL     1      31.573 -23.121 -15.215  0.00  0.00    +0.002 C 
BRANCH  18  19
ATOM     19  C   UNL     1      33.052 -23.392 -14.930  0.00  0.00    -0.023 C 
BRANCH  19  20
ATOM     20  C   UNL     1      33.238 -24.093 -13.586  0.00  0.00    -0.077 C 
BRANCH  20  21
ATOM     21  N   UNL     1      34.474 -24.874 -13.585  0.00  0.00    +0.387 N 
ATOM     22  C   UNL     1      35.139 -24.784 -14.893  0.00  0.00    -0.077 C 
ATOM     23  C   UNL     1      35.365 -24.426 -12.506  0.00  0.00    -0.077 C 
ATOM     24  C   UNL     1      36.409 -25.636 -14.926  0.00  0.00    -0.023 C 
ATOM     25  C   UNL     1      36.642 -25.266 -12.460  0.00  0.00    -0.023 C 
ATOM     26  C   UNL     1      37.364 -25.250 -13.802  0.00  0.00    -0.004 C 
ATOM     27  H   UNL     1      34.242 -25.853 -13.417  0.00  0.00    -0.080 HD
ENDBRANCH  20  21
ENDBRANCH  19  20
ENDBRANCH  18  19
ENDBRANCH  17  18
ENDBRANCH  16  17
ENDBRANCH  15  16
ENDBRANCH   3  15
TORSDOF 8
ENDMDL
MODEL 7
REMARK VINA RESULT:      -9.8      3.654      9.618
REMARK  Name = 6433114
REMARK  8 active torsions:
REMARK  status: ('A' for Active; 'I' for Inactive)
REMARK    1  A    between atoms: C_3  and  O_15
REMARK    2  A    between atoms: C_5  and  C_9
REMARK    3  A    between atoms: O_15  and  C_16
REMARK    4  A    between atoms: C_16  and  C_17
REMARK    5  A    between atoms: C_17  and  C_18
REMARK    6  A    between atoms: C_18  and  C_19
REMARK    7  A    between atoms: C_19  and  C_20
REMARK    8  A    between atoms: C_20  and  N_21
REMARK                            x       y       z     vdW  Elec       q    Type
REMARK                         _______ _______ _______ _____ _____    ______ ____
ROOT
ATOM      1  N   UNL     1      33.291 -15.564 -22.982  0.00  0.00    -0.311 NA
ATOM      2  N   UNL     1      32.881 -13.412 -21.979  0.00  0.00    -0.347 NA
ATOM      3  C   UNL     1      33.482 -14.936 -24.160  0.00  0.00    +0.270 C 
ATOM      4  C   UNL     1      33.391 -13.569 -24.325  0.00  0.00    +0.159 C 
ATOM      5  C   UNL     1      33.085 -12.850 -23.188  0.00  0.00    +0.132 C 
ATOM      6  C   UNL     1      32.998 -14.753 -21.948  0.00  0.00    +0.117 C 
ATOM      7  C   UNL     1      32.780 -15.410 -20.628  0.00  0.00    +0.143 C 
ENDROOT
BRANCH   5   9
ATOM      8  F   UNL     1      32.601  -7.297 -23.338  0.00  0.00    -0.204 F 
ATOM      9  C   UNL     1      32.960 -11.413 -23.226  0.00  0.00    +0.027 C 
ATOM     10  C   UNL     1      33.852 -10.651 -23.985  0.00  0.00    +0.005 C 
ATOM     11  C   UNL     1      31.946 -10.778 -22.506  0.00  0.00    +0.005 C 
ATOM     12  C   UNL     1      33.731  -9.262 -24.022  0.00  0.00    +0.030 C 
ATOM     13  C   UNL     1      31.824  -9.388 -22.543  0.00  0.00    +0.030 C 
ATOM     14  C   UNL     1      32.718  -8.631 -23.301  0.00  0.00    +0.140 C 
ENDBRANCH   5   9
BRANCH   3  15
ATOM     15  O   UNL     1      33.782 -15.721 -25.243  0.00  0.00    -0.454 OA
BRANCH  15  16
ATOM     16  C   UNL     1      34.929 -16.553 -25.135  0.00  0.00    +0.208 C 
BRANCH  16  17
ATOM     17  C   UNL     1      34.504 -18.005 -24.959  0.00  0.00    +0.047 C 
BRANCH  17  18
ATOM     18  C   UNL     1      35.320 -18.721 -23.881  0.00  0.00    +0.002 C 
BRANCH  18  19
ATOM     19  C   UNL     1      34.592 -18.713 -22.534  0.00  0.00    -0.023 C 
BRANCH  19  20
ATOM     20  C   UNL     1      35.581 -18.662 -21.371  0.00  0.00    -0.077 C 
BRANCH  20  21
ATOM     21  N   UNL     1      35.198 -19.622 -20.336  0.00  0.00    +0.387 N 
ATOM     22  C   UNL     1      33.875 -20.193 -20.628  0.00  0.00    -0.077 C 
ATOM     23  C   UNL     1      36.215 -20.675 -20.211  0.00  0.00    -0.077 C 
ATOM     24  C   UNL     1      33.438 -21.162 -19.529  0.00  0.00    -0.023 C 
ATOM     25  C   UNL     1      35.854 -21.660 -19.097  0.00  0.00    -0.023 C 
ATOM     26  C   UNL     1      34.472 -22.263 -19.317  0.00  0.00    -0.004 C 
ATOM     27  H   UNL     1      35.139 -19.133 -19.443  0.00  0.00    -0.080 HD
ENDBRANCH  20  21
ENDBRANCH  19  20
ENDBRANCH  18  19
ENDBRANCH  17  18
ENDBRANCH  16  17
ENDBRANCH  15  16
ENDBRANCH   3  15
TORSDOF 8
ENDMDL
MODEL 8
REMARK VINA RESULT:      -9.8      2.826      4.533
REMARK  Name = 6433114
REMARK  8 active torsions:
REMARK  status: ('A' for Active; 'I' for Inactive)
REMARK    1  A    between atoms: C_3  and  O_15
REMARK    2  A    between atoms: C_5  and  C_9
REMARK    3  A    between atoms: O_15  and  C_16
REMARK    4  A    between atoms: C_16  and  C_17
REMARK    5  A    between atoms: C_17  and  C_18
REMARK    6  A    between atoms: C_18  and  C_19
REMARK    7  A    between atoms: C_19  and  C_20
REMARK    8  A    between atoms: C_20  and  N_21
REMARK                            x       y       z     vdW  Elec       q    Type
REMARK                         _______ _______ _______ _____ _____    ______ ____
ROOT
ATOM      1  N   UNL     1      32.728 -11.926 -22.958  0.00  0.00    -0.311 NA
ATOM      2  N   UNL     1      34.005 -13.567 -24.176  0.00  0.00    -0.347 NA
ATOM      3  C   UNL     1      32.303 -12.915 -22.146  0.00  0.00    +0.270 C 
ATOM      4  C   UNL     1      32.679 -14.236 -22.283  0.00  0.00    +0.159 C 
ATOM      5  C   UNL     1      33.540 -14.506 -23.326  0.00  0.00    +0.132 C 
ATOM      6  C   UNL     1      33.565 -12.317 -23.938  0.00  0.00    +0.117 C 
ATOM      7  C   UNL     1      34.057 -11.251 -24.857  0.00  0.00    +0.143 C 
ENDROOT
BRANCH   5   9
ATOM      8  F   UNL     1      35.353 -19.688 -24.299  0.00  0.00    -0.204 F 
ATOM      9  C   UNL     1      34.009 -15.847 -23.577  0.00  0.00    +0.027 C 
ATOM     10  C   UNL     1      34.086 -16.329 -24.886  0.00  0.00    +0.005 C 
ATOM     11  C   UNL     1      34.389 -16.669 -22.514  0.00  0.00    +0.005 C 
ATOM     12  C   UNL     1      34.539 -17.626 -25.129  0.00  0.00    +0.030 C 
ATOM     13  C   UNL     1      34.842 -17.966 -22.756  0.00  0.00    +0.030 C 
ATOM     14  C   UNL     1      34.916 -18.444 -24.065  0.00  0.00    +0.140 C 
ENDBRANCH   5   9
BRANCH   3  15
ATOM     15  O   UNL     1      31.447 -12.565 -21.133  0.00  0.00    -0.454 OA
BRANCH  15  16
ATOM     16  C   UNL     1      30.996 -11.218 -21.112  0.00  0.00    +0.208 C 
BRANCH  16  17
ATOM     17  C   UNL     1      31.008 -10.688 -19.684  0.00  0.00    +0.047 C 
BRANCH  17  18
ATOM     18  C   UNL     1      31.995  -9.532 -19.503  0.00  0.00    +0.002 C 
BRANCH  18  19
ATOM     19  C   UNL     1      32.202  -8.768 -20.813  0.00  0.00    -0.023 C 
BRANCH  19  20
ATOM     20  C   UNL     1      32.359  -7.269 -20.559  0.00  0.00    -0.077 C 
BRANCH  20  21
ATOM     21  N   UNL     1      32.529  -6.555 -21.824  0.00  0.00    +0.387 N 
ATOM     22  C   UNL     1      33.127  -7.437 -22.837  0.00  0.00    -0.077 C 
ATOM     23  C   UNL     1      31.244  -6.012 -22.285  0.00  0.00    -0.077 C 
ATOM     24  C   UNL     1      33.357  -6.690 -24.151  0.00  0.00    -0.023 C 
ATOM     25  C   UNL     1      31.413  -5.218 -23.581  0.00  0.00    -0.023 C 
ATOM     26  C   UNL     1      32.067  -6.065 -24.667  0.00  0.00    -0.004 C 
ATOM     27  H   UNL     1      33.166  -5.772 -21.674  0.00  0.00    -0.080 HD
ENDBRANCH  20  21
ENDBRANCH  19  20
ENDBRANCH  18  19
ENDBRANCH  17  18
ENDBRANCH  16  17
ENDBRANCH  15  16
ENDBRANCH   3  15
TORSDOF 8
ENDMDL
MODEL 9
REMARK VINA RESULT:      -9.8      4.061     10.363
REMARK  Name = 6433114
REMARK  8 active torsions:
REMARK  status: ('A' for Active; 'I' for Inactive)
REMARK    1  A    between atoms: C_3  and  O_15
REMARK    2  A    between atoms: C_5  and  C_9
REMARK    3  A    between atoms: O_15  and  C_16
REMARK    4  A    between atoms: C_16  and  C_17
REMARK    5  A    between atoms: C_17  and  C_18
REMARK    6  A    between atoms: C_18  and  C_19
REMARK    7  A    between atoms: C_19  and  C_20
REMARK    8  A    between atoms: C_20  and  N_21
REMARK                            x       y       z     vdW  Elec       q    Type
REMARK                         _______ _______ _______ _____ _____    ______ ____
ROOT
ATOM      1  N   UNL     1      33.130 -12.542 -23.596  0.00  0.00    -0.311 NA
ATOM      2  N   UNL     1      33.108 -10.159 -23.952  0.00  0.00    -0.347 NA
ATOM      3  C   UNL     1      32.359 -12.348 -22.507  0.00  0.00    +0.270 C 
ATOM      4  C   UNL     1      31.928 -11.108 -22.082  0.00  0.00    +0.159 C 
ATOM      5  C   UNL     1      32.337 -10.039 -22.852  0.00  0.00    +0.132 C 
ATOM      6  C   UNL     1      33.462 -11.420 -24.262  0.00  0.00    +0.117 C 
ATOM      7  C   UNL     1      34.315 -11.594 -25.473  0.00  0.00    +0.143 C 
ENDROOT
BRANCH   5   9
ATOM      8  F   UNL     1      30.855  -4.822 -21.552  0.00  0.00    -0.204 F 
ATOM      9  C   UNL     1      31.954  -8.688 -22.516  0.00  0.00    +0.027 C 
ATOM     10  C   UNL     1      31.192  -7.932 -23.409  0.00  0.00    +0.005 C 
ATOM     11  C   UNL     1      32.342  -8.133 -21.294  0.00  0.00    +0.005 C 
ATOM     12  C   UNL     1      30.822  -6.627 -23.084  0.00  0.00    +0.030 C 
ATOM     13  C   UNL     1      31.973  -6.827 -20.969  0.00  0.00    +0.030 C 
ATOM     14  C   UNL     1      31.213  -6.075 -21.864  0.00  0.00    +0.140 C 
ENDBRANCH   5   9
BRANCH   3  15
ATOM     15  O   UNL     1      31.995 -13.461 -21.794  0.00  0.00    -0.454 OA
BRANCH  15  16
ATOM     16  C   UNL     1      32.770 -14.635 -21.999  0.00  0.00    +0.208 C 
BRANCH  16  17
ATOM     17  C   UNL     1      33.259 -15.176 -20.662  0.00  0.00    +0.047 C 
BRANCH  17  18
ATOM     18  C   UNL     1      34.585 -15.929 -20.792  0.00  0.00    +0.002 C 
BRANCH  18  19
ATOM     19  C   UNL     1      34.496 -17.033 -21.849  0.00  0.00    -0.023 C 
BRANCH  19  20
ATOM     20  C   UNL     1      35.518 -18.137 -21.583  0.00  0.00    -0.077 C 
BRANCH  20  21
ATOM     21  N   UNL     1      34.987 -19.100 -20.619  0.00  0.00    +0.387 N 
ATOM     22  C   UNL     1      33.624 -19.505 -20.995  0.00  0.00    -0.077 C 
ATOM     23  C   UNL     1      35.876 -20.265 -20.513  0.00  0.00    -0.077 C 
ATOM     24  C   UNL     1      33.035 -20.476 -19.969  0.00  0.00    -0.023 C 
ATOM     25  C   UNL     1      35.361 -21.259 -19.471  0.00  0.00    -0.023 C 
ATOM     26  C   UNL     1      33.933 -21.693 -19.779  0.00  0.00    -0.004 C 
ATOM     27  H   UNL     1      34.941 -18.654 -19.703  0.00  0.00    -0.080 HD
ENDBRANCH  20  21
ENDBRANCH  19  20
ENDBRANCH  18  19
ENDBRANCH  17  18
ENDBRANCH  16  17
ENDBRANCH  15  16
ENDBRANCH   3  15
TORSDOF 8
ENDMDL
