MODEL 1
REMARK VINA RESULT:     -10.5      0.000      0.000
REMARK  Name = 51352628
REMARK  5 active torsions:
REMARK  status: ('A' for Active; 'I' for Inactive)
REMARK    1  A    between atoms: C_4  and  N_12
REMARK    2  A    between atoms: C_6  and  C_18
REMARK    3  A    between atoms: C_21  and  C_23
REMARK    4  A    between atoms: C_23  and  C_24
REMARK    5  A    between atoms: C_24  and  O_25
REMARK                            x       y       z     vdW  Elec       q    Type
REMARK                         _______ _______ _______ _____ _____    ______ ____
ROOT
ATOM      1  N   UNL     1      34.432 -16.421 -22.220  0.00  0.00    -0.175 N 
ATOM      2  N   UNL     1      34.181 -16.554 -24.429  0.00  0.00    -0.391 NA
ATOM      3  N   UNL     1      34.468 -15.912 -20.959  0.00  0.00    -0.174 NA
ATOM      4  C   UNL     1      33.784 -14.361 -23.299  0.00  0.00    +0.096 C 
ATOM      5  C   UNL     1      34.115 -15.747 -23.388  0.00  0.00    +0.215 C 
ATOM      6  C   UNL     1      34.707 -17.718 -22.562  0.00  0.00    +0.170 C 
ATOM      7  C   UNL     1      34.546 -17.775 -23.924  0.00  0.00    +0.113 C 
ATOM      8  C   UNL     1      33.804 -13.802 -22.075  0.00  0.00    +0.041 C 
ATOM      9  C   UNL     1      34.163 -14.654 -20.917  0.00  0.00    +0.119 C 
ATOM     10  C   UNL     1      34.713 -18.928 -24.825  0.00  0.00    +0.064 C 
ENDROOT
BRANCH   4  12
ATOM     11  O   UNL     1      33.452 -12.388 -26.923  0.00  0.00    -0.350 OA
ATOM     12  N   UNL     1      33.463 -13.654 -24.419  0.00  0.00    -0.300 N 
ATOM     13  C   UNL     1      32.737 -14.251 -25.541  0.00  0.00    +0.123 C 
ATOM     14  C   UNL     1      33.646 -12.206 -24.512  0.00  0.00    +0.123 C 
ATOM     15  C   UNL     1      33.386 -13.815 -26.851  0.00  0.00    +0.164 C 
ATOM     16  C   UNL     1      34.256 -11.860 -25.866  0.00  0.00    +0.164 C 
ENDBRANCH   4  12
BRANCH   6  18
ATOM     17  N   UNL     1      36.798 -19.780 -20.267  0.00  0.00    -0.248 NA
ATOM     18  C   UNL     1      35.080 -18.742 -21.615  0.00  0.00    +0.023 C 
ATOM     19  C   UNL     1      34.145 -19.653 -21.137  0.00  0.00    +0.001 C 
ATOM     20  C   UNL     1      36.382 -18.847 -21.152  0.00  0.00    +0.096 C 
ATOM     21  C   UNL     1      35.861 -20.649 -19.825  0.00  0.00    +0.062 C 
ATOM     22  C   UNL     1      34.534 -20.627 -20.225  0.00  0.00    +0.015 C 
BRANCH  21  23
ATOM     23  C   UNL     1      36.314 -21.681 -18.847  0.00  0.00    +0.078 C 
BRANCH  23  24
ATOM     24  C   UNL     1      35.153 -22.358 -18.112  0.00  0.00    +0.149 C 
BRANCH  24  25
ATOM     25  O   UNL     1      35.602 -22.835 -16.851  0.00  0.00    -0.351 OA
ATOM     26  C   UNL     1      36.838 -22.240 -16.479  0.00  0.00    +0.174 C 
ENDBRANCH  24  25
ENDBRANCH  23  24
ENDBRANCH  21  23
ENDBRANCH   6  18
TORSDOF 5
ENDMDL
MODEL 2
REMARK VINA RESULT:     -10.2      4.015      6.577
REMARK  Name = 51352628
REMARK  5 active torsions:
REMARK  status: ('A' for Active; 'I' for Inactive)
REMARK    1  A    between atoms: C_4  and  N_12
REMARK    2  A    between atoms: C_6  and  C_18
REMARK    3  A    between atoms: C_21  and  C_23
REMARK    4  A    between atoms: C_23  and  C_24
REMARK    5  A    between atoms: C_24  and  O_25
REMARK                            x       y       z     vdW  Elec       q    Type
REMARK                         _______ _______ _______ _____ _____    ______ ____
ROOT
ATOM      1  N   UNL     1      32.722 -11.770 -23.035  0.00  0.00    -0.175 N 
ATOM      2  N   UNL     1      33.566  -9.991 -24.076  0.00  0.00    -0.391 NA
ATOM      3  N   UNL     1      32.013 -12.528 -22.156  0.00  0.00    -0.174 NA
ATOM      4  C   UNL     1      32.018  -9.639 -22.145  0.00  0.00    +0.096 C 
ATOM      5  C   UNL     1      32.777 -10.387 -23.096  0.00  0.00    +0.215 C 
ATOM      6  C   UNL     1      33.522 -12.253 -24.037  0.00  0.00    +0.170 C 
ATOM      7  C   UNL     1      34.029 -11.140 -24.662  0.00  0.00    +0.113 C 
ATOM      8  C   UNL     1      31.296 -10.337 -21.250  0.00  0.00    +0.041 C 
ATOM      9  C   UNL     1      31.339 -11.817 -21.310  0.00  0.00    +0.119 C 
ATOM     10  C   UNL     1      34.947 -11.066 -25.810  0.00  0.00    +0.064 C 
ENDROOT
BRANCH   4  12
ATOM     11  O   UNL     1      31.515  -5.546 -21.789  0.00  0.00    -0.350 OA
ATOM     12  N   UNL     1      32.037  -8.276 -22.166  0.00  0.00    -0.300 N 
ATOM     13  C   UNL     1      32.862  -7.490 -21.248  0.00  0.00    +0.123 C 
ATOM     14  C   UNL     1      31.389  -7.499 -23.222  0.00  0.00    +0.123 C 
ATOM     15  C   UNL     1      32.044  -6.321 -20.710  0.00  0.00    +0.164 C 
ATOM     16  C   UNL     1      30.635  -6.330 -22.598  0.00  0.00    +0.164 C 
ENDBRANCH   4  12
BRANCH   6  18
ATOM     17  N   UNL     1      34.693 -15.767 -23.623  0.00  0.00    -0.248 NA
ATOM     18  C   UNL     1      33.727 -13.657 -24.302  0.00  0.00    +0.023 C 
ATOM     19  C   UNL     1      33.191 -14.258 -25.435  0.00  0.00    +0.001 C 
ATOM     20  C   UNL     1      34.463 -14.448 -23.434  0.00  0.00    +0.096 C 
ATOM     21  C   UNL     1      34.157 -16.317 -24.735  0.00  0.00    +0.062 C 
ATOM     22  C   UNL     1      33.404 -15.614 -25.663  0.00  0.00    +0.015 C 
BRANCH  21  23
ATOM     23  C   UNL     1      34.406 -17.772 -24.948  0.00  0.00    +0.078 C 
BRANCH  23  24
ATOM     24  C   UNL     1      35.277 -18.396 -23.852  0.00  0.00    +0.149 C 
BRANCH  24  25
ATOM     25  O   UNL     1      34.537 -19.400 -23.170  0.00  0.00    -0.351 OA
ATOM     26  C   UNL     1      34.377 -19.085 -21.794  0.00  0.00    +0.174 C 
ENDBRANCH  24  25
ENDBRANCH  23  24
ENDBRANCH  21  23
ENDBRANCH   6  18
TORSDOF 5
ENDMDL
MODEL 3
REMARK VINA RESULT:      -9.7      1.085      2.286
REMARK  Name = 51352628
REMARK  5 active torsions:
REMARK  status: ('A' for Active; 'I' for Inactive)
REMARK    1  A    between atoms: C_4  and  N_12
REMARK    2  A    between atoms: C_6  and  C_18
REMARK    3  A    between atoms: C_21  and  C_23
REMARK    4  A    between atoms: C_23  and  C_24
REMARK    5  A    between atoms: C_24  and  O_25
REMARK                            x       y       z     vdW  Elec       q    Type
REMARK                         _______ _______ _______ _____ _____    ______ ____
ROOT
ATOM      1  N   UNL     1      34.415 -17.178 -23.265  0.00  0.00    -0.175 N 
ATOM      2  N   UNL     1      34.113 -15.124 -22.459  0.00  0.00    -0.391 NA
ATOM      3  N   UNL     1      34.487 -18.218 -24.139  0.00  0.00    -0.174 NA
ATOM      4  C   UNL     1      33.777 -15.523 -24.903  0.00  0.00    +0.096 C 
ATOM      5  C   UNL     1      34.084 -15.863 -23.551  0.00  0.00    +0.215 C 
ATOM      6  C   UNL     1      34.664 -17.251 -21.920  0.00  0.00    +0.170 C 
ATOM      7  C   UNL     1      34.472 -15.976 -21.448  0.00  0.00    +0.113 C 
ATOM      8  C   UNL     1      33.832 -16.513 -25.813  0.00  0.00    +0.041 C 
ATOM      9  C   UNL     1      34.202 -17.872 -25.354  0.00  0.00    +0.119 C 
ATOM     10  C   UNL     1      34.605 -15.475 -20.070  0.00  0.00    +0.064 C 
ENDROOT
BRANCH   4  12
ATOM     11  O   UNL     1      33.468 -11.542 -25.991  0.00  0.00    -0.350 OA
ATOM     12  N   UNL     1      33.448 -14.243 -25.235  0.00  0.00    -0.300 N 
ATOM     13  C   UNL     1      33.071 -13.857 -26.596  0.00  0.00    +0.123 C 
ATOM     14  C   UNL     1      33.259 -13.197 -24.230  0.00  0.00    +0.123 C 
ATOM     15  C   UNL     1      33.765 -12.550 -26.960  0.00  0.00    +0.164 C 
ATOM     16  C   UNL     1      33.946 -11.918 -24.698  0.00  0.00    +0.164 C 
ENDBRANCH   4  12
BRANCH   6  18
ATOM     17  N   UNL     1      36.794 -19.844 -20.298  0.00  0.00    -0.248 NA
ATOM     18  C   UNL     1      35.043 -18.463 -21.234  0.00  0.00    +0.023 C 
ATOM     19  C   UNL     1      34.089 -19.398 -20.849  0.00  0.00    +0.001 C 
ATOM     20  C   UNL     1      36.370 -18.730 -20.937  0.00  0.00    +0.096 C 
ATOM     21  C   UNL     1      35.838 -20.730 -19.939  0.00  0.00    +0.062 C 
ATOM     22  C   UNL     1      34.485 -20.556 -20.188  0.00  0.00    +0.015 C 
BRANCH  21  23
ATOM     23  C   UNL     1      36.299 -21.961 -19.232  0.00  0.00    +0.078 C 
BRANCH  23  24
ATOM     24  C   UNL     1      36.546 -21.734 -17.737  0.00  0.00    +0.149 C 
BRANCH  24  25
ATOM     25  O   UNL     1      35.808 -22.687 -16.984  0.00  0.00    -0.351 OA
ATOM     26  C   UNL     1      36.285 -22.778 -15.648  0.00  0.00    +0.174 C 
ENDBRANCH  24  25
ENDBRANCH  23  24
ENDBRANCH  21  23
ENDBRANCH   6  18
TORSDOF 5
ENDMDL
MODEL 4
REMARK VINA RESULT:      -9.5      4.031      6.813
REMARK  Name = 51352628
REMARK  5 active torsions:
REMARK  status: ('A' for Active; 'I' for Inactive)
REMARK    1  A    between atoms: C_4  and  N_12
REMARK    2  A    between atoms: C_6  and  C_18
REMARK    3  A    between atoms: C_21  and  C_23
REMARK    4  A    between atoms: C_23  and  C_24
REMARK    5  A    between atoms: C_24  and  O_25
REMARK                            x       y       z     vdW  Elec       q    Type
REMARK                         _______ _______ _______ _____ _____    ______ ____
ROOT
ATOM      1  N   UNL     1      33.811 -11.048 -23.957  0.00  0.00    -0.175 N 
ATOM      2  N   UNL     1      32.329 -10.356 -22.445  0.00  0.00    -0.391 NA
ATOM      3  N   UNL     1      34.782 -11.024 -24.910  0.00  0.00    -0.174 NA
ATOM      4  C   UNL     1      33.698  -8.655 -23.661  0.00  0.00    +0.096 C 
ATOM      5  C   UNL     1      33.241  -9.962 -23.312  0.00  0.00    +0.215 C 
ATOM      6  C   UNL     1      33.216 -12.176 -23.457  0.00  0.00    +0.170 C 
ATOM      7  C   UNL     1      32.309 -11.724 -22.530  0.00  0.00    +0.113 C 
ATOM      8  C   UNL     1      34.658  -8.569 -24.599  0.00  0.00    +0.041 C 
ATOM      9  C   UNL     1      35.170  -9.823 -25.200  0.00  0.00    +0.119 C 
ATOM     10  C   UNL     1      31.391 -12.504 -21.683  0.00  0.00    +0.064 C 
ENDROOT
BRANCH   4  12
ATOM     11  O   UNL     1      31.512  -5.699 -21.758  0.00  0.00    -0.350 OA
ATOM     12  N   UNL     1      33.170  -7.555 -23.053  0.00  0.00    -0.300 N 
ATOM     13  C   UNL     1      33.335  -7.294 -21.622  0.00  0.00    +0.123 C 
ATOM     14  C   UNL     1      32.566  -6.457 -23.807  0.00  0.00    +0.123 C 
ATOM     15  C   UNL     1      32.006  -6.831 -21.037  0.00  0.00    +0.164 C 
ATOM     16  C   UNL     1      31.269  -6.031 -23.127  0.00  0.00    +0.164 C 
ENDBRANCH   4  12
BRANCH   6  18
ATOM     17  N   UNL     1      34.696 -15.596 -23.442  0.00  0.00    -0.248 NA
ATOM     18  C   UNL     1      33.542 -13.517 -23.879  0.00  0.00    +0.023 C 
ATOM     19  C   UNL     1      33.053 -14.031 -25.075  0.00  0.00    +0.001 C 
ATOM     20  C   UNL     1      34.352 -14.333 -23.106  0.00  0.00    +0.096 C 
ATOM     21  C   UNL     1      34.202 -16.062 -24.611  0.00  0.00    +0.062 C 
ATOM     22  C   UNL     1      33.384 -15.327 -25.455  0.00  0.00    +0.015 C 
BRANCH  21  23
ATOM     23  C   UNL     1      34.578 -17.456 -24.988  0.00  0.00    +0.078 C 
BRANCH  23  24
ATOM     24  C   UNL     1      35.331 -18.193 -23.876  0.00  0.00    +0.149 C 
BRANCH  24  25
ATOM     25  O   UNL     1      34.525 -19.251 -23.375  0.00  0.00    -0.351 OA
ATOM     26  C   UNL     1      34.425 -19.205 -21.959  0.00  0.00    +0.174 C 
ENDBRANCH  24  25
ENDBRANCH  23  24
ENDBRANCH  21  23
ENDBRANCH   6  18
TORSDOF 5
ENDMDL
MODEL 5
REMARK VINA RESULT:      -9.4      3.891     11.030
REMARK  Name = 51352628
REMARK  5 active torsions:
REMARK  status: ('A' for Active; 'I' for Inactive)
REMARK    1  A    between atoms: C_4  and  N_12
REMARK    2  A    between atoms: C_6  and  C_18
REMARK    3  A    between atoms: C_21  and  C_23
REMARK    4  A    between atoms: C_23  and  C_24
REMARK    5  A    between atoms: C_24  and  O_25
REMARK                            x       y       z     vdW  Elec       q    Type
REMARK                         _______ _______ _______ _____ _____    ______ ____
ROOT
ATOM      1  N   UNL     1      35.774 -22.507 -16.993  0.00  0.00    -0.175 N 
ATOM      2  N   UNL     1      34.198 -23.686 -15.950  0.00  0.00    -0.391 NA
ATOM      3  N   UNL     1      36.980 -21.950 -17.286  0.00  0.00    -0.174 NA
ATOM      4  C   UNL     1      36.508 -23.648 -14.996  0.00  0.00    +0.096 C 
ATOM      5  C   UNL     1      35.467 -23.329 -15.920  0.00  0.00    +0.215 C 
ATOM      6  C   UNL     1      34.627 -22.351 -17.726  0.00  0.00    +0.170 C 
ATOM      7  C   UNL     1      33.673 -23.085 -17.064  0.00  0.00    +0.113 C 
ATOM      8  C   UNL     1      37.724 -23.124 -15.234  0.00  0.00    +0.041 C 
ATOM      9  C   UNL     1      37.897 -22.261 -16.426  0.00  0.00    +0.119 C 
ATOM     10  C   UNL     1      32.254 -23.275 -17.409  0.00  0.00    +0.064 C 
ENDROOT
BRANCH   4  12
ATOM     11  O   UNL     1      36.335 -25.826 -11.480  0.00  0.00    -0.350 OA
ATOM     12  N   UNL     1      36.256 -24.454 -13.926  0.00  0.00    -0.300 N 
ATOM     13  C   UNL     1      35.381 -24.046 -12.825  0.00  0.00    +0.123 C 
ATOM     14  C   UNL     1      36.682 -25.853 -13.881  0.00  0.00    +0.123 C 
ATOM     15  C   UNL     1      36.027 -24.430 -11.499  0.00  0.00    +0.164 C 
ATOM     16  C   UNL     1      37.272 -26.157 -12.508  0.00  0.00    +0.164 C 
ENDBRANCH   4  12
BRANCH   6  18
ATOM     17  N   UNL     1      35.664 -20.479 -20.777  0.00  0.00    -0.248 NA
ATOM     18  C   UNL     1      34.539 -21.560 -18.930  0.00  0.00    +0.023 C 
ATOM     19  C   UNL     1      33.311 -21.118 -19.410  0.00  0.00    +0.001 C 
ATOM     20  C   UNL     1      35.676 -21.216 -19.644  0.00  0.00    +0.096 C 
ATOM     21  C   UNL     1      34.453 -20.068 -21.214  0.00  0.00    +0.062 C 
ATOM     22  C   UNL     1      33.258 -20.358 -20.573  0.00  0.00    +0.015 C 
BRANCH  21  23
ATOM     23  C   UNL     1      34.434 -19.254 -22.464  0.00  0.00    +0.078 C 
BRANCH  23  24
ATOM     24  C   UNL     1      35.444 -18.102 -22.443  0.00  0.00    +0.149 C 
BRANCH  24  25
ATOM     25  O   UNL     1      35.231 -17.304 -21.286  0.00  0.00    -0.351 OA
ATOM     26  C   UNL     1      34.452 -16.154 -21.582  0.00  0.00    +0.174 C 
ENDBRANCH  24  25
ENDBRANCH  23  24
ENDBRANCH  21  23
ENDBRANCH   6  18
TORSDOF 5
ENDMDL
MODEL 6
REMARK VINA RESULT:      -9.1      8.821     12.340
REMARK  Name = 51352628
REMARK  5 active torsions:
REMARK  status: ('A' for Active; 'I' for Inactive)
REMARK    1  A    between atoms: C_4  and  N_12
REMARK    2  A    between atoms: C_6  and  C_18
REMARK    3  A    between atoms: C_21  and  C_23
REMARK    4  A    between atoms: C_23  and  C_24
REMARK    5  A    between atoms: C_24  and  O_25
REMARK                            x       y       z     vdW  Elec       q    Type
REMARK                         _______ _______ _______ _____ _____    ______ ____
ROOT
ATOM      1  N   UNL     1      33.107 -23.592 -15.766  0.00  0.00    -0.175 N 
ATOM      2  N   UNL     1      33.531 -24.540 -13.795  0.00  0.00    -0.391 NA
ATOM      3  N   UNL     1      33.299 -22.994 -16.973  0.00  0.00    -0.174 NA
ATOM      4  C   UNL     1      35.448 -23.778 -15.207  0.00  0.00    +0.096 C 
ATOM      5  C   UNL     1      34.079 -23.997 -14.865  0.00  0.00    +0.215 C 
ATOM      6  C   UNL     1      31.891 -23.905 -15.219  0.00  0.00    +0.170 C 
ATOM      7  C   UNL     1      32.178 -24.487 -14.008  0.00  0.00    +0.113 C 
ATOM      8  C   UNL     1      35.700 -23.190 -16.390  0.00  0.00    +0.041 C 
ATOM      9  C   UNL     1      34.552 -22.812 -17.247  0.00  0.00    +0.119 C 
ATOM     10  C   UNL     1      31.249 -25.019 -12.998  0.00  0.00    +0.064 C 
ENDROOT
BRANCH   4  12
ATOM     11  O   UNL     1      37.942 -25.122 -12.189  0.00  0.00    -0.350 OA
ATOM     12  N   UNL     1      36.441 -24.161 -14.355  0.00  0.00    -0.300 N 
ATOM     13  C   UNL     1      37.066 -25.483 -14.423  0.00  0.00    +0.123 C 
ATOM     14  C   UNL     1      37.091 -23.225 -13.438  0.00  0.00    +0.123 C 
ATOM     15  C   UNL     1      37.219 -26.041 -13.012  0.00  0.00    +0.164 C 
ATOM     16  C   UNL     1      37.242 -23.881 -12.070  0.00  0.00    +0.164 C 
ENDBRANCH   4  12
BRANCH   6  18
ATOM     17  N   UNL     1      29.049 -22.026 -16.731  0.00  0.00    -0.248 NA
ATOM     18  C   UNL     1      30.624 -23.640 -15.859  0.00  0.00    +0.023 C 
ATOM     19  C   UNL     1      29.772 -24.678 -16.219  0.00  0.00    +0.001 C 
ATOM     20  C   UNL     1      30.220 -22.344 -16.135  0.00  0.00    +0.096 C 
ATOM     21  C   UNL     1      28.246 -23.061 -17.066  0.00  0.00    +0.062 C 
ATOM     22  C   UNL     1      28.558 -24.392 -16.835  0.00  0.00    +0.015 C 
BRANCH  21  23
ATOM     23  C   UNL     1      26.952 -22.717 -17.724  0.00  0.00    +0.078 C 
BRANCH  23  24
ATOM     24  C   UNL     1      26.333 -21.423 -17.186  0.00  0.00    +0.149 C 
BRANCH  24  25
ATOM     25  O   UNL     1      26.064 -20.539 -18.267  0.00  0.00    -0.351 OA
ATOM     26  C   UNL     1      25.569 -21.238 -19.400  0.00  0.00    +0.174 C 
ENDBRANCH  24  25
ENDBRANCH  23  24
ENDBRANCH  21  23
ENDBRANCH   6  18
TORSDOF 5
ENDMDL
MODEL 7
REMARK VINA RESULT:      -9.0      8.562     10.689
REMARK  Name = 51352628
REMARK  5 active torsions:
REMARK  status: ('A' for Active; 'I' for Inactive)
REMARK    1  A    between atoms: C_4  and  N_12
REMARK    2  A    between atoms: C_6  and  C_18
REMARK    3  A    between atoms: C_21  and  C_23
REMARK    4  A    between atoms: C_23  and  C_24
REMARK    5  A    between atoms: C_24  and  O_25
REMARK                            x       y       z     vdW  Elec       q    Type
REMARK                         _______ _______ _______ _____ _____    ______ ____
ROOT
ATOM      1  N   UNL     1      32.491 -24.004 -15.172  0.00  0.00    -0.175 N 
ATOM      2  N   UNL     1      31.525 -23.109 -16.969  0.00  0.00    -0.391 NA
ATOM      3  N   UNL     1      32.647 -24.590 -13.955  0.00  0.00    -0.174 NA
ATOM      4  C   UNL     1      30.078 -23.942 -15.108  0.00  0.00    +0.096 C 
ATOM      5  C   UNL     1      31.300 -23.662 -15.793  0.00  0.00    +0.215 C 
ATOM      6  C   UNL     1      33.507 -23.641 -16.016  0.00  0.00    +0.170 C 
ATOM      7  C   UNL     1      32.888 -23.094 -17.113  0.00  0.00    +0.113 C 
ATOM      8  C   UNL     1      30.171 -24.522 -13.898  0.00  0.00    +0.041 C 
ATOM      9  C   UNL     1      31.519 -24.828 -13.365  0.00  0.00    +0.119 C 
ATOM     10  C   UNL     1      33.497 -22.538 -18.333  0.00  0.00    +0.064 C 
ENDROOT
BRANCH   4  12
ATOM     11  O   UNL     1      26.817 -22.560 -17.250  0.00  0.00    -0.350 OA
ATOM     12  N   UNL     1      28.881 -23.627 -15.678  0.00  0.00    -0.300 N 
ATOM     13  C   UNL     1      28.293 -24.422 -16.757  0.00  0.00    +0.123 C 
ATOM     14  C   UNL     1      28.002 -22.592 -15.134  0.00  0.00    +0.123 C 
ATOM     15  C   UNL     1      27.740 -23.488 -17.828  0.00  0.00    +0.164 C 
ATOM     16  C   UNL     1      27.462 -21.737 -16.275  0.00  0.00    +0.164 C 
ENDBRANCH   4  12
BRANCH   6  18
ATOM     17  N   UNL     1      36.727 -25.356 -15.251  0.00  0.00    -0.248 NA
ATOM     18  C   UNL     1      34.908 -23.835 -15.725  0.00  0.00    +0.023 C 
ATOM     19  C   UNL     1      35.778 -22.754 -15.633  0.00  0.00    +0.001 C 
ATOM     20  C   UNL     1      35.427 -25.104 -15.527  0.00  0.00    +0.096 C 
ATOM     21  C   UNL     1      37.542 -24.281 -15.170  0.00  0.00    +0.062 C 
ATOM     22  C   UNL     1      37.122 -22.972 -15.352  0.00  0.00    +0.015 C 
BRANCH  21  23
ATOM     23  C   UNL     1      38.978 -24.552 -14.867  0.00  0.00    +0.078 C 
BRANCH  23  24
ATOM     24  C   UNL     1      39.194 -25.121 -13.460  0.00  0.00    +0.149 C 
BRANCH  24  25
ATOM     25  O   UNL     1      39.043 -24.084 -12.500  0.00  0.00    -0.351 OA
ATOM     26  C   UNL     1      37.843 -24.234 -11.755  0.00  0.00    +0.174 C 
ENDBRANCH  24  25
ENDBRANCH  23  24
ENDBRANCH  21  23
ENDBRANCH   6  18
TORSDOF 5
ENDMDL
MODEL 8
REMARK VINA RESULT:      -9.0      1.539      8.838
REMARK  Name = 51352628
REMARK  5 active torsions:
REMARK  status: ('A' for Active; 'I' for Inactive)
REMARK    1  A    between atoms: C_4  and  N_12
REMARK    2  A    between atoms: C_6  and  C_18
REMARK    3  A    between atoms: C_21  and  C_23
REMARK    4  A    between atoms: C_23  and  C_24
REMARK    5  A    between atoms: C_24  and  O_25
REMARK                            x       y       z     vdW  Elec       q    Type
REMARK                         _______ _______ _______ _____ _____    ______ ____
ROOT
ATOM      1  N   UNL     1      34.473 -19.679 -21.083  0.00  0.00    -0.175 N 
ATOM      2  N   UNL     1      36.511 -20.115 -20.298  0.00  0.00    -0.391 NA
ATOM      3  N   UNL     1      33.122 -19.708 -21.238  0.00  0.00    -0.174 NA
ATOM      4  C   UNL     1      34.546 -21.257 -19.257  0.00  0.00    +0.096 C 
ATOM      5  C   UNL     1      35.228 -20.388 -20.162  0.00  0.00    +0.215 C 
ATOM      6  C   UNL     1      35.342 -18.926 -21.827  0.00  0.00    +0.170 C 
ATOM      7  C   UNL     1      36.588 -19.212 -21.325  0.00  0.00    +0.113 C 
ATOM      8  C   UNL     1      33.207 -21.327 -19.364  0.00  0.00    +0.041 C 
ATOM      9  C   UNL     1      32.539 -20.506 -20.401  0.00  0.00    +0.119 C 
ATOM     10  C   UNL     1      37.896 -18.683 -21.749  0.00  0.00    +0.064 C 
ENDROOT
BRANCH   4  12
ATOM     11  O   UNL     1      36.519 -22.903 -16.012  0.00  0.00    -0.350 OA
ATOM     12  N   UNL     1      35.244 -21.974 -18.332  0.00  0.00    -0.300 N 
ATOM     13  C   UNL     1      34.624 -23.024 -17.522  0.00  0.00    +0.123 C 
ATOM     14  C   UNL     1      36.699 -21.887 -18.207  0.00  0.00    +0.123 C 
ATOM     15  C   UNL     1      35.090 -22.889 -16.077  0.00  0.00    +0.164 C 
ATOM     16  C   UNL     1      37.075 -21.800 -16.732  0.00  0.00    +0.164 C 
ENDBRANCH   4  12
BRANCH   6  18
ATOM     17  N   UNL     1      34.397 -15.806 -23.634  0.00  0.00    -0.248 NA
ATOM     18  C   UNL     1      34.937 -18.044 -22.896  0.00  0.00    +0.023 C 
ATOM     19  C   UNL     1      34.698 -18.532 -24.176  0.00  0.00    +0.001 C 
ATOM     20  C   UNL     1      34.774 -16.686 -22.678  0.00  0.00    +0.096 C 
ATOM     21  C   UNL     1      34.174 -16.316 -24.865  0.00  0.00    +0.062 C 
ATOM     22  C   UNL     1      34.310 -17.658 -25.186  0.00  0.00    +0.015 C 
BRANCH  21  23
ATOM     23  C   UNL     1      33.758 -15.350 -25.923  0.00  0.00    +0.078 C 
BRANCH  23  24
ATOM     24  C   UNL     1      32.868 -14.224 -25.388  0.00  0.00    +0.149 C 
BRANCH  24  25
ATOM     25  O   UNL     1      33.506 -12.971 -25.600  0.00  0.00    -0.351 OA
ATOM     26  C   UNL     1      33.759 -12.301 -24.373  0.00  0.00    +0.174 C 
ENDBRANCH  24  25
ENDBRANCH  23  24
ENDBRANCH  21  23
ENDBRANCH   6  18
TORSDOF 5
ENDMDL
MODEL 9
REMARK VINA RESULT:      -9.0      5.085     11.097
REMARK  Name = 51352628
REMARK  5 active torsions:
REMARK  status: ('A' for Active; 'I' for Inactive)
REMARK    1  A    between atoms: C_4  and  N_12
REMARK    2  A    between atoms: C_6  and  C_18
REMARK    3  A    between atoms: C_21  and  C_23
REMARK    4  A    between atoms: C_23  and  C_24
REMARK    5  A    between atoms: C_24  and  O_25
REMARK                            x       y       z     vdW  Elec       q    Type
REMARK                         _______ _______ _______ _____ _____    ______ ____
ROOT
ATOM      1  N   UNL     1      32.821 -10.867 -23.339  0.00  0.00    -0.175 N 
ATOM      2  N   UNL     1      32.120 -12.481 -21.973  0.00  0.00    -0.391 NA
ATOM      3  N   UNL     1      33.446 -10.238 -24.371  0.00  0.00    -0.174 NA
ATOM      4  C   UNL     1      33.585 -13.086 -23.906  0.00  0.00    +0.096 C 
ATOM      5  C   UNL     1      32.838 -12.222 -23.049  0.00  0.00    +0.215 C 
ATOM      6  C   UNL     1      32.047 -10.258 -22.388  0.00  0.00    +0.170 C 
ATOM      7  C   UNL     1      31.628 -11.270 -21.560  0.00  0.00    +0.113 C 
ATOM      8  C   UNL     1      34.226 -12.519 -24.944  0.00  0.00    +0.041 C 
ATOM      9  C   UNL     1      34.113 -11.053 -25.124  0.00  0.00    +0.119 C 
ATOM     10  C   UNL     1      30.768 -11.189 -20.367  0.00  0.00    +0.064 C 
ENDROOT
BRANCH   4  12
ATOM     11  O   UNL     1      34.420 -17.077 -23.192  0.00  0.00    -0.350 OA
ATOM     12  N   UNL     1      33.630 -14.427 -23.664  0.00  0.00    -0.300 N 
ATOM     13  C   UNL     1      33.571 -14.982 -22.311  0.00  0.00    +0.123 C 
ATOM     14  C   UNL     1      33.550 -15.420 -24.735  0.00  0.00    +0.123 C 
ATOM     15  C   UNL     1      34.608 -16.091 -22.174  0.00  0.00    +0.164 C 
ATOM     16  C   UNL     1      34.589 -16.509 -24.493  0.00  0.00    +0.164 C 
ENDBRANCH   4  12
BRANCH   6  18
ATOM     17  N   UNL     1      30.740  -6.903 -23.352  0.00  0.00    -0.248 NA
ATOM     18  C   UNL     1      31.784  -8.839 -22.347  0.00  0.00    +0.023 C 
ATOM     19  C   UNL     1      32.285  -8.046 -21.322  0.00  0.00    +0.001 C 
ATOM     20  C   UNL     1      31.024  -8.225 -23.330  0.00  0.00    +0.096 C 
ATOM     21  C   UNL     1      31.245  -6.164 -22.339  0.00  0.00    +0.062 C 
ATOM     22  C   UNL     1      32.015  -6.682 -21.309  0.00  0.00    +0.015 C 
BRANCH  21  23
ATOM     23  C   UNL     1      30.935  -4.704 -22.358  0.00  0.00    +0.078 C 
BRANCH  23  24
ATOM     24  C   UNL     1      31.445  -4.001 -23.620  0.00  0.00    +0.149 C 
BRANCH  24  25
ATOM     25  O   UNL     1      30.343  -3.648 -24.446  0.00  0.00    -0.351 OA
ATOM     26  C   UNL     1      30.681  -2.603 -25.347  0.00  0.00    +0.174 C 
ENDBRANCH  24  25
ENDBRANCH  23  24
ENDBRANCH  21  23
ENDBRANCH   6  18
TORSDOF 5
ENDMDL
