MODEL 1
REMARK VINA RESULT:     -11.1      0.000      0.000
REMARK  Name = 57331386
REMARK  4 active torsions:
REMARK  status: ('A' for Active; 'I' for Inactive)
REMARK    1  A    between atoms: N_3  and  C_26
REMARK    2  A    between atoms: C_14  and  N_25
REMARK    3  A    between atoms: C_16  and  C_22
REMARK    4  A    between atoms: C_26  and  C_27
REMARK                            x       y       z     vdW  Elec       q    Type
REMARK                         _______ _______ _______ _____ _____    ______ ____
ROOT
ATOM      1  S   UNL     1      32.456 -13.148 -22.457  0.00  0.00    -0.037 S 
ATOM      2  O   UNL     1      34.225 -11.116 -25.741  0.00  0.00    -0.209 OA
ATOM      3  N   UNL     1      34.514 -17.616 -22.397  0.00  0.00    +0.389 N 
ATOM      4  N   UNL     1      34.292 -14.870 -23.115  0.00  0.00    -0.282 N 
ATOM      5  N   UNL     1      34.416 -12.880 -24.309  0.00  0.00    -0.310 NA
ATOM      6  C   UNL     1      33.965 -17.226 -23.703  0.00  0.00    -0.055 C 
ATOM      7  C   UNL     1      34.189 -16.601 -21.383  0.00  0.00    -0.055 C 
ATOM      8  C   UNL     1      34.752 -15.235 -21.778  0.00  0.00    +0.071 C 
ATOM      9  C   UNL     1      34.522 -15.874 -24.150  0.00  0.00    +0.071 C 
ATOM     10  C   UNL     1      33.852 -13.625 -23.407  0.00  0.00    +0.227 C 
ATOM     11  C   UNL     1      32.547 -11.389 -22.614  0.00  0.00    +0.067 C 
ATOM     12  C   UNL     1      33.265 -10.792 -23.650  0.00  0.00    +0.102 C 
ATOM     13  C   UNL     1      33.988 -11.618 -24.644  0.00  0.00    +0.207 C 
ATOM     14  C   UNL     1      31.858 -10.581 -21.700  0.00  0.00    +0.150 C 
ATOM     15  C   UNL     1      33.288  -9.396 -23.776  0.00  0.00    +0.017 C 
ATOM     16  C   UNL     1      32.604  -8.599 -22.860  0.00  0.00    +0.074 C 
ATOM     17  C   UNL     1      31.890  -9.191 -21.822  0.00  0.00    +0.028 C 
ATOM     18  H   UNL     1      35.528 -17.679 -22.478  0.00  0.00    -0.080 HD
ENDROOT
BRANCH  16  22
ATOM     19  F   UNL     1      31.563  -6.622 -23.672  0.00  0.00    -0.166 F 
ATOM     20  F   UNL     1      32.642  -6.460 -21.791  0.00  0.00    -0.166 F 
ATOM     21  F   UNL     1      33.738  -6.647 -23.652  0.00  0.00    -0.166 F 
ATOM     22  C   UNL     1      32.639  -7.114 -22.989  0.00  0.00    +0.419 C 
ENDBRANCH  16  22
BRANCH  14  25
ATOM     23  O   UNL     1      29.908 -11.437 -20.817  0.00  0.00    -0.126 OA
ATOM     24  O   UNL     1      31.664 -11.270 -19.509  0.00  0.00    -0.126 OA
ATOM     25  N   UNL     1      31.105 -11.125 -20.620  0.00  0.00    +0.058 N 
ENDBRANCH  14  25
BRANCH   3  26
ATOM     26  C   UNL     1      34.005 -18.926 -21.995  0.00  0.00    -0.077 C 
BRANCH  26  27
ATOM     27  C   UNL     1      34.763 -19.465 -20.784  0.00  0.00    -0.021 C 
ATOM     28  C   UNL     1      34.192 -20.822 -20.347  0.00  0.00    -0.002 C 
ATOM     29  C   UNL     1      36.263 -19.576 -21.087  0.00  0.00    -0.002 C 
ATOM     30  C   UNL     1      37.035 -20.165 -19.909  0.00  0.00    -0.000 C 
ATOM     31  C   UNL     1      34.968 -21.408 -19.170  0.00  0.00    -0.000 C 
ATOM     32  C   UNL     1      36.460 -21.508 -19.472  0.00  0.00    -0.000 C 
ENDBRANCH  26  27
ENDBRANCH   3  26
TORSDOF 4
ENDMDL
MODEL 2
REMARK VINA RESULT:     -10.8      0.483      1.313
REMARK  Name = 57331386
REMARK  4 active torsions:
REMARK  status: ('A' for Active; 'I' for Inactive)
REMARK    1  A    between atoms: N_3  and  C_26
REMARK    2  A    between atoms: C_14  and  N_25
REMARK    3  A    between atoms: C_16  and  C_22
REMARK    4  A    between atoms: C_26  and  C_27
REMARK                            x       y       z     vdW  Elec       q    Type
REMARK                         _______ _______ _______ _____ _____    ______ ____
ROOT
ATOM      1  S   UNL     1      32.404 -12.980 -22.308  0.00  0.00    -0.037 S 
ATOM      2  O   UNL     1      34.275 -11.370 -25.765  0.00  0.00    -0.209 OA
ATOM      3  N   UNL     1      34.268 -17.501 -21.774  0.00  0.00    +0.389 N 
ATOM      4  N   UNL     1      34.167 -14.836 -22.770  0.00  0.00    -0.282 N 
ATOM      5  N   UNL     1      34.382 -12.985 -24.160  0.00  0.00    -0.310 NA
ATOM      6  C   UNL     1      33.742 -17.224 -23.119  0.00  0.00    -0.055 C 
ATOM      7  C   UNL     1      33.981 -16.375 -20.872  0.00  0.00    -0.055 C 
ATOM      8  C   UNL     1      34.604 -15.081 -21.399  0.00  0.00    +0.071 C 
ATOM      9  C   UNL     1      34.359 -15.949 -23.695  0.00  0.00    +0.071 C 
ATOM     10  C   UNL     1      33.783 -13.609 -23.191  0.00  0.00    +0.227 C 
ATOM     11  C   UNL     1      32.571 -11.251 -22.642  0.00  0.00    +0.067 C 
ATOM     12  C   UNL     1      33.320 -10.794 -23.727  0.00  0.00    +0.102 C 
ATOM     13  C   UNL     1      34.012 -11.746 -24.625  0.00  0.00    +0.207 C 
ATOM     14  C   UNL     1      31.913 -10.326 -21.822  0.00  0.00    +0.150 C 
ATOM     15  C   UNL     1      33.403  -9.420 -23.994  0.00  0.00    +0.017 C 
ATOM     16  C   UNL     1      32.749  -8.506 -23.170  0.00  0.00    +0.074 C 
ATOM     17  C   UNL     1      32.005  -8.958 -22.084  0.00  0.00    +0.028 C 
ATOM     18  H   UNL     1      35.279 -17.614 -21.839  0.00  0.00    -0.080 HD
ENDROOT
BRANCH  16  22
ATOM     19  F   UNL     1      32.606  -6.281 -22.343  0.00  0.00    -0.166 F 
ATOM     20  F   UNL     1      34.076  -6.655 -23.900  0.00  0.00    -0.166 F 
ATOM     21  F   UNL     1      31.966  -6.607 -24.397  0.00  0.00    -0.166 F 
ATOM     22  C   UNL     1      32.848  -7.044 -23.450  0.00  0.00    +0.419 C 
ENDBRANCH  16  22
BRANCH  14  25
ATOM     23  O   UNL     1      31.589 -10.534 -19.549  0.00  0.00    -0.126 OA
ATOM     24  O   UNL     1      30.015 -11.253 -20.900  0.00  0.00    -0.126 OA
ATOM     25  N   UNL     1      31.132 -10.724 -20.699  0.00  0.00    +0.058 N 
ENDBRANCH  14  25
BRANCH   3  26
ATOM     26  C   UNL     1      33.701 -18.740 -21.246  0.00  0.00    -0.077 C 
BRANCH  26  27
ATOM     27  C   UNL     1      34.784 -19.793 -21.025  0.00  0.00    -0.021 C 
ATOM     28  C   UNL     1      36.111 -19.131 -20.626  0.00  0.00    -0.002 C 
ATOM     29  C   UNL     1      34.343 -20.813 -19.967  0.00  0.00    -0.002 C 
ATOM     30  C   UNL     1      35.433 -21.846 -19.689  0.00  0.00    -0.000 C 
ATOM     31  C   UNL     1      37.197 -20.167 -20.348  0.00  0.00    -0.000 C 
ATOM     32  C   UNL     1      36.752 -21.184 -19.302  0.00  0.00    -0.000 C 
ENDBRANCH  26  27
ENDBRANCH   3  26
TORSDOF 4
ENDMDL
MODEL 3
REMARK VINA RESULT:     -10.4      4.755     10.410
REMARK  Name = 57331386
REMARK  4 active torsions:
REMARK  status: ('A' for Active; 'I' for Inactive)
REMARK    1  A    between atoms: N_3  and  C_26
REMARK    2  A    between atoms: C_14  and  N_25
REMARK    3  A    between atoms: C_16  and  C_22
REMARK    4  A    between atoms: C_26  and  C_27
REMARK                            x       y       z     vdW  Elec       q    Type
REMARK                         _______ _______ _______ _____ _____    ______ ____
ROOT
ATOM      1  S   UNL     1      32.459 -13.465 -24.021  0.00  0.00    -0.037 S 
ATOM      2  O   UNL     1      33.130 -15.255 -20.228  0.00  0.00    -0.209 OA
ATOM      3  N   UNL     1      31.705  -8.689 -23.119  0.00  0.00    +0.389 N 
ATOM      4  N   UNL     1      32.576 -11.334 -22.533  0.00  0.00    -0.282 N 
ATOM      5  N   UNL     1      33.080 -13.294 -21.389  0.00  0.00    -0.310 NA
ATOM      6  C   UNL     1      30.869  -9.590 -22.313  0.00  0.00    -0.055 C 
ATOM      7  C   UNL     1      32.481  -9.456 -24.105  0.00  0.00    -0.055 C 
ATOM      8  C   UNL     1      33.375 -10.486 -23.412  0.00  0.00    +0.071 C 
ATOM      9  C   UNL     1      31.727 -10.623 -21.582  0.00  0.00    +0.071 C 
ATOM     10  C   UNL     1      32.747 -12.675 -22.481  0.00  0.00    +0.227 C 
ATOM     11  C   UNL     1      33.332 -14.982 -23.771  0.00  0.00    +0.067 C 
ATOM     12  C   UNL     1      33.636 -15.439 -22.488  0.00  0.00    +0.102 C 
ATOM     13  C   UNL     1      33.247 -14.655 -21.293  0.00  0.00    +0.207 C 
ATOM     14  C   UNL     1      33.697 -15.757 -24.880  0.00  0.00    +0.150 C 
ATOM     15  C   UNL     1      34.293 -16.666 -22.315  0.00  0.00    +0.017 C 
ATOM     16  C   UNL     1      34.656 -17.427 -23.424  0.00  0.00    +0.074 C 
ATOM     17  C   UNL     1      34.359 -16.973 -24.707  0.00  0.00    +0.028 C 
ATOM     18  H   UNL     1      32.355  -8.208 -22.498  0.00  0.00    -0.080 HD
ENDROOT
BRANCH  16  22
ATOM     19  F   UNL     1      35.277 -19.533 -24.337  0.00  0.00    -0.166 F 
ATOM     20  F   UNL     1      36.700 -18.591 -22.991  0.00  0.00    -0.166 F 
ATOM     21  F   UNL     1      34.883 -19.469 -22.199  0.00  0.00    -0.166 F 
ATOM     22  C   UNL     1      35.365 -18.726 -23.239  0.00  0.00    +0.419 C 
ENDBRANCH  16  22
BRANCH  14  25
ATOM     23  O   UNL     1      32.454 -15.880 -26.818  0.00  0.00    -0.126 OA
ATOM     24  O   UNL     1      34.144 -14.480 -26.747  0.00  0.00    -0.126 OA
ATOM     25  N   UNL     1      33.417 -15.351 -26.217  0.00  0.00    +0.058 N 
ENDBRANCH  14  25
BRANCH   3  26
ATOM     26  C   UNL     1      30.880  -7.682 -23.786  0.00  0.00    -0.077 C 
BRANCH  26  27
ATOM     27  C   UNL     1      31.564  -6.317 -23.781  0.00  0.00    -0.021 C 
ATOM     28  C   UNL     1      31.696  -5.772 -25.211  0.00  0.00    -0.002 C 
ATOM     29  C   UNL     1      30.800  -5.329 -22.890  0.00  0.00    -0.002 C 
ATOM     30  C   UNL     1      31.435  -3.940 -22.912  0.00  0.00    -0.000 C 
ATOM     31  C   UNL     1      32.331  -4.383 -25.229  0.00  0.00    -0.000 C 
ATOM     32  C   UNL     1      31.573  -3.407 -24.334  0.00  0.00    -0.000 C 
ENDBRANCH  26  27
ENDBRANCH   3  26
TORSDOF 4
ENDMDL
MODEL 4
REMARK VINA RESULT:     -10.1      1.360      3.088
REMARK  Name = 57331386
REMARK  4 active torsions:
REMARK  status: ('A' for Active; 'I' for Inactive)
REMARK    1  A    between atoms: N_3  and  C_26
REMARK    2  A    between atoms: C_14  and  N_25
REMARK    3  A    between atoms: C_16  and  C_22
REMARK    4  A    between atoms: C_26  and  C_27
REMARK                            x       y       z     vdW  Elec       q    Type
REMARK                         _______ _______ _______ _____ _____    ______ ____
ROOT
ATOM      1  S   UNL     1      34.024 -12.360 -22.817  0.00  0.00    -0.037 S 
ATOM      2  O   UNL     1      30.588 -11.138 -20.639  0.00  0.00    -0.209 OA
ATOM      3  N   UNL     1      34.309 -17.234 -22.221  0.00  0.00    +0.389 N 
ATOM      4  N   UNL     1      33.044 -14.685 -22.184  0.00  0.00    -0.282 N 
ATOM      5  N   UNL     1      31.672 -12.905 -21.587  0.00  0.00    -0.310 NA
ATOM      6  C   UNL     1      34.176 -16.483 -20.964  0.00  0.00    -0.055 C 
ATOM      7  C   UNL     1      34.455 -16.310 -23.356  0.00  0.00    -0.055 C 
ATOM      8  C   UNL     1      33.250 -15.373 -23.455  0.00  0.00    +0.071 C 
ATOM      9  C   UNL     1      32.966 -15.550 -21.010  0.00  0.00    +0.071 C 
ATOM     10  C   UNL     1      32.764 -13.363 -22.121  0.00  0.00    +0.227 C 
ATOM     11  C   UNL     1      33.116 -10.876 -23.132  0.00  0.00    +0.067 C 
ATOM     12  C   UNL     1      31.917 -10.607 -22.470  0.00  0.00    +0.102 C 
ATOM     13  C   UNL     1      31.361 -11.570 -21.491  0.00  0.00    +0.207 C 
ATOM     14  C   UNL     1      33.625  -9.936 -24.038  0.00  0.00    +0.150 C 
ATOM     15  C   UNL     1      31.237  -9.405 -22.707  0.00  0.00    +0.017 C 
ATOM     16  C   UNL     1      31.749  -8.478 -23.613  0.00  0.00    +0.074 C 
ATOM     17  C   UNL     1      32.942  -8.743 -24.279  0.00  0.00    +0.028 C 
ATOM     18  H   UNL     1      33.462 -17.786 -22.359  0.00  0.00    -0.080 HD
ENDROOT
BRANCH  16  22
ATOM     19  F   UNL     1      30.057  -7.336 -24.833  0.00  0.00    -0.166 F 
ATOM     20  F   UNL     1      30.372  -6.711 -22.775  0.00  0.00    -0.166 F 
ATOM     21  F   UNL     1      31.824  -6.187 -24.298  0.00  0.00    -0.166 F 
ATOM     22  C   UNL     1      31.018  -7.204 -23.872  0.00  0.00    +0.419 C 
ENDBRANCH  16  22
BRANCH  14  25
ATOM     23  O   UNL     1      35.898  -9.645 -24.293  0.00  0.00    -0.126 OA
ATOM     24  O   UNL     1      34.819 -10.821 -25.800  0.00  0.00    -0.126 OA
ATOM     25  N   UNL     1      34.844 -10.146 -24.747  0.00  0.00    +0.058 N 
ENDBRANCH  14  25
BRANCH   3  26
ATOM     26  C   UNL     1      35.446 -18.150 -22.155  0.00  0.00    -0.077 C 
BRANCH  26  27
ATOM     27  C   UNL     1      35.354 -19.058 -20.930  0.00  0.00    -0.021 C 
ATOM     28  C   UNL     1      34.159 -20.015 -21.053  0.00  0.00    -0.002 C 
ATOM     29  C   UNL     1      36.660 -19.839 -20.734  0.00  0.00    -0.002 C 
ATOM     30  C   UNL     1      36.573 -20.794 -19.546  0.00  0.00    -0.000 C 
ATOM     31  C   UNL     1      34.076 -20.969 -19.864  0.00  0.00    -0.000 C 
ATOM     32  C   UNL     1      35.379 -21.736 -19.666  0.00  0.00    -0.000 C 
ENDBRANCH  26  27
ENDBRANCH   3  26
TORSDOF 4
ENDMDL
MODEL 5
REMARK VINA RESULT:      -9.0      4.466     10.859
REMARK  Name = 57331386
REMARK  4 active torsions:
REMARK  status: ('A' for Active; 'I' for Inactive)
REMARK    1  A    between atoms: N_3  and  C_26
REMARK    2  A    between atoms: C_14  and  N_25
REMARK    3  A    between atoms: C_16  and  C_22
REMARK    4  A    between atoms: C_26  and  C_27
REMARK                            x       y       z     vdW  Elec       q    Type
REMARK                         _______ _______ _______ _____ _____    ______ ____
ROOT
ATOM      1  S   UNL     1      32.115 -10.081 -23.676  0.00  0.00    -0.037 S 
ATOM      2  O   UNL     1      30.708 -10.753 -19.725  0.00  0.00    -0.209 OA
ATOM      3  N   UNL     1      32.090  -5.199 -24.280  0.00  0.00    +0.389 N 
ATOM      4  N   UNL     1      32.041  -7.631 -22.802  0.00  0.00    -0.282 N 
ATOM      5  N   UNL     1      31.578  -9.215 -21.165  0.00  0.00    -0.310 NA
ATOM      6  C   UNL     1      30.819  -5.749 -23.786  0.00  0.00    -0.055 C 
ATOM      7  C   UNL     1      33.028  -6.287 -24.598  0.00  0.00    -0.055 C 
ATOM      8  C   UNL     1      33.299  -7.151 -23.365  0.00  0.00    +0.071 C 
ATOM      9  C   UNL     1      31.042  -6.601 -22.536  0.00  0.00    +0.071 C 
ATOM     10  C   UNL     1      31.882  -8.910 -22.390  0.00  0.00    +0.227 C 
ATOM     11  C   UNL     1      32.452 -11.535 -22.727  0.00  0.00    +0.067 C 
ATOM     12  C   UNL     1      32.075 -11.628 -21.387  0.00  0.00    +0.102 C 
ATOM     13  C   UNL     1      31.393 -10.499 -20.713  0.00  0.00    +0.207 C 
ATOM     14  C   UNL     1      33.079 -12.627 -23.342  0.00  0.00    +0.150 C 
ATOM     15  C   UNL     1      32.317 -12.807 -20.669  0.00  0.00    +0.017 C 
ATOM     16  C   UNL     1      32.946 -13.886 -21.287  0.00  0.00    +0.074 C 
ATOM     17  C   UNL     1      33.327 -13.797 -22.623  0.00  0.00    +0.028 C 
ATOM     18  H   UNL     1      32.500  -4.622 -23.547  0.00  0.00    -0.080 HD
ENDROOT
BRANCH  16  22
ATOM     19  F   UNL     1      32.365 -15.290 -19.458  0.00  0.00    -0.166 F 
ATOM     20  F   UNL     1      33.081 -16.274 -21.260  0.00  0.00    -0.166 F 
ATOM     21  F   UNL     1      34.471 -15.198 -19.992  0.00  0.00    -0.166 F 
ATOM     22  C   UNL     1      33.212 -15.136 -20.518  0.00  0.00    +0.419 C 
ENDBRANCH  16  22
BRANCH  14  25
ATOM     23  O   UNL     1      33.094 -13.510 -25.472  0.00  0.00    -0.126 OA
ATOM     24  O   UNL     1      34.231 -11.669 -25.095  0.00  0.00    -0.126 OA
ATOM     25  N   UNL     1      33.489 -12.600 -24.707  0.00  0.00    +0.058 N 
ENDBRANCH  14  25
BRANCH   3  26
ATOM     26  C   UNL     1      31.864  -4.357 -25.453  0.00  0.00    -0.077 C 
BRANCH  26  27
ATOM     27  C   UNL     1      33.182  -3.990 -26.132  0.00  0.00    -0.021 C 
ATOM     28  C   UNL     1      33.349  -4.766 -27.447  0.00  0.00    -0.002 C 
ATOM     29  C   UNL     1      33.264  -2.478 -26.378  0.00  0.00    -0.002 C 
ATOM     30  C   UNL     1      34.551  -2.093 -27.105  0.00  0.00    -0.000 C 
ATOM     31  C   UNL     1      34.636  -4.378 -28.171  0.00  0.00    -0.000 C 
ATOM     32  C   UNL     1      34.718  -2.873 -28.405  0.00  0.00    -0.000 C 
ENDBRANCH  26  27
ENDBRANCH   3  26
TORSDOF 4
ENDMDL
MODEL 6
REMARK VINA RESULT:      -8.7      4.985     10.019
REMARK  Name = 57331386
REMARK  4 active torsions:
REMARK  status: ('A' for Active; 'I' for Inactive)
REMARK    1  A    between atoms: N_3  and  C_26
REMARK    2  A    between atoms: C_14  and  N_25
REMARK    3  A    between atoms: C_16  and  C_22
REMARK    4  A    between atoms: C_26  and  C_27
REMARK                            x       y       z     vdW  Elec       q    Type
REMARK                         _______ _______ _______ _____ _____    ______ ____
ROOT
ATOM      1  S   UNL     1      34.243 -13.640 -22.680  0.00  0.00    -0.037 S 
ATOM      2  O   UNL     1      33.899 -15.005 -26.687  0.00  0.00    -0.209 OA
ATOM      3  N   UNL     1      32.022  -9.252 -22.577  0.00  0.00    +0.389 N 
ATOM      4  N   UNL     1      32.660 -11.814 -23.642  0.00  0.00    -0.282 N 
ATOM      5  N   UNL     1      33.098 -13.542 -25.133  0.00  0.00    -0.310 NA
ATOM      6  C   UNL     1      33.026  -9.391 -23.642  0.00  0.00    -0.055 C 
ATOM      7  C   UNL     1      32.027 -10.441 -21.712  0.00  0.00    -0.055 C 
ATOM      8  C   UNL     1      31.730 -11.706 -22.521  0.00  0.00    +0.071 C 
ATOM      9  C   UNL     1      32.753 -10.631 -24.493  0.00  0.00    +0.071 C 
ATOM     10  C   UNL     1      33.253 -12.984 -23.971  0.00  0.00    +0.227 C 
ATOM     11  C   UNL     1      34.326 -15.337 -23.169  0.00  0.00    +0.067 C 
ATOM     12  C   UNL     1      34.065 -15.724 -24.484  0.00  0.00    +0.102 C 
ATOM     13  C   UNL     1      33.695 -14.721 -25.509  0.00  0.00    +0.207 C 
ATOM     14  C   UNL     1      34.691 -16.308 -22.227  0.00  0.00    +0.150 C 
ATOM     15  C   UNL     1      34.177 -17.071 -24.856  0.00  0.00    +0.017 C 
ATOM     16  C   UNL     1      34.537 -18.030 -23.911  0.00  0.00    +0.074 C 
ATOM     17  C   UNL     1      34.794 -17.649 -22.597  0.00  0.00    +0.028 C 
ATOM     18  H   UNL     1      31.102  -9.169 -23.009  0.00  0.00    -0.080 HD
ENDROOT
BRANCH  16  22
ATOM     19  F   UNL     1      33.570 -19.891 -25.032  0.00  0.00    -0.166 F 
ATOM     20  F   UNL     1      35.738 -19.739 -25.077  0.00  0.00    -0.166 F 
ATOM     21  F   UNL     1      34.733 -20.319 -23.245  0.00  0.00    -0.166 F 
ATOM     22  C   UNL     1      34.645 -19.464 -24.306  0.00  0.00    +0.419 C 
ENDBRANCH  16  22
BRANCH  14  25
ATOM     23  O   UNL     1      35.380 -16.886 -20.104  0.00  0.00    -0.126 OA
ATOM     24  O   UNL     1      34.799 -14.803 -20.484  0.00  0.00    -0.126 OA
ATOM     25  N   UNL     1      34.972 -15.982 -20.868  0.00  0.00    +0.058 N 
ENDBRANCH  14  25
BRANCH   3  26
ATOM     26  C   UNL     1      32.270  -8.045 -21.791  0.00  0.00    -0.077 C 
BRANCH  26  27
ATOM     27  C   UNL     1      31.507  -6.850 -22.359  0.00  0.00    -0.021 C 
ATOM     28  C   UNL     1      31.185  -5.836 -21.252  0.00  0.00    -0.002 C 
ATOM     29  C   UNL     1      32.302  -6.186 -23.491  0.00  0.00    -0.002 C 
ATOM     30  C   UNL     1      31.584  -4.955 -24.039  0.00  0.00    -0.000 C 
ATOM     31  C   UNL     1      30.468  -4.606 -21.804  0.00  0.00    -0.000 C 
ATOM     32  C   UNL     1      31.257  -3.955 -22.935  0.00  0.00    -0.000 C 
ENDBRANCH  26  27
ENDBRANCH   3  26
TORSDOF 4
ENDMDL
