MODEL 1
REMARK VINA RESULT:      -7.7      0.000      0.000
REMARK  Name = 451448
REMARK  6 active torsions:
REMARK  status: ('A' for Active; 'I' for Inactive)
REMARK    1  A    between atoms: C3*_2  and  O3*_19
REMARK    2  A    between atoms: C2*_3  and  O2*_17
REMARK    3  A    between atoms: C4*_4  and  C5*_21
REMARK    4  A    between atoms: C1*_5  and  N_6
REMARK    5  A    between atoms: C_10  and  C_13
REMARK    6  A    between atoms: C5*_21  and  O5*_22
REMARK                            x       y       z     vdW  Elec       q    Type
REMARK                         _______ _______ _______ _____ _____    ______ ____
ROOT
ATOM      1  O4* UNL     1      35.919 -24.630 -15.669  0.00  0.00    -0.332 OA
ATOM      2  C3* UNL     1      37.163 -24.661 -13.639  0.00  0.00    +0.171 C 
ATOM      3  C2* UNL     1      35.727 -24.278 -13.335  0.00  0.00    +0.188 C 
ATOM      4  C4* UNL     1      37.048 -25.273 -15.032  0.00  0.00    +0.175 C 
ATOM      5  C1* UNL     1      35.245 -23.807 -14.699  0.00  0.00    +0.240 C 
ENDROOT
BRANCH   5   6
ATOM      6  N   UNL     1      33.800 -23.908 -14.886  0.00  0.00    -0.172 N 
ATOM      7  N   UNL     1      33.027 -24.514 -13.971  0.00  0.00    -0.122 NA
ATOM      8  N   UNL     1      31.792 -23.730 -15.730  0.00  0.00    -0.192 NA
ATOM      9  C   UNL     1      33.058 -23.445 -15.928  0.00  0.00    +0.250 C 
ATOM     10  C   UNL     1      31.822 -24.379 -14.529  0.00  0.00    +0.081 C 
BRANCH  10  13
ATOM     11  N   UNL     1      29.751 -25.577 -14.701  0.00  0.00    -0.335 N 
ATOM     12  N   UNL     1      30.444 -24.682 -12.620  0.00  0.00    -0.277 NA
ATOM     13  C   UNL     1      30.642 -24.889 -13.899  0.00  0.00    +0.183 C 
ATOM     14  H   UNL     1      28.925 -25.947 -14.314  0.00  0.00    +0.144 HD
ATOM     15  H   UNL     1      29.943 -25.698 -15.659  0.00  0.00    +0.144 HD
ATOM     16  H   UNL     1      29.634 -25.032 -12.184  0.00  0.00    +0.189 HD
ENDBRANCH  10  13
ENDBRANCH   5   6
BRANCH   3  17
ATOM     17  O2* UNL     1      35.621 -23.263 -12.358  0.00  0.00    -0.378 OA
ATOM     18  H2* UNL     1      35.330 -22.438 -12.779  0.00  0.00    +0.211 HD
ENDBRANCH   3  17
BRANCH   2  19
ATOM     19  O3* UNL     1      37.963 -23.482 -13.719  0.00  0.00    -0.379 OA
ATOM     20  H3* UNL     1      37.585 -22.879 -14.378  0.00  0.00    +0.211 HD
ENDBRANCH   2  19
BRANCH   4  21
ATOM     21  C5* UNL     1      36.791 -26.773 -15.002  0.00  0.00    +0.169 C 
BRANCH  21  22
ATOM     22  O5* UNL     1      36.784 -27.258 -16.333  0.00  0.00    -0.379 OA
ATOM     23  H5* UNL     1      37.652 -27.105 -16.738  0.00  0.00    +0.211 HD
ENDBRANCH  21  22
ENDBRANCH   4  21
TORSDOF 6
ENDMDL
MODEL 2
REMARK VINA RESULT:      -7.7      3.558      4.614
REMARK  Name = 451448
REMARK  6 active torsions:
REMARK  status: ('A' for Active; 'I' for Inactive)
REMARK    1  A    between atoms: C3*_2  and  O3*_19
REMARK    2  A    between atoms: C2*_3  and  O2*_17
REMARK    3  A    between atoms: C4*_4  and  C5*_21
REMARK    4  A    between atoms: C1*_5  and  N_6
REMARK    5  A    between atoms: C_10  and  C_13
REMARK    6  A    between atoms: C5*_21  and  O5*_22
REMARK                            x       y       z     vdW  Elec       q    Type
REMARK                         _______ _______ _______ _____ _____    ______ ____
ROOT
ATOM      1  O4* UNL     1      38.205 -24.105 -14.010  0.00  0.00    -0.332 OA
ATOM      2  C3* UNL     1      37.632 -26.412 -13.881  0.00  0.00    +0.171 C 
ATOM      3  C2* UNL     1      36.802 -25.755 -14.966  0.00  0.00    +0.188 C 
ATOM      4  C4* UNL     1      38.755 -25.400 -13.673  0.00  0.00    +0.175 C 
ATOM      5  C1* UNL     1      36.892 -24.289 -14.571  0.00  0.00    +0.240 C 
ENDROOT
BRANCH   5   6
ATOM      6  N   UNL     1      36.695 -23.360 -15.680  0.00  0.00    -0.172 N 
ATOM      7  N   UNL     1      35.610 -23.445 -16.466  0.00  0.00    -0.122 NA
ATOM      8  N   UNL     1      36.985 -21.735 -17.112  0.00  0.00    -0.192 NA
ATOM      9  C   UNL     1      37.506 -22.341 -16.071  0.00  0.00    +0.250 C 
ATOM     10  C   UNL     1      35.834 -22.440 -17.315  0.00  0.00    +0.081 C 
BRANCH  10  13
ATOM     11  N   UNL     1      35.376 -21.303 -19.378  0.00  0.00    -0.335 N 
ATOM     12  N   UNL     1      33.702 -22.622 -18.344  0.00  0.00    -0.277 NA
ATOM     13  C   UNL     1      34.917 -22.132 -18.371  0.00  0.00    +0.183 C 
ATOM     14  H   UNL     1      34.783 -21.062 -20.126  0.00  0.00    +0.144 HD
ATOM     15  H   UNL     1      36.296 -20.955 -19.346  0.00  0.00    +0.144 HD
ATOM     16  H   UNL     1      33.070 -22.412 -19.068  0.00  0.00    +0.189 HD
ENDBRANCH  10  13
ENDBRANCH   5   6
BRANCH   3  17
ATOM     17  O2* UNL     1      35.466 -26.213 -14.994  0.00  0.00    -0.378 OA
ATOM     18  H2* UNL     1      34.862 -25.457 -14.921  0.00  0.00    +0.211 HD
ENDBRANCH   3  17
BRANCH   2  19
ATOM     19  O3* UNL     1      36.864 -26.499 -12.682  0.00  0.00    -0.379 OA
ATOM     20  H3* UNL     1      37.047 -27.343 -12.240  0.00  0.00    +0.211 HD
ENDBRANCH   2  19
BRANCH   4  21
ATOM     21  C5* UNL     1      39.959 -25.658 -14.568  0.00  0.00    +0.169 C 
BRANCH  21  22
ATOM     22  O5* UNL     1      40.919 -24.641 -14.340  0.00  0.00    -0.379 OA
ATOM     23  H5* UNL     1      40.468 -23.825 -14.072  0.00  0.00    +0.211 HD
ENDBRANCH  21  22
ENDBRANCH   4  21
TORSDOF 6
ENDMDL
MODEL 3
REMARK VINA RESULT:      -7.7      3.478      5.904
REMARK  Name = 451448
REMARK  6 active torsions:
REMARK  status: ('A' for Active; 'I' for Inactive)
REMARK    1  A    between atoms: C3*_2  and  O3*_19
REMARK    2  A    between atoms: C2*_3  and  O2*_17
REMARK    3  A    between atoms: C4*_4  and  C5*_21
REMARK    4  A    between atoms: C1*_5  and  N_6
REMARK    5  A    between atoms: C_10  and  C_13
REMARK    6  A    between atoms: C5*_21  and  O5*_22
REMARK                            x       y       z     vdW  Elec       q    Type
REMARK                         _______ _______ _______ _____ _____    ______ ____
ROOT
ATOM      1  O4* UNL     1      30.900 -24.314 -15.819  0.00  0.00    -0.332 OA
ATOM      2  C3* UNL     1      30.387 -23.529 -13.631  0.00  0.00    +0.171 C 
ATOM      3  C2* UNL     1      31.788 -23.085 -14.001  0.00  0.00    +0.188 C 
ATOM      4  C4* UNL     1      29.792 -23.894 -14.989  0.00  0.00    +0.175 C 
ATOM      5  C1* UNL     1      32.131 -24.061 -15.116  0.00  0.00    +0.240 C 
ENDROOT
BRANCH   5   6
ATOM      6  N   UNL     1      33.140 -23.568 -16.050  0.00  0.00    -0.172 N 
ATOM      7  N   UNL     1      32.797 -23.153 -17.279  0.00  0.00    -0.122 NA
ATOM      8  N   UNL     1      35.049 -22.971 -16.927  0.00  0.00    -0.192 NA
ATOM      9  C   UNL     1      34.480 -23.456 -15.849  0.00  0.00    +0.250 C 
ATOM     10  C   UNL     1      33.988 -22.802 -17.768  0.00  0.00    +0.081 C 
BRANCH  10  13
ATOM     11  N   UNL     1      32.978 -21.854 -19.727  0.00  0.00    -0.335 N 
ATOM     12  N   UNL     1      35.313 -22.247 -19.658  0.00  0.00    -0.277 NA
ATOM     13  C   UNL     1      34.130 -22.284 -19.095  0.00  0.00    +0.183 C 
ATOM     14  H   UNL     1      33.023 -21.490 -20.641  0.00  0.00    +0.144 HD
ATOM     15  H   UNL     1      32.112 -21.912 -19.262  0.00  0.00    +0.144 HD
ATOM     16  H   UNL     1      35.413 -21.892 -20.571  0.00  0.00    +0.189 HD
ENDBRANCH  10  13
ENDBRANCH   5   6
BRANCH   3  17
ATOM     17  O2* UNL     1      32.698 -23.174 -12.924  0.00  0.00    -0.378 OA
ATOM     18  H2* UNL     1      33.393 -22.505 -13.030  0.00  0.00    +0.211 HD
ENDBRANCH   3  17
BRANCH   2  19
ATOM     19  O3* UNL     1      30.456 -24.706 -12.828  0.00  0.00    -0.379 OA
ATOM     20  H3* UNL     1      29.705 -24.724 -12.215  0.00  0.00    +0.211 HD
ENDBRANCH   2  19
BRANCH   4  21
ATOM     21  C5* UNL     1      29.102 -22.720 -15.669  0.00  0.00    +0.169 C 
BRANCH  21  22
ATOM     22  O5* UNL     1      29.708 -22.508 -16.932  0.00  0.00    -0.379 OA
ATOM     23  H5* UNL     1      30.372 -21.805 -16.857  0.00  0.00    +0.211 HD
ENDBRANCH  21  22
ENDBRANCH   4  21
TORSDOF 6
ENDMDL
MODEL 4
REMARK VINA RESULT:      -7.7      8.054      9.799
REMARK  Name = 451448
REMARK  6 active torsions:
REMARK  status: ('A' for Active; 'I' for Inactive)
REMARK    1  A    between atoms: C3*_2  and  O3*_19
REMARK    2  A    between atoms: C2*_3  and  O2*_17
REMARK    3  A    between atoms: C4*_4  and  C5*_21
REMARK    4  A    between atoms: C1*_5  and  N_6
REMARK    5  A    between atoms: C_10  and  C_13
REMARK    6  A    between atoms: C5*_21  and  O5*_22
REMARK                            x       y       z     vdW  Elec       q    Type
REMARK                         _______ _______ _______ _____ _____    ______ ____
ROOT
ATOM      1  O4* UNL     1      35.296 -17.136 -20.661  0.00  0.00    -0.332 OA
ATOM      2  C3* UNL     1      34.574 -16.680 -22.883  0.00  0.00    +0.171 C 
ATOM      3  C2* UNL     1      34.759 -18.175 -22.720  0.00  0.00    +0.188 C 
ATOM      4  C4* UNL     1      34.511 -16.200 -21.435  0.00  0.00    +0.175 C 
ATOM      5  C1* UNL     1      35.677 -18.236 -21.508  0.00  0.00    +0.240 C 
ENDROOT
BRANCH   5   6
ATOM      6  N   UNL     1      35.593 -19.487 -20.760  0.00  0.00    -0.172 N 
ATOM      7  N   UNL     1      34.411 -20.091 -20.557  0.00  0.00    -0.122 NA
ATOM      8  N   UNL     1      36.130 -21.264 -19.606  0.00  0.00    -0.192 NA
ATOM      9  C   UNL     1      36.609 -20.191 -20.192  0.00  0.00    +0.250 C 
ATOM     10  C   UNL     1      34.791 -21.161 -19.855  0.00  0.00    +0.081 C 
BRANCH  10  13
ATOM     11  N   UNL     1      32.640 -21.651 -18.913  0.00  0.00    -0.335 N 
ATOM     12  N   UNL     1      34.145 -23.406 -19.432  0.00  0.00    -0.277 NA
ATOM     13  C   UNL     1      33.844 -22.131 -19.395  0.00  0.00    +0.183 C 
ATOM     14  H   UNL     1      31.956 -22.278 -18.585  0.00  0.00    +0.144 HD
ATOM     15  H   UNL     1      32.467 -20.682 -18.899  0.00  0.00    +0.144 HD
ATOM     16  H   UNL     1      33.496 -24.074 -19.115  0.00  0.00    +0.189 HD
ENDBRANCH  10  13
ENDBRANCH   5   6
BRANCH   3  17
ATOM     17  O2* UNL     1      35.341 -18.787 -23.853  0.00  0.00    -0.378 OA
ATOM     18  H2* UNL     1      36.293 -18.903 -23.705  0.00  0.00    +0.211 HD
ENDBRANCH   3  17
BRANCH   2  19
ATOM     19  O3* UNL     1      35.731 -16.121 -23.502  0.00  0.00    -0.379 OA
ATOM     20  H3* UNL     1      35.617 -16.125 -24.465  0.00  0.00    +0.211 HD
ENDBRANCH   2  19
BRANCH   4  21
ATOM     21  C5* UNL     1      33.095 -16.184 -20.877  0.00  0.00    +0.169 C 
BRANCH  21  22
ATOM     22  O5* UNL     1      32.320 -15.269 -21.633  0.00  0.00    -0.379 OA
ATOM     23  H5* UNL     1      32.753 -15.106 -22.486  0.00  0.00    +0.211 HD
ENDBRANCH  21  22
ENDBRANCH   4  21
TORSDOF 6
ENDMDL
MODEL 5
REMARK VINA RESULT:      -7.6      2.230      4.005
REMARK  Name = 451448
REMARK  6 active torsions:
REMARK  status: ('A' for Active; 'I' for Inactive)
REMARK    1  A    between atoms: C3*_2  and  O3*_19
REMARK    2  A    between atoms: C2*_3  and  O2*_17
REMARK    3  A    between atoms: C4*_4  and  C5*_21
REMARK    4  A    between atoms: C1*_5  and  N_6
REMARK    5  A    between atoms: C_10  and  C_13
REMARK    6  A    between atoms: C5*_21  and  O5*_22
REMARK                            x       y       z     vdW  Elec       q    Type
REMARK                         _______ _______ _______ _____ _____    ______ ____
ROOT
ATOM      1  O4* UNL     1      35.663 -24.655 -12.707  0.00  0.00    -0.332 OA
ATOM      2  C3* UNL     1      38.009 -24.870 -13.049  0.00  0.00    +0.171 C 
ATOM      3  C2* UNL     1      37.342 -24.561 -14.375  0.00  0.00    +0.188 C 
ATOM      4  C4* UNL     1      36.935 -24.470 -12.042  0.00  0.00    +0.175 C 
ATOM      5  C1* UNL     1      35.904 -24.969 -14.092  0.00  0.00    +0.240 C 
ENDROOT
BRANCH   5   6
ATOM      6  N   UNL     1      34.917 -24.292 -14.929  0.00  0.00    -0.172 N 
ATOM      7  N   UNL     1      35.220 -23.913 -16.181  0.00  0.00    -0.122 NA
ATOM      8  N   UNL     1      33.070 -23.360 -15.631  0.00  0.00    -0.192 NA
ATOM      9  C   UNL     1      33.637 -23.960 -14.611  0.00  0.00    +0.250 C 
ATOM     10  C   UNL     1      34.068 -23.355 -16.561  0.00  0.00    +0.081 C 
BRANCH  10  13
ATOM     11  N   UNL     1      32.613 -22.509 -18.270  0.00  0.00    -0.335 N 
ATOM     12  N   UNL     1      34.955 -22.568 -18.618  0.00  0.00    -0.277 NA
ATOM     13  C   UNL     1      33.905 -22.787 -17.865  0.00  0.00    +0.183 C 
ATOM     14  H   UNL     1      32.448 -22.119 -19.159  0.00  0.00    +0.144 HD
ATOM     15  H   UNL     1      31.857 -22.701 -17.669  0.00  0.00    +0.144 HD
ATOM     16  H   UNL     1      34.845 -22.179 -19.515  0.00  0.00    +0.189 HD
ENDBRANCH  10  13
ENDBRANCH   5   6
BRANCH   3  17
ATOM     17  O2* UNL     1      37.893 -25.287 -15.454  0.00  0.00    -0.378 OA
ATOM     18  H2* UNL     1      38.429 -26.020 -15.111  0.00  0.00    +0.211 HD
ENDBRANCH   3  17
BRANCH   2  19
ATOM     19  O3* UNL     1      38.235 -26.275 -12.946  0.00  0.00    -0.379 OA
ATOM     20  H3* UNL     1      38.853 -26.556 -13.639  0.00  0.00    +0.211 HD
ENDBRANCH   2  19
BRANCH   4  21
ATOM     21  C5* UNL     1      37.041 -23.015 -11.609  0.00  0.00    +0.169 C 
BRANCH  21  22
ATOM     22  O5* UNL     1      38.411 -22.651 -11.574  0.00  0.00    -0.379 OA
ATOM     23  H5* UNL     1      38.844 -22.945 -12.391  0.00  0.00    +0.211 HD
ENDBRANCH  21  22
ENDBRANCH   4  21
TORSDOF 6
ENDMDL
MODEL 6
REMARK VINA RESULT:      -7.5      3.617      4.858
REMARK  Name = 451448
REMARK  6 active torsions:
REMARK  status: ('A' for Active; 'I' for Inactive)
REMARK    1  A    between atoms: C3*_2  and  O3*_19
REMARK    2  A    between atoms: C2*_3  and  O2*_17
REMARK    3  A    between atoms: C4*_4  and  C5*_21
REMARK    4  A    between atoms: C1*_5  and  N_6
REMARK    5  A    between atoms: C_10  and  C_13
REMARK    6  A    between atoms: C5*_21  and  O5*_22
REMARK                            x       y       z     vdW  Elec       q    Type
REMARK                         _______ _______ _______ _____ _____    ______ ____
ROOT
ATOM      1  O4* UNL     1      31.809 -22.426 -15.394  0.00  0.00    -0.332 OA
ATOM      2  C3* UNL     1      32.779 -24.057 -13.957  0.00  0.00    +0.171 C 
ATOM      3  C2* UNL     1      31.315 -24.388 -14.164  0.00  0.00    +0.188 C 
ATOM      4  C4* UNL     1      33.060 -23.092 -15.105  0.00  0.00    +0.175 C 
ATOM      5  C1* UNL     1      30.763 -23.047 -14.624  0.00  0.00    +0.240 C 
ENDROOT
BRANCH   5   6
ATOM      6  N   UNL     1      29.549 -23.147 -15.430  0.00  0.00    -0.172 N 
ATOM      7  N   UNL     1      28.598 -22.202 -15.363  0.00  0.00    -0.122 NA
ATOM      8  N   UNL     1      28.037 -23.860 -16.836  0.00  0.00    -0.192 NA
ATOM      9  C   UNL     1      29.208 -24.128 -16.307  0.00  0.00    +0.250 C 
ATOM     10  C   UNL     1      27.706 -22.681 -16.233  0.00  0.00    +0.081 C 
BRANCH  10  13
ATOM     11  N   UNL     1      26.332 -21.456 -17.771  0.00  0.00    -0.335 N 
ATOM     12  N   UNL     1      25.570 -21.885 -15.569  0.00  0.00    -0.277 NA
ATOM     13  C   UNL     1      26.480 -21.993 -16.506  0.00  0.00    +0.183 C 
ATOM     14  H   UNL     1      25.507 -20.972 -18.007  0.00  0.00    +0.144 HD
ATOM     15  H   UNL     1      27.051 -21.557 -18.436  0.00  0.00    +0.144 HD
ATOM     16  H   UNL     1      24.727 -21.412 -15.754  0.00  0.00    +0.189 HD
ENDBRANCH  10  13
ENDBRANCH   5   6
BRANCH   3  17
ATOM     17  O2* UNL     1      30.679 -24.845 -12.988  0.00  0.00    -0.378 OA
ATOM     18  H2* UNL     1      31.331 -25.282 -12.417  0.00  0.00    +0.211 HD
ENDBRANCH   3  17
BRANCH   2  19
ATOM     19  O3* UNL     1      32.940 -23.361 -12.722  0.00  0.00    -0.379 OA
ATOM     20  H3* UNL     1      33.394 -22.519 -12.881  0.00  0.00    +0.211 HD
ENDBRANCH   2  19
BRANCH   4  21
ATOM     21  C5* UNL     1      33.532 -23.795 -16.369  0.00  0.00    +0.169 C 
BRANCH  21  22
ATOM     22  O5* UNL     1      34.875 -24.208 -16.184  0.00  0.00    -0.379 OA
ATOM     23  H5* UNL     1      34.894 -25.015 -15.646  0.00  0.00    +0.211 HD
ENDBRANCH  21  22
ENDBRANCH   4  21
TORSDOF 6
ENDMDL
MODEL 7
REMARK VINA RESULT:      -7.5      3.482      5.814
REMARK  Name = 451448
REMARK  6 active torsions:
REMARK  status: ('A' for Active; 'I' for Inactive)
REMARK    1  A    between atoms: C3*_2  and  O3*_19
REMARK    2  A    between atoms: C2*_3  and  O2*_17
REMARK    3  A    between atoms: C4*_4  and  C5*_21
REMARK    4  A    between atoms: C1*_5  and  N_6
REMARK    5  A    between atoms: C_10  and  C_13
REMARK    6  A    between atoms: C5*_21  and  O5*_22
REMARK                            x       y       z     vdW  Elec       q    Type
REMARK                         _______ _______ _______ _____ _____    ______ ____
ROOT
ATOM      1  O4* UNL     1      31.411 -24.165 -15.858  0.00  0.00    -0.332 OA
ATOM      2  C3* UNL     1      30.791 -23.573 -13.637  0.00  0.00    +0.171 C 
ATOM      3  C2* UNL     1      32.225 -23.147 -13.881  0.00  0.00    +0.188 C 
ATOM      4  C4* UNL     1      30.268 -23.785 -15.055  0.00  0.00    +0.175 C 
ATOM      5  C1* UNL     1      32.604 -24.025 -15.064  0.00  0.00    +0.240 C 
ENDROOT
BRANCH   5   6
ATOM      6  N   UNL     1      33.682 -23.482 -15.887  0.00  0.00    -0.172 N 
ATOM      7  N   UNL     1      34.875 -23.184 -15.350  0.00  0.00    -0.122 NA
ATOM      8  N   UNL     1      34.825 -22.732 -17.591  0.00  0.00    -0.192 NA
ATOM      9  C   UNL     1      33.661 -23.211 -17.219  0.00  0.00    +0.250 C 
ATOM     10  C   UNL     1      35.530 -22.735 -16.423  0.00  0.00    +0.081 C 
BRANCH  10  13
ATOM     11  N   UNL     1      37.156 -21.017 -16.821  0.00  0.00    -0.335 N 
ATOM     12  N   UNL     1      37.805 -23.070 -15.834  0.00  0.00    -0.277 NA
ATOM     13  C   UNL     1      36.886 -22.284 -16.339  0.00  0.00    +0.183 C 
ATOM     14  H   UNL     1      38.074 -20.661 -16.787  0.00  0.00    +0.144 HD
ATOM     15  H   UNL     1      36.430 -20.470 -17.200  0.00  0.00    +0.144 HD
ATOM     16  H   UNL     1      38.738 -22.762 -15.775  0.00  0.00    +0.189 HD
ENDBRANCH  10  13
ENDBRANCH   5   6
BRANCH   3  17
ATOM     17  O2* UNL     1      33.065 -23.371 -12.767  0.00  0.00    -0.378 OA
ATOM     18  H2* UNL     1      33.348 -24.300 -12.757  0.00  0.00    +0.211 HD
ENDBRANCH   3  17
BRANCH   2  19
ATOM     19  O3* UNL     1      30.776 -24.823 -12.949  0.00  0.00    -0.379 OA
ATOM     20  H3* UNL     1      31.616 -24.945 -12.480  0.00  0.00    +0.211 HD
ENDBRANCH   2  19
BRANCH   4  21
ATOM     21  C5* UNL     1      29.656 -22.528 -15.656  0.00  0.00    +0.169 C 
BRANCH  21  22
ATOM     22  O5* UNL     1      29.944 -22.503 -17.043  0.00  0.00    -0.379 OA
ATOM     23  H5* UNL     1      30.170 -23.397 -17.343  0.00  0.00    +0.211 HD
ENDBRANCH  21  22
ENDBRANCH   4  21
TORSDOF 6
ENDMDL
MODEL 8
REMARK VINA RESULT:      -7.4      2.555      3.215
REMARK  Name = 451448
REMARK  6 active torsions:
REMARK  status: ('A' for Active; 'I' for Inactive)
REMARK    1  A    between atoms: C3*_2  and  O3*_19
REMARK    2  A    between atoms: C2*_3  and  O2*_17
REMARK    3  A    between atoms: C4*_4  and  C5*_21
REMARK    4  A    between atoms: C1*_5  and  N_6
REMARK    5  A    between atoms: C_10  and  C_13
REMARK    6  A    between atoms: C5*_21  and  O5*_22
REMARK                            x       y       z     vdW  Elec       q    Type
REMARK                         _______ _______ _______ _____ _____    ______ ____
ROOT
ATOM      1  O4* UNL     1      38.002 -23.801 -13.943  0.00  0.00    -0.332 OA
ATOM      2  C3* UNL     1      37.216 -25.286 -12.256  0.00  0.00    +0.171 C 
ATOM      3  C2* UNL     1      36.053 -24.881 -13.141  0.00  0.00    +0.188 C 
ATOM      4  C4* UNL     1      38.422 -24.908 -13.111  0.00  0.00    +0.175 C 
ATOM      5  C1* UNL     1      36.586 -23.604 -13.775  0.00  0.00    +0.240 C 
ENDROOT
BRANCH   5   6
ATOM      6  N   UNL     1      35.977 -23.280 -15.062  0.00  0.00    -0.172 N 
ATOM      7  N   UNL     1      34.688 -23.565 -15.306  0.00  0.00    -0.122 NA
ATOM      8  N   UNL     1      35.685 -22.567 -17.106  0.00  0.00    -0.192 NA
ATOM      9  C   UNL     1      36.561 -22.687 -16.137  0.00  0.00    +0.250 C 
ATOM     10  C   UNL     1      34.561 -23.113 -16.555  0.00  0.00    +0.081 C 
BRANCH  10  13
ATOM     11  N   UNL     1      33.382 -23.156 -18.644  0.00  0.00    -0.335 N 
ATOM     12  N   UNL     1      32.197 -23.314 -16.599  0.00  0.00    -0.277 NA
ATOM     13  C   UNL     1      33.321 -23.204 -17.263  0.00  0.00    +0.183 C 
ATOM     14  H   UNL     1      32.556 -23.214 -19.176  0.00  0.00    +0.144 HD
ATOM     15  H   UNL     1      34.253 -23.063 -19.094  0.00  0.00    +0.144 HD
ATOM     16  H   UNL     1      31.342 -23.376 -17.084  0.00  0.00    +0.189 HD
ENDBRANCH  10  13
ENDBRANCH   5   6
BRANCH   3  17
ATOM     17  O2* UNL     1      34.861 -24.653 -12.417  0.00  0.00    -0.378 OA
ATOM     18  H2* UNL     1      34.303 -25.445 -12.455  0.00  0.00    +0.211 HD
ENDBRANCH   3  17
BRANCH   2  19
ATOM     19  O3* UNL     1      37.218 -24.483 -11.076  0.00  0.00    -0.379 OA
ATOM     20  H3* UNL     1      37.328 -25.052 -10.298  0.00  0.00    +0.211 HD
ENDBRANCH   2  19
BRANCH   4  21
ATOM     21  C5* UNL     1      38.886 -26.040 -14.016  0.00  0.00    +0.169 C 
BRANCH  21  22
ATOM     22  O5* UNL     1      38.802 -25.606 -15.363  0.00  0.00    -0.379 OA
ATOM     23  H5* UNL     1      38.895 -26.369 -15.954  0.00  0.00    +0.211 HD
ENDBRANCH  21  22
ENDBRANCH   4  21
TORSDOF 6
ENDMDL
MODEL 9
REMARK VINA RESULT:      -7.4      2.223      3.202
REMARK  Name = 451448
REMARK  6 active torsions:
REMARK  status: ('A' for Active; 'I' for Inactive)
REMARK    1  A    between atoms: C3*_2  and  O3*_19
REMARK    2  A    between atoms: C2*_3  and  O2*_17
REMARK    3  A    between atoms: C4*_4  and  C5*_21
REMARK    4  A    between atoms: C1*_5  and  N_6
REMARK    5  A    between atoms: C_10  and  C_13
REMARK    6  A    between atoms: C5*_21  and  O5*_22
REMARK                            x       y       z     vdW  Elec       q    Type
REMARK                         _______ _______ _______ _____ _____    ______ ____
ROOT
ATOM      1  O4* UNL     1      36.687 -26.021 -14.362  0.00  0.00    -0.332 OA
ATOM      2  C3* UNL     1      38.828 -24.981 -14.398  0.00  0.00    +0.171 C 
ATOM      3  C2* UNL     1      37.793 -24.000 -14.911  0.00  0.00    +0.188 C 
ATOM      4  C4* UNL     1      37.966 -26.022 -13.687  0.00  0.00    +0.175 C 
ATOM      5  C1* UNL     1      36.660 -24.936 -15.308  0.00  0.00    +0.240 C 
ENDROOT
BRANCH   5   6
ATOM      6  N   UNL     1      35.341 -24.309 -15.303  0.00  0.00    -0.172 N 
ATOM      7  N   UNL     1      34.689 -24.067 -16.450  0.00  0.00    -0.122 NA
ATOM      8  N   UNL     1      33.478 -23.384 -14.634  0.00  0.00    -0.192 NA
ATOM      9  C   UNL     1      34.614 -23.901 -14.228  0.00  0.00    +0.250 C 
ATOM     10  C   UNL     1      33.567 -23.507 -15.990  0.00  0.00    +0.081 C 
BRANCH  10  13
ATOM     11  N   UNL     1      32.909 -22.728 -18.161  0.00  0.00    -0.335 N 
ATOM     12  N   UNL     1      31.297 -22.986 -16.446  0.00  0.00    -0.277 NA
ATOM     13  C   UNL     1      32.532 -23.066 -16.875  0.00  0.00    +0.183 C 
ATOM     14  H   UNL     1      32.234 -22.419 -18.808  0.00  0.00    +0.144 HD
ATOM     15  H   UNL     1      33.854 -22.798 -18.431  0.00  0.00    +0.144 HD
ATOM     16  H   UNL     1      30.583 -22.682 -17.052  0.00  0.00    +0.189 HD
ENDBRANCH  10  13
ENDBRANCH   5   6
BRANCH   3  17
ATOM     17  O2* UNL     1      38.252 -23.234 -16.006  0.00  0.00    -0.378 OA
ATOM     18  H2* UNL     1      39.111 -22.839 -15.786  0.00  0.00    +0.211 HD
ENDBRANCH   3  17
BRANCH   2  19
ATOM     19  O3* UNL     1      39.483 -25.603 -15.502  0.00  0.00    -0.379 OA
ATOM     20  H3* UNL     1      38.821 -25.919 -16.135  0.00  0.00    +0.211 HD
ENDBRANCH   2  19
BRANCH   4  21
ATOM     21  C5* UNL     1      37.735 -25.697 -12.219  0.00  0.00    +0.169 C 
BRANCH  21  22
ATOM     22  O5* UNL     1      36.380 -25.968 -11.903  0.00  0.00    -0.379 OA
ATOM     23  H5* UNL     1      35.998 -25.207 -11.438  0.00  0.00    +0.211 HD
ENDBRANCH  21  22
ENDBRANCH   4  21
TORSDOF 6
ENDMDL
