MODEL 1
REMARK VINA RESULT:     -10.4      0.000      0.000
REMARK  Name = 54727985
REMARK  7 active torsions:
REMARK  status: ('A' for Active; 'I' for Inactive)
REMARK    1  A    between atoms: C_1  and  C_7
REMARK    2  A    between atoms: C_4  and  N_17
REMARK    3  A    between atoms: C_10  and  O_13
REMARK    4  A    between atoms: O_13  and  C_14
REMARK    5  A    between atoms: C_18  and  C_20
REMARK    6  A    between atoms: C_20  and  C_26
REMARK    7  A    between atoms: C_21  and  O_23
REMARK                            x       y       z     vdW  Elec       q    Type
REMARK                         _______ _______ _______ _____ _____    ______ ____
ROOT
ATOM      1  C   UNL     1      34.807 -18.878 -21.451  0.00  0.00    +0.000 C 
ATOM      2  C   UNL     1      34.829 -17.582 -20.935  0.00  0.00    +0.001 C 
ATOM      3  C   UNL     1      34.611 -19.081 -22.817  0.00  0.00    +0.001 C 
ATOM      4  C   UNL     1      34.462 -16.693 -23.151  0.00  0.00    +0.051 C 
ATOM      5  C   UNL     1      34.657 -16.490 -21.784  0.00  0.00    +0.015 C 
ATOM      6  C   UNL     1      34.440 -17.989 -23.667  0.00  0.00    +0.015 C 
ENDROOT
BRANCH   1   7
ATOM      7  C   UNL     1      34.984 -20.011 -20.569  0.00  0.00    +0.003 C 
ATOM      8  C   UNL     1      33.873 -20.696 -20.078  0.00  0.00    +0.037 C 
ATOM      9  C   UNL     1      36.269 -20.420 -20.209  0.00  0.00    +0.000 C 
ATOM     10  C   UNL     1      34.045 -21.788 -19.228  0.00  0.00    +0.139 C 
ATOM     11  C   UNL     1      36.442 -21.512 -19.359  0.00  0.00    +0.003 C 
ATOM     12  C   UNL     1      35.329 -22.196 -18.868  0.00  0.00    +0.037 C 
BRANCH  10  13
ATOM     13  O   UNL     1      32.959 -22.454 -18.750  0.00  0.00    -0.475 OA
BRANCH  13  14
ATOM     14  C   UNL     1      33.128 -23.183 -17.535  0.00  0.00    +0.206 C 
ATOM     15  C   UNL     1      31.867 -23.062 -16.708  0.00  0.00    +0.051 C 
ENDBRANCH  13  14
ENDBRANCH  10  13
ENDBRANCH   1   7
BRANCH   4  17
ATOM     16  O   UNL     1      32.577 -14.373 -22.963  0.00  0.00    -0.269 OA
ATOM     17  N   UNL     1      34.287 -15.584 -24.014  0.00  0.00    -0.280 N 
ATOM     18  C   UNL     1      33.389 -14.534 -23.868  0.00  0.00    +0.262 C 
ATOM     19  H   UNL     1      34.868 -15.553 -24.808  0.00  0.00    +0.155 HD
BRANCH  18  20
ATOM     20  C   UNL     1      33.491 -13.532 -24.989  0.00  0.00    +0.151 C 
ATOM     21  C   UNL     1      33.294 -13.951 -26.255  0.00  0.00    +0.126 C 
ATOM     22  C   UNL     1      33.376 -13.085 -27.481  0.00  0.00    +0.072 C 
BRANCH  21  23
ATOM     23  O   UNL     1      32.962 -15.270 -26.525  0.00  0.00    -0.509 OA
ATOM     24  H   UNL     1      32.139 -15.615 -26.238  0.00  0.00    +0.292 HD
ENDBRANCH  21  23
BRANCH  20  26
ATOM     25  N   UNL     1      34.062 -11.071 -24.422  0.00  0.00    -0.191 NA
ATOM     26  C   UNL     1      33.809 -12.174 -24.681  0.00  0.00    +0.108 C 
ENDBRANCH  20  26
ENDBRANCH  18  20
ENDBRANCH   4  17
TORSDOF 7
ENDMDL
MODEL 2
REMARK VINA RESULT:     -10.3      4.063      9.879
REMARK  Name = 54727985
REMARK  7 active torsions:
REMARK  status: ('A' for Active; 'I' for Inactive)
REMARK    1  A    between atoms: C_1  and  C_7
REMARK    2  A    between atoms: C_4  and  N_17
REMARK    3  A    between atoms: C_10  and  O_13
REMARK    4  A    between atoms: O_13  and  C_14
REMARK    5  A    between atoms: C_18  and  C_20
REMARK    6  A    between atoms: C_20  and  C_26
REMARK    7  A    between atoms: C_21  and  O_23
REMARK                            x       y       z     vdW  Elec       q    Type
REMARK                         _______ _______ _______ _____ _____    ______ ____
ROOT
ATOM      1  C   UNL     1      35.155 -19.739 -21.218  0.00  0.00    +0.000 C 
ATOM      2  C   UNL     1      34.025 -20.321 -20.644  0.00  0.00    +0.001 C 
ATOM      3  C   UNL     1      36.420 -20.009 -20.696  0.00  0.00    +0.001 C 
ATOM      4  C   UNL     1      35.425 -21.444 -19.027  0.00  0.00    +0.051 C 
ATOM      5  C   UNL     1      34.159 -21.173 -19.548  0.00  0.00    +0.015 C 
ATOM      6  C   UNL     1      36.555 -20.862 -19.601  0.00  0.00    +0.015 C 
ENDROOT
BRANCH   1   7
ATOM      7  C   UNL     1      35.015 -18.854 -22.354  0.00  0.00    +0.003 C 
ATOM      8  C   UNL     1      35.118 -17.473 -22.181  0.00  0.00    +0.037 C 
ATOM      9  C   UNL     1      34.775 -19.381 -23.624  0.00  0.00    +0.000 C 
ATOM     10  C   UNL     1      34.983 -16.621 -23.277  0.00  0.00    +0.139 C 
ATOM     11  C   UNL     1      34.640 -18.529 -24.719  0.00  0.00    +0.003 C 
ATOM     12  C   UNL     1      34.744 -17.149 -24.545  0.00  0.00    +0.037 C 
BRANCH  10  13
ATOM     13  O   UNL     1      35.085 -15.274 -23.107  0.00  0.00    -0.475 OA
BRANCH  13  14
ATOM     14  C   UNL     1      34.007 -14.476 -23.593  0.00  0.00    +0.206 C 
ATOM     15  C   UNL     1      32.925 -14.413 -22.538  0.00  0.00    +0.051 C 
ENDBRANCH  13  14
ENDBRANCH  10  13
ENDBRANCH   1   7
BRANCH   4  17
ATOM     16  O   UNL     1      37.241 -21.267 -16.650  0.00  0.00    -0.269 OA
ATOM     17  N   UNL     1      35.563 -22.309 -17.914  0.00  0.00    -0.280 N 
ATOM     18  C   UNL     1      36.430 -22.168 -16.838  0.00  0.00    +0.262 C 
ATOM     19  H   UNL     1      34.977 -23.101 -17.902  0.00  0.00    +0.155 HD
BRANCH  18  20
ATOM     20  C   UNL     1      36.293 -23.289 -15.840  0.00  0.00    +0.151 C 
ATOM     21  C   UNL     1      37.408 -23.901 -15.393  0.00  0.00    +0.126 C 
ATOM     22  C   UNL     1      37.442 -25.043 -14.415  0.00  0.00    +0.072 C 
BRANCH  21  23
ATOM     23  O   UNL     1      38.664 -23.482 -15.806  0.00  0.00    -0.509 OA
ATOM     24  H   UNL     1      38.751 -22.721 -16.345  0.00  0.00    +0.292 HD
ENDBRANCH  21  23
BRANCH  20  26
ATOM     25  N   UNL     1      33.930 -24.000 -15.054  0.00  0.00    -0.191 NA
ATOM     26  C   UNL     1      34.989 -23.684 -15.412  0.00  0.00    +0.108 C 
ENDBRANCH  20  26
ENDBRANCH  18  20
ENDBRANCH   4  17
TORSDOF 7
ENDMDL
MODEL 3
REMARK VINA RESULT:     -10.0      3.930      9.768
REMARK  Name = 54727985
REMARK  7 active torsions:
REMARK  status: ('A' for Active; 'I' for Inactive)
REMARK    1  A    between atoms: C_1  and  C_7
REMARK    2  A    between atoms: C_4  and  N_17
REMARK    3  A    between atoms: C_10  and  O_13
REMARK    4  A    between atoms: O_13  and  C_14
REMARK    5  A    between atoms: C_18  and  C_20
REMARK    6  A    between atoms: C_20  and  C_26
REMARK    7  A    between atoms: C_21  and  O_23
REMARK                            x       y       z     vdW  Elec       q    Type
REMARK                         _______ _______ _______ _____ _____    ______ ____
ROOT
ATOM      1  C   UNL     1      35.245 -19.667 -21.312  0.00  0.00    +0.000 C 
ATOM      2  C   UNL     1      34.141 -20.280 -20.720  0.00  0.00    +0.001 C 
ATOM      3  C   UNL     1      36.525 -19.900 -20.808  0.00  0.00    +0.001 C 
ATOM      4  C   UNL     1      35.596 -21.361 -19.123  0.00  0.00    +0.051 C 
ATOM      5  C   UNL     1      34.316 -21.127 -19.626  0.00  0.00    +0.015 C 
ATOM      6  C   UNL     1      36.700 -20.748 -19.715  0.00  0.00    +0.015 C 
ENDROOT
BRANCH   1   7
ATOM      7  C   UNL     1      35.063 -18.787 -22.446  0.00  0.00    +0.003 C 
ATOM      8  C   UNL     1      35.151 -17.405 -22.280  0.00  0.00    +0.037 C 
ATOM      9  C   UNL     1      34.799 -19.322 -23.708  0.00  0.00    +0.000 C 
ATOM     10  C   UNL     1      34.975 -16.558 -23.374  0.00  0.00    +0.139 C 
ATOM     11  C   UNL     1      34.623 -18.475 -24.802  0.00  0.00    +0.003 C 
ATOM     12  C   UNL     1      34.711 -17.093 -24.634  0.00  0.00    +0.037 C 
BRANCH  10  13
ATOM     13  O   UNL     1      35.061 -15.210 -23.210  0.00  0.00    -0.475 OA
BRANCH  13  14
ATOM     14  C   UNL     1      33.951 -14.430 -23.651  0.00  0.00    +0.206 C 
ATOM     15  C   UNL     1      32.910 -14.389 -22.554  0.00  0.00    +0.051 C 
ENDBRANCH  13  14
ENDBRANCH  10  13
ENDBRANCH   1   7
BRANCH   4  17
ATOM     16  O   UNL     1      37.271 -21.021 -16.663  0.00  0.00    -0.269 OA
ATOM     17  N   UNL     1      35.775 -22.221 -18.013  0.00  0.00    -0.280 N 
ATOM     18  C   UNL     1      36.571 -22.001 -16.895  0.00  0.00    +0.262 C 
ATOM     19  H   UNL     1      35.278 -23.070 -18.034  0.00  0.00    +0.155 HD
BRANCH  18  20
ATOM     20  C   UNL     1      36.510 -23.144 -15.914  0.00  0.00    +0.151 C 
ATOM     21  C   UNL     1      35.303 -23.602 -15.524  0.00  0.00    +0.126 C 
ATOM     22  C   UNL     1      35.071 -24.718 -14.543  0.00  0.00    +0.072 C 
BRANCH  21  23
ATOM     23  O   UNL     1      34.136 -23.064 -16.045  0.00  0.00    -0.509 OA
ATOM     24  H   UNL     1      33.331 -23.539 -15.978  0.00  0.00    +0.292 HD
ENDBRANCH  21  23
BRANCH  20  26
ATOM     25  N   UNL     1      38.712 -24.150 -14.998  0.00  0.00    -0.191 NA
ATOM     26  C   UNL     1      37.728 -23.696 -15.413  0.00  0.00    +0.108 C 
ENDBRANCH  20  26
ENDBRANCH  18  20
ENDBRANCH   4  17
TORSDOF 7
ENDMDL
MODEL 4
REMARK VINA RESULT:      -9.9      1.768      2.560
REMARK  Name = 54727985
REMARK  7 active torsions:
REMARK  status: ('A' for Active; 'I' for Inactive)
REMARK    1  A    between atoms: C_1  and  C_7
REMARK    2  A    between atoms: C_4  and  N_17
REMARK    3  A    between atoms: C_10  and  O_13
REMARK    4  A    between atoms: O_13  and  C_14
REMARK    5  A    between atoms: C_18  and  C_20
REMARK    6  A    between atoms: C_20  and  C_26
REMARK    7  A    between atoms: C_21  and  O_23
REMARK                            x       y       z     vdW  Elec       q    Type
REMARK                         _______ _______ _______ _____ _____    ______ ____
ROOT
ATOM      1  C   UNL     1      34.993 -17.342 -21.570  0.00  0.00    +0.000 C 
ATOM      2  C   UNL     1      34.681 -16.286 -20.714  0.00  0.00    +0.001 C 
ATOM      3  C   UNL     1      35.091 -17.121 -22.943  0.00  0.00    +0.001 C 
ATOM      4  C   UNL     1      34.567 -14.787 -22.605  0.00  0.00    +0.051 C 
ATOM      5  C   UNL     1      34.468 -15.009 -21.231  0.00  0.00    +0.015 C 
ATOM      6  C   UNL     1      34.879 -15.843 -23.461  0.00  0.00    +0.015 C 
ENDROOT
BRANCH   1   7
ATOM      7  C   UNL     1      35.213 -18.668 -21.033  0.00  0.00    +0.003 C 
ATOM      8  C   UNL     1      34.126 -19.474 -20.694  0.00  0.00    +0.037 C 
ATOM      9  C   UNL     1      36.514 -19.141 -20.855  0.00  0.00    +0.000 C 
ATOM     10  C   UNL     1      34.339 -20.751 -20.177  0.00  0.00    +0.139 C 
ATOM     11  C   UNL     1      36.727 -20.419 -20.338  0.00  0.00    +0.003 C 
ATOM     12  C   UNL     1      35.639 -21.223 -19.999  0.00  0.00    +0.037 C 
BRANCH  10  13
ATOM     13  O   UNL     1      33.278 -21.536 -19.846  0.00  0.00    -0.475 OA
BRANCH  13  14
ATOM     14  C   UNL     1      33.561 -22.761 -19.172  0.00  0.00    +0.206 C 
ATOM     15  C   UNL     1      32.941 -22.720 -17.793  0.00  0.00    +0.051 C 
ENDBRANCH  13  14
ENDBRANCH  10  13
ENDBRANCH   1   7
BRANCH   4  17
ATOM     16  O   UNL     1      32.058 -13.157 -22.765  0.00  0.00    -0.269 OA
ATOM     17  N   UNL     1      34.351 -13.490 -23.130  0.00  0.00    -0.280 N 
ATOM     18  C   UNL     1      33.154 -12.786 -23.173  0.00  0.00    +0.262 C 
ATOM     19  H   UNL     1      35.138 -13.035 -23.508  0.00  0.00    +0.155 HD
BRANCH  18  20
ATOM     20  C   UNL     1      33.309 -11.428 -23.808  0.00  0.00    +0.151 C 
ATOM     21  C   UNL     1      32.698 -10.370 -23.238  0.00  0.00    +0.126 C 
ATOM     22  C   UNL     1      32.739  -8.958 -23.755  0.00  0.00    +0.072 C 
BRANCH  21  23
ATOM     23  O   UNL     1      31.972 -10.514 -22.065  0.00  0.00    -0.509 OA
ATOM     24  H   UNL     1      31.948  -9.816 -21.440  0.00  0.00    +0.292 HD
ENDBRANCH  21  23
BRANCH  20  26
ATOM     25  N   UNL     1      34.710 -11.212 -25.975  0.00  0.00    -0.191 NA
ATOM     26  C   UNL     1      34.083 -11.303 -25.002  0.00  0.00    +0.108 C 
ENDBRANCH  20  26
ENDBRANCH  18  20
ENDBRANCH   4  17
TORSDOF 7
ENDMDL
MODEL 5
REMARK VINA RESULT:      -9.8      3.929      9.946
REMARK  Name = 54727985
REMARK  7 active torsions:
REMARK  status: ('A' for Active; 'I' for Inactive)
REMARK    1  A    between atoms: C_1  and  C_7
REMARK    2  A    between atoms: C_4  and  N_17
REMARK    3  A    between atoms: C_10  and  O_13
REMARK    4  A    between atoms: O_13  and  C_14
REMARK    5  A    between atoms: C_18  and  C_20
REMARK    6  A    between atoms: C_20  and  C_26
REMARK    7  A    between atoms: C_21  and  O_23
REMARK                            x       y       z     vdW  Elec       q    Type
REMARK                         _______ _______ _______ _____ _____    ______ ____
ROOT
ATOM      1  C   UNL     1      34.596 -19.974 -20.931  0.00  0.00    +0.000 C 
ATOM      2  C   UNL     1      35.744 -20.527 -20.364  0.00  0.00    +0.001 C 
ATOM      3  C   UNL     1      33.338 -20.323 -20.440  0.00  0.00    +0.001 C 
ATOM      4  C   UNL     1      34.376 -21.777 -18.814  0.00  0.00    +0.051 C 
ATOM      5  C   UNL     1      35.634 -21.428 -19.305  0.00  0.00    +0.015 C 
ATOM      6  C   UNL     1      33.228 -21.224 -19.381  0.00  0.00    +0.015 C 
ENDROOT
BRANCH   1   7
ATOM      7  C   UNL     1      34.710 -19.039 -22.030  0.00  0.00    +0.003 C 
ATOM      8  C   UNL     1      34.840 -17.674 -21.776  0.00  0.00    +0.037 C 
ATOM      9  C   UNL     1      34.690 -19.505 -23.345  0.00  0.00    +0.000 C 
ATOM     10  C   UNL     1      34.950 -16.774 -22.836  0.00  0.00    +0.139 C 
ATOM     11  C   UNL     1      34.799 -18.605 -24.405  0.00  0.00    +0.003 C 
ATOM     12  C   UNL     1      34.929 -17.240 -24.150  0.00  0.00    +0.037 C 
BRANCH  10  13
ATOM     13  O   UNL     1      35.077 -15.442 -22.586  0.00  0.00    -0.475 OA
BRANCH  13  14
ATOM     14  C   UNL     1      34.205 -14.563 -23.295  0.00  0.00    +0.206 C 
ATOM     15  C   UNL     1      32.955 -14.339 -22.472  0.00  0.00    +0.051 C 
ENDBRANCH  13  14
ENDBRANCH  10  13
ENDBRANCH   1   7
BRANCH   4  17
ATOM     16  O   UNL     1      36.053 -22.083 -16.350  0.00  0.00    -0.269 OA
ATOM     17  N   UNL     1      34.264 -22.692 -17.739  0.00  0.00    -0.280 N 
ATOM     18  C   UNL     1      35.080 -22.781 -16.618  0.00  0.00    +0.262 C 
ATOM     19  H   UNL     1      33.523 -23.338 -17.792  0.00  0.00    +0.155 HD
BRANCH  18  20
ATOM     20  C   UNL     1      34.652 -23.882 -15.682  0.00  0.00    +0.151 C 
ATOM     21  C   UNL     1      33.456 -23.784 -15.067  0.00  0.00    +0.126 C 
ATOM     22  C   UNL     1      32.892 -24.784 -14.096  0.00  0.00    +0.072 C 
BRANCH  21  23
ATOM     23  O   UNL     1      32.612 -22.713 -15.318  0.00  0.00    -0.509 OA
ATOM     24  H   UNL     1      31.872 -22.821 -15.883  0.00  0.00    +0.292 HD
ENDBRANCH  21  23
BRANCH  20  26
ATOM     25  N   UNL     1      36.248 -25.882 -15.290  0.00  0.00    -0.191 NA
ATOM     26  C   UNL     1      35.529 -24.987 -15.461  0.00  0.00    +0.108 C 
ENDBRANCH  20  26
ENDBRANCH  18  20
ENDBRANCH   4  17
TORSDOF 7
ENDMDL
MODEL 6
REMARK VINA RESULT:      -9.5      3.593      5.805
REMARK  Name = 54727985
REMARK  7 active torsions:
REMARK  status: ('A' for Active; 'I' for Inactive)
REMARK    1  A    between atoms: C_1  and  C_7
REMARK    2  A    between atoms: C_4  and  N_17
REMARK    3  A    between atoms: C_10  and  O_13
REMARK    4  A    between atoms: O_13  and  C_14
REMARK    5  A    between atoms: C_18  and  C_20
REMARK    6  A    between atoms: C_20  and  C_26
REMARK    7  A    between atoms: C_21  and  O_23
REMARK                            x       y       z     vdW  Elec       q    Type
REMARK                         _______ _______ _______ _____ _____    ______ ____
ROOT
ATOM      1  C   UNL     1      35.498 -22.183 -17.818  0.00  0.00    +0.000 C 
ATOM      2  C   UNL     1      36.592 -21.514 -18.368  0.00  0.00    +0.001 C 
ATOM      3  C   UNL     1      34.253 -22.117 -18.444  0.00  0.00    +0.001 C 
ATOM      4  C   UNL     1      35.197 -20.716 -20.172  0.00  0.00    +0.051 C 
ATOM      5  C   UNL     1      36.441 -20.781 -19.545  0.00  0.00    +0.015 C 
ATOM      6  C   UNL     1      34.103 -21.384 -19.622  0.00  0.00    +0.015 C 
ENDROOT
BRANCH   1   7
ATOM      7  C   UNL     1      35.654 -22.942 -16.597  0.00  0.00    +0.003 C 
ATOM      8  C   UNL     1      36.903 -23.027 -15.981  0.00  0.00    +0.037 C 
ATOM      9  C   UNL     1      34.554 -23.591 -16.034  0.00  0.00    +0.000 C 
ATOM     10  C   UNL     1      37.052 -23.760 -14.803  0.00  0.00    +0.139 C 
ATOM     11  C   UNL     1      34.703 -24.324 -14.857  0.00  0.00    +0.003 C 
ATOM     12  C   UNL     1      35.953 -24.408 -14.242  0.00  0.00    +0.037 C 
BRANCH  10  13
ATOM     13  O   UNL     1      38.271 -23.842 -14.204  0.00  0.00    -0.475 OA
BRANCH  13  14
ATOM     14  C   UNL     1      38.769 -25.149 -13.923  0.00  0.00    +0.206 C 
ATOM     15  C   UNL     1      40.025 -25.383 -14.734  0.00  0.00    +0.051 C 
ENDBRANCH  13  14
ENDBRANCH  10  13
ENDBRANCH   1   7
BRANCH   4  17
ATOM     16  O   UNL     1      35.515 -17.780 -20.677  0.00  0.00    -0.269 OA
ATOM     17  N   UNL     1      35.043 -19.971 -21.367  0.00  0.00    -0.280 N 
ATOM     18  C   UNL     1      35.208 -18.602 -21.534  0.00  0.00    +0.262 C 
ATOM     19  H   UNL     1      34.792 -20.482 -22.170  0.00  0.00    +0.155 HD
BRANCH  18  20
ATOM     20  C   UNL     1      34.960 -18.164 -22.955  0.00  0.00    +0.151 C 
ATOM     21  C   UNL     1      34.785 -16.852 -23.209  0.00  0.00    +0.126 C 
ATOM     22  C   UNL     1      34.512 -16.256 -24.563  0.00  0.00    +0.072 C 
BRANCH  21  23
ATOM     23  O   UNL     1      34.871 -15.912 -22.193  0.00  0.00    -0.509 OA
ATOM     24  H   UNL     1      35.135 -16.173 -21.334  0.00  0.00    +0.292 HD
ENDBRANCH  21  23
BRANCH  20  26
ATOM     25  N   UNL     1      34.860 -19.945 -24.831  0.00  0.00    -0.191 NA
ATOM     26  C   UNL     1      34.902 -19.150 -23.986  0.00  0.00    +0.108 C 
ENDBRANCH  20  26
ENDBRANCH  18  20
ENDBRANCH   4  17
TORSDOF 7
ENDMDL
MODEL 7
REMARK VINA RESULT:      -9.4      4.320     10.847
REMARK  Name = 54727985
REMARK  7 active torsions:
REMARK  status: ('A' for Active; 'I' for Inactive)
REMARK    1  A    between atoms: C_1  and  C_7
REMARK    2  A    between atoms: C_4  and  N_17
REMARK    3  A    between atoms: C_10  and  O_13
REMARK    4  A    between atoms: O_13  and  C_14
REMARK    5  A    between atoms: C_18  and  C_20
REMARK    6  A    between atoms: C_20  and  C_26
REMARK    7  A    between atoms: C_21  and  O_23
REMARK                            x       y       z     vdW  Elec       q    Type
REMARK                         _______ _______ _______ _____ _____    ______ ____
ROOT
ATOM      1  C   UNL     1      32.476 -10.323 -22.885  0.00  0.00    +0.000 C 
ATOM      2  C   UNL     1      33.454 -10.629 -23.830  0.00  0.00    +0.001 C 
ATOM      3  C   UNL     1      31.864 -11.344 -22.158  0.00  0.00    +0.001 C 
ATOM      4  C   UNL     1      33.211 -12.978 -23.320  0.00  0.00    +0.051 C 
ATOM      5  C   UNL     1      33.823 -11.957 -24.048  0.00  0.00    +0.015 C 
ATOM      6  C   UNL     1      32.233 -12.672 -22.375  0.00  0.00    +0.015 C 
ENDROOT
BRANCH   1   7
ATOM      7  C   UNL     1      32.094  -8.946 -22.660  0.00  0.00    +0.003 C 
ATOM      8  C   UNL     1      31.597  -8.177 -23.712  0.00  0.00    +0.037 C 
ATOM      9  C   UNL     1      32.222  -8.386 -21.388  0.00  0.00    +0.000 C 
ATOM     10  C   UNL     1      31.229  -6.850 -23.494  0.00  0.00    +0.139 C 
ATOM     11  C   UNL     1      31.854  -7.058 -21.170  0.00  0.00    +0.003 C 
ATOM     12  C   UNL     1      31.357  -6.291 -22.223  0.00  0.00    +0.037 C 
BRANCH  10  13
ATOM     13  O   UNL     1      30.744  -6.102 -24.523  0.00  0.00    -0.475 OA
BRANCH  13  14
ATOM     14  C   UNL     1      31.399  -4.862 -24.788  0.00  0.00    +0.206 C 
ATOM     15  C   UNL     1      32.651  -5.128 -25.594  0.00  0.00    +0.051 C 
ENDBRANCH  13  14
ENDBRANCH  10  13
ENDBRANCH   1   7
BRANCH   4  17
ATOM     16  O   UNL     1      34.837 -14.839 -21.626  0.00  0.00    -0.269 OA
ATOM     17  N   UNL     1      33.585 -14.327 -23.541  0.00  0.00    -0.280 N 
ATOM     18  C   UNL     1      34.345 -15.139 -22.708  0.00  0.00    +0.262 C 
ATOM     19  H   UNL     1      33.270 -14.735 -24.379  0.00  0.00    +0.155 HD
BRANCH  18  20
ATOM     20  C   UNL     1      34.537 -16.522 -23.276  0.00  0.00    +0.151 C 
ATOM     21  C   UNL     1      34.650 -17.563 -22.427  0.00  0.00    +0.126 C 
ATOM     22  C   UNL     1      34.862 -18.996 -22.830  0.00  0.00    +0.072 C 
BRANCH  21  23
ATOM     23  O   UNL     1      34.548 -17.378 -21.056  0.00  0.00    -0.509 OA
ATOM     24  H   UNL     1      35.284 -17.552 -20.504  0.00  0.00    +0.292 HD
ENDBRANCH  21  23
BRANCH  20  26
ATOM     25  N   UNL     1      34.677 -16.812 -25.845  0.00  0.00    -0.191 NA
ATOM     26  C   UNL     1      34.613 -16.688 -24.693  0.00  0.00    +0.108 C 
ENDBRANCH  20  26
ENDBRANCH  18  20
ENDBRANCH   4  17
TORSDOF 7
ENDMDL
MODEL 8
REMARK VINA RESULT:      -9.4      3.269      9.310
REMARK  Name = 54727985
REMARK  7 active torsions:
REMARK  status: ('A' for Active; 'I' for Inactive)
REMARK    1  A    between atoms: C_1  and  C_7
REMARK    2  A    between atoms: C_4  and  N_17
REMARK    3  A    between atoms: C_10  and  O_13
REMARK    4  A    between atoms: O_13  and  C_14
REMARK    5  A    between atoms: C_18  and  C_20
REMARK    6  A    between atoms: C_20  and  C_26
REMARK    7  A    between atoms: C_21  and  O_23
REMARK                            x       y       z     vdW  Elec       q    Type
REMARK                         _______ _______ _______ _____ _____    ______ ____
ROOT
ATOM      1  C   UNL     1      33.577 -13.966 -22.423  0.00  0.00    +0.000 C 
ATOM      2  C   UNL     1      32.803 -14.448 -21.368  0.00  0.00    +0.001 C 
ATOM      3  C   UNL     1      34.614 -14.743 -22.939  0.00  0.00    +0.001 C 
ATOM      4  C   UNL     1      34.101 -16.485 -21.347  0.00  0.00    +0.051 C 
ATOM      5  C   UNL     1      33.064 -15.708 -20.830  0.00  0.00    +0.015 C 
ATOM      6  C   UNL     1      34.875 -16.003 -22.402  0.00  0.00    +0.015 C 
ENDROOT
BRANCH   1   7
ATOM      7  C   UNL     1      33.306 -12.659 -22.981  0.00  0.00    +0.003 C 
ATOM      8  C   UNL     1      32.456 -11.777 -22.314  0.00  0.00    +0.037 C 
ATOM      9  C   UNL     1      33.897 -12.279 -24.187  0.00  0.00    +0.000 C 
ATOM     10  C   UNL     1      32.195 -10.517 -22.853  0.00  0.00    +0.139 C 
ATOM     11  C   UNL     1      33.636 -11.019 -24.726  0.00  0.00    +0.003 C 
ATOM     12  C   UNL     1      32.785 -10.138 -24.058  0.00  0.00    +0.037 C 
BRANCH  10  13
ATOM     13  O   UNL     1      31.365  -9.658 -22.200  0.00  0.00    -0.475 OA
BRANCH  13  14
ATOM     14  C   UNL     1      31.942  -8.452 -21.701  0.00  0.00    +0.206 C 
ATOM     15  C   UNL     1      32.223  -8.615 -20.223  0.00  0.00    +0.051 C 
ENDBRANCH  13  14
ENDBRANCH  10  13
ENDBRANCH   1   7
BRANCH   4  17
ATOM     16  O   UNL     1      34.219 -19.169 -22.672  0.00  0.00    -0.269 OA
ATOM     17  N   UNL     1      34.367 -17.765 -20.800  0.00  0.00    -0.280 N 
ATOM     18  C   UNL     1      34.408 -18.978 -21.476  0.00  0.00    +0.262 C 
ATOM     19  H   UNL     1      34.543 -17.798 -19.833  0.00  0.00    +0.155 HD
BRANCH  18  20
ATOM     20  C   UNL     1      34.724 -20.133 -20.560  0.00  0.00    +0.151 C 
ATOM     21  C   UNL     1      36.009 -20.360 -20.220  0.00  0.00    +0.126 C 
ATOM     22  C   UNL     1      36.491 -21.476 -19.335  0.00  0.00    +0.072 C 
BRANCH  21  23
ATOM     23  O   UNL     1      37.022 -19.525 -20.667  0.00  0.00    -0.509 OA
ATOM     24  H   UNL     1      36.811 -18.697 -21.052  0.00  0.00    +0.292 HD
ENDBRANCH  21  23
BRANCH  20  26
ATOM     25  N   UNL     1      32.788 -21.636 -19.726  0.00  0.00    -0.191 NA
ATOM     26  C   UNL     1      33.659 -20.963 -20.095  0.00  0.00    +0.108 C 
ENDBRANCH  20  26
ENDBRANCH  18  20
ENDBRANCH   4  17
TORSDOF 7
ENDMDL
MODEL 9
REMARK VINA RESULT:      -9.2      2.748      9.371
REMARK  Name = 54727985
REMARK  7 active torsions:
REMARK  status: ('A' for Active; 'I' for Inactive)
REMARK    1  A    between atoms: C_1  and  C_7
REMARK    2  A    between atoms: C_4  and  N_17
REMARK    3  A    between atoms: C_10  and  O_13
REMARK    4  A    between atoms: O_13  and  C_14
REMARK    5  A    between atoms: C_18  and  C_20
REMARK    6  A    between atoms: C_20  and  C_26
REMARK    7  A    between atoms: C_21  and  O_23
REMARK                            x       y       z     vdW  Elec       q    Type
REMARK                         _______ _______ _______ _____ _____    ______ ____
ROOT
ATOM      1  C   UNL     1      34.142 -16.309 -23.519  0.00  0.00    +0.000 C 
ATOM      2  C   UNL     1      34.649 -17.514 -24.004  0.00  0.00    +0.001 C 
ATOM      3  C   UNL     1      33.925 -16.144 -22.151  0.00  0.00    +0.001 C 
ATOM      4  C   UNL     1      34.726 -18.389 -21.754  0.00  0.00    +0.051 C 
ATOM      5  C   UNL     1      34.942 -18.554 -23.122  0.00  0.00    +0.015 C 
ATOM      6  C   UNL     1      34.218 -17.184 -21.268  0.00  0.00    +0.015 C 
ENDROOT
BRANCH   1   7
ATOM      7  C   UNL     1      33.838 -15.230 -24.434  0.00  0.00    +0.003 C 
ATOM      8  C   UNL     1      33.936 -13.905 -24.010  0.00  0.00    +0.037 C 
ATOM      9  C   UNL     1      33.445 -15.516 -25.743  0.00  0.00    +0.000 C 
ATOM     10  C   UNL     1      33.642 -12.866 -24.893  0.00  0.00    +0.139 C 
ATOM     11  C   UNL     1      33.152 -14.477 -26.626  0.00  0.00    +0.003 C 
ATOM     12  C   UNL     1      33.250 -13.152 -26.201  0.00  0.00    +0.037 C 
BRANCH  10  13
ATOM     13  O   UNL     1      33.739 -11.574 -24.478  0.00  0.00    -0.475 OA
BRANCH  13  14
ATOM     14  C   UNL     1      34.731 -10.763 -25.105  0.00  0.00    +0.206 C 
ATOM     15  C   UNL     1      34.904  -9.489 -24.308  0.00  0.00    +0.051 C 
ENDBRANCH  13  14
ENDBRANCH  10  13
ENDBRANCH   1   7
BRANCH   4  17
ATOM     16  O   UNL     1      32.938 -20.480 -20.568  0.00  0.00    -0.269 OA
ATOM     17  N   UNL     1      35.022 -19.444 -20.858  0.00  0.00    -0.280 N 
ATOM     18  C   UNL     1      34.141 -20.387 -20.343  0.00  0.00    +0.262 C 
ATOM     19  H   UNL     1      35.960 -19.519 -20.566  0.00  0.00    +0.155 HD
BRANCH  18  20
ATOM     20  C   UNL     1      34.820 -21.362 -19.416  0.00  0.00    +0.151 C 
ATOM     21  C   UNL     1      36.086 -21.112 -19.025  0.00  0.00    +0.126 C 
ATOM     22  C   UNL     1      36.907 -21.990 -18.121  0.00  0.00    +0.072 C 
BRANCH  21  23
ATOM     23  O   UNL     1      36.743 -19.960 -19.432  0.00  0.00    -0.509 OA
ATOM     24  H   UNL     1      37.204 -19.946 -20.247  0.00  0.00    +0.292 HD
ENDBRANCH  21  23
BRANCH  20  26
ATOM     25  N   UNL     1      33.536 -23.478 -18.658  0.00  0.00    -0.191 NA
ATOM     26  C   UNL     1      34.112 -22.527 -18.992  0.00  0.00    +0.108 C 
ENDBRANCH  20  26
ENDBRANCH  18  20
ENDBRANCH   4  17
TORSDOF 7
ENDMDL
