MODEL 1
REMARK VINA RESULT:     -10.8      0.000      0.000
REMARK  Name = 5494425
REMARK  1 active torsions:
REMARK  status: ('A' for Active; 'I' for Inactive)
REMARK    1  A    between atoms: C_6  and  C_23
REMARK                            x       y       z     vdW  Elec       q    Type
REMARK                         _______ _______ _______ _____ _____    ______ ____
ROOT
ATOM      1  F   UNL     1      33.092 -21.228 -20.241  0.00  0.00    -0.204 F 
ATOM      2  O   UNL     1      30.146 -22.927 -16.920  0.00  0.00    -0.270 OA
ATOM      3  N   UNL     1      36.324 -23.871 -15.221  0.00  0.00    -0.318 N 
ATOM      4  N   UNL     1      35.008 -24.684 -13.635  0.00  0.00    -0.318 N 
ATOM      5  N   UNL     1      30.092 -23.977 -14.904  0.00  0.00    -0.279 N 
ATOM      6  C   UNL     1      36.250 -24.500 -14.012  0.00  0.00    +0.143 C 
ATOM      7  C   UNL     1      35.041 -23.632 -15.658  0.00  0.00    +0.059 A 
ATOM      8  C   UNL     1      34.239 -24.150 -14.648  0.00  0.00    +0.059 A 
ATOM      9  C   UNL     1      34.520 -23.023 -16.819  0.00  0.00    +0.015 A 
ATOM     10  C   UNL     1      32.841 -24.065 -14.784  0.00  0.00    +0.020 A 
ATOM     11  C   UNL     1      33.108 -22.929 -16.972  0.00  0.00    +0.008 A 
ATOM     12  C   UNL     1      32.275 -23.462 -15.934  0.00  0.00    +0.055 A 
ATOM     13  C   UNL     1      35.418 -22.526 -17.789  0.00  0.00    +0.004 C 
ATOM     14  C   UNL     1      32.024 -24.617 -13.710  0.00  0.00    +0.017 C 
ATOM     15  C   UNL     1      32.672 -22.303 -18.169  0.00  0.00    +0.030 C 
ATOM     16  C   UNL     1      30.766 -23.421 -15.985  0.00  0.00    +0.250 C 
ATOM     17  C   UNL     1      34.935 -21.922 -18.942  0.00  0.00    +0.030 C 
ATOM     18  C   UNL     1      30.697 -24.547 -13.820  0.00  0.00    +0.064 C 
ATOM     19  C   UNL     1      33.566 -21.811 -19.132  0.00  0.00    +0.140 C 
ATOM     20  H   UNL     1      37.151 -23.632 -15.697  0.00  0.00    +0.148 HD
ATOM     21  H   UNL     1      34.691 -25.113 -12.807  0.00  0.00    +0.148 HD
ATOM     22  H   UNL     1      29.108 -23.959 -14.921  0.00  0.00    +0.155 HD
ENDROOT
BRANCH   6  23
ATOM     23  C   UNL     1      37.465 -24.894 -13.275  0.00  0.00    +0.034 C 
ATOM     24  C   UNL     1      38.723 -24.999 -14.208  0.00  0.00    +0.003 C 
ATOM     25  C   UNL     1      37.308 -26.288 -12.567  0.00  0.00    +0.003 C 
ATOM     26  C   UNL     1      37.913 -23.918 -12.122  0.00  0.00    +0.003 C 
ENDBRANCH   6  23
TORSDOF 1
ENDMDL
MODEL 2
REMARK VINA RESULT:     -10.8      2.326      5.457
REMARK  Name = 5494425
REMARK  1 active torsions:
REMARK  status: ('A' for Active; 'I' for Inactive)
REMARK    1  A    between atoms: C_6  and  C_23
REMARK                            x       y       z     vdW  Elec       q    Type
REMARK                         _______ _______ _______ _____ _____    ______ ____
ROOT
ATOM      1  F   UNL     1      36.761 -21.058 -20.252  0.00  0.00    -0.204 F 
ATOM      2  O   UNL     1      37.752 -22.900 -15.984  0.00  0.00    -0.270 OA
ATOM      3  N   UNL     1      31.368 -22.926 -17.079  0.00  0.00    -0.318 N 
ATOM      4  N   UNL     1      31.760 -23.794 -15.079  0.00  0.00    -0.318 N 
ATOM      5  N   UNL     1      36.797 -23.810 -14.132  0.00  0.00    -0.279 N 
ATOM      6  C   UNL     1      30.833 -23.477 -15.951  0.00  0.00    +0.143 C 
ATOM      7  C   UNL     1      32.735 -22.883 -16.928  0.00  0.00    +0.059 A 
ATOM      8  C   UNL     1      32.953 -23.431 -15.670  0.00  0.00    +0.059 A 
ATOM      9  C   UNL     1      33.779 -22.424 -17.759  0.00  0.00    +0.015 A 
ATOM     10  C   UNL     1      34.273 -23.537 -15.196  0.00  0.00    +0.020 A 
ATOM     11  C   UNL     1      35.121 -22.524 -17.295  0.00  0.00    +0.008 A 
ATOM     12  C   UNL     1      35.353 -23.088 -15.997  0.00  0.00    +0.055 A 
ATOM     13  C   UNL     1      33.456 -21.882 -19.022  0.00  0.00    +0.004 C 
ATOM     14  C   UNL     1      34.472 -24.116 -13.873  0.00  0.00    +0.017 C 
ATOM     15  C   UNL     1      36.107 -22.037 -18.194  0.00  0.00    +0.030 C 
ATOM     16  C   UNL     1      36.731 -23.245 -15.400  0.00  0.00    +0.250 C 
ATOM     17  C   UNL     1      34.462 -21.422 -19.861  0.00  0.00    +0.030 C 
ATOM     18  C   UNL     1      35.717 -24.225 -13.406  0.00  0.00    +0.064 C 
ATOM     19  C   UNL     1      35.784 -21.499 -19.448  0.00  0.00    +0.140 C 
ATOM     20  H   UNL     1      30.863 -22.614 -17.864  0.00  0.00    +0.148 HD
ATOM     21  H   UNL     1      31.632 -24.204 -14.192  0.00  0.00    +0.148 HD
ATOM     22  H   UNL     1      37.688 -23.920 -13.726  0.00  0.00    +0.155 HD
ENDROOT
BRANCH   6  23
ATOM     23  C   UNL     1      29.378 -23.664 -15.802  0.00  0.00    +0.034 C 
ATOM     24  C   UNL     1      28.676 -22.411 -15.168  0.00  0.00    +0.003 C 
ATOM     25  C   UNL     1      29.025 -24.892 -14.887  0.00  0.00    +0.003 C 
ATOM     26  C   UNL     1      28.582 -23.928 -17.135  0.00  0.00    +0.003 C 
ENDBRANCH   6  23
TORSDOF 1
ENDMDL
MODEL 3
REMARK VINA RESULT:     -10.5      2.014      4.066
REMARK  Name = 5494425
REMARK  1 active torsions:
REMARK  status: ('A' for Active; 'I' for Inactive)
REMARK    1  A    between atoms: C_6  and  C_23
REMARK                            x       y       z     vdW  Elec       q    Type
REMARK                         _______ _______ _______ _____ _____    ______ ____
ROOT
ATOM      1  F   UNL     1      28.974 -23.583 -16.607  0.00  0.00    -0.204 F 
ATOM      2  O   UNL     1      32.689 -22.165 -19.211  0.00  0.00    -0.270 OA
ATOM      3  N   UNL     1      34.571 -23.885 -13.257  0.00  0.00    -0.318 N 
ATOM      4  N   UNL     1      36.345 -23.236 -14.415  0.00  0.00    -0.318 N 
ATOM      5  N   UNL     1      34.941 -21.855 -19.147  0.00  0.00    -0.279 N 
ATOM      6  C   UNL     1      35.921 -23.686 -13.258  0.00  0.00    +0.143 C 
ATOM      7  C   UNL     1      34.087 -23.539 -14.498  0.00  0.00    +0.059 A 
ATOM      8  C   UNL     1      35.216 -23.138 -15.202  0.00  0.00    +0.059 A 
ATOM      9  C   UNL     1      32.792 -23.542 -15.058  0.00  0.00    +0.015 A 
ATOM     10  C   UNL     1      35.068 -22.713 -16.534  0.00  0.00    +0.020 A 
ATOM     11  C   UNL     1      32.625 -23.115 -16.405  0.00  0.00    +0.008 A 
ATOM     12  C   UNL     1      33.785 -22.698 -17.136  0.00  0.00    +0.055 A 
ATOM     13  C   UNL     1      31.706 -23.969 -14.262  0.00  0.00    +0.004 C 
ATOM     14  C   UNL     1      36.270 -22.296 -17.248  0.00  0.00    +0.017 C 
ATOM     15  C   UNL     1      31.289 -23.149 -16.886  0.00  0.00    +0.030 C 
ATOM     16  C   UNL     1      33.732 -22.225 -18.570  0.00  0.00    +0.250 C 
ATOM     17  C   UNL     1      30.420 -23.982 -14.786  0.00  0.00    +0.030 C 
ATOM     18  C   UNL     1      36.150 -21.890 -18.512  0.00  0.00    +0.064 C 
ATOM     19  C   UNL     1      30.212 -23.573 -16.094  0.00  0.00    +0.140 C 
ATOM     20  H   UNL     1      34.037 -24.217 -12.500  0.00  0.00    +0.148 HD
ATOM     21  H   UNL     1      37.271 -23.014 -14.668  0.00  0.00    +0.148 HD
ATOM     22  H   UNL     1      34.925 -21.543 -20.081  0.00  0.00    +0.155 HD
ENDROOT
BRANCH   6  23
ATOM     23  C   UNL     1      36.741 -23.967 -12.065  0.00  0.00    +0.034 C 
ATOM     24  C   UNL     1      35.867 -24.303 -10.805  0.00  0.00    +0.003 C 
ATOM     25  C   UNL     1      37.657 -22.753 -11.671  0.00  0.00    +0.003 C 
ATOM     26  C   UNL     1      37.735 -25.183 -12.188  0.00  0.00    +0.003 C 
ENDBRANCH   6  23
TORSDOF 1
ENDMDL
MODEL 4
REMARK VINA RESULT:     -10.2      2.950      6.392
REMARK  Name = 5494425
REMARK  1 active torsions:
REMARK  status: ('A' for Active; 'I' for Inactive)
REMARK    1  A    between atoms: C_6  and  C_23
REMARK                            x       y       z     vdW  Elec       q    Type
REMARK                         _______ _______ _______ _____ _____    ______ ____
ROOT
ATOM      1  F   UNL     1      37.988 -24.111 -14.023  0.00  0.00    -0.204 F 
ATOM      2  O   UNL     1      37.071 -21.968 -18.165  0.00  0.00    -0.270 OA
ATOM      3  N   UNL     1      31.585 -23.836 -15.273  0.00  0.00    -0.318 N 
ATOM      4  N   UNL     1      31.088 -22.848 -17.193  0.00  0.00    -0.318 N 
ATOM      5  N   UNL     1      35.381 -21.337 -19.550  0.00  0.00    -0.279 N 
ATOM      6  C   UNL     1      30.599 -23.442 -16.130  0.00  0.00    +0.143 C 
ATOM      7  C   UNL     1      32.796 -23.474 -15.817  0.00  0.00    +0.059 A 
ATOM      8  C   UNL     1      32.456 -22.858 -17.017  0.00  0.00    +0.059 A 
ATOM      9  C   UNL     1      34.129 -23.625 -15.380  0.00  0.00    +0.015 A 
ATOM     10  C   UNL     1      33.484 -22.361 -17.837  0.00  0.00    +0.020 A 
ATOM     11  C   UNL     1      35.181 -23.127 -16.199  0.00  0.00    +0.008 A 
ATOM     12  C   UNL     1      34.838 -22.491 -17.437  0.00  0.00    +0.055 A 
ATOM     13  C   UNL     1      34.372 -24.265 -14.145  0.00  0.00    +0.004 C 
ATOM     14  C   UNL     1      33.099 -21.720 -19.089  0.00  0.00    +0.017 C 
ATOM     15  C   UNL     1      36.490 -23.322 -15.682  0.00  0.00    +0.030 C 
ATOM     16  C   UNL     1      35.867 -21.925 -18.387  0.00  0.00    +0.250 C 
ATOM     17  C   UNL     1      35.674 -24.428 -13.689  0.00  0.00    +0.030 C 
ATOM     18  C   UNL     1      34.060 -21.242 -19.881  0.00  0.00    +0.064 C 
ATOM     19  C   UNL     1      36.729 -23.958 -14.456  0.00  0.00    +0.140 C 
ATOM     20  H   UNL     1      31.452 -24.300 -14.415  0.00  0.00    +0.148 HD
ATOM     21  H   UNL     1      30.586 -22.475 -17.954  0.00  0.00    +0.148 HD
ATOM     22  H   UNL     1      36.038 -20.963 -20.181  0.00  0.00    +0.155 HD
ENDROOT
BRANCH   6  23
ATOM     23  C   UNL     1      29.176 -23.686 -15.830  0.00  0.00    +0.034 C 
ATOM     24  C   UNL     1      28.463 -22.416 -15.242  0.00  0.00    +0.003 C 
ATOM     25  C   UNL     1      28.976 -24.842 -14.786  0.00  0.00    +0.003 C 
ATOM     26  C   UNL     1      28.280 -24.105 -17.056  0.00  0.00    +0.003 C 
ENDBRANCH   6  23
TORSDOF 1
ENDMDL
MODEL 5
REMARK VINA RESULT:      -9.4      2.834      5.795
REMARK  Name = 5494425
REMARK  1 active torsions:
REMARK  status: ('A' for Active; 'I' for Inactive)
REMARK    1  A    between atoms: C_6  and  C_23
REMARK                            x       y       z     vdW  Elec       q    Type
REMARK                         _______ _______ _______ _____ _____    ______ ____
ROOT
ATOM      1  F   UNL     1      30.002 -25.044 -13.464  0.00  0.00    -0.204 F 
ATOM      2  O   UNL     1      34.523 -24.801 -12.018  0.00  0.00    -0.270 OA
ATOM      3  N   UNL     1      33.889 -22.421 -18.009  0.00  0.00    -0.318 N 
ATOM      4  N   UNL     1      36.014 -22.279 -17.397  0.00  0.00    -0.318 N 
ATOM      5  N   UNL     1      36.604 -24.145 -12.660  0.00  0.00    -0.279 N 
ATOM      6  C   UNL     1      35.152 -22.040 -18.357  0.00  0.00    +0.143 C 
ATOM      7  C   UNL     1      33.935 -22.944 -16.736  0.00  0.00    +0.059 A 
ATOM      8  C   UNL     1      35.274 -22.843 -16.378  0.00  0.00    +0.059 A 
ATOM      9  C   UNL     1      32.949 -23.484 -15.883  0.00  0.00    +0.015 A 
ATOM     10  C   UNL     1      35.672 -23.297 -15.108  0.00  0.00    +0.020 A 
ATOM     11  C   UNL     1      33.334 -23.949 -14.595  0.00  0.00    +0.008 A 
ATOM     12  C   UNL     1      34.714 -23.848 -14.219  0.00  0.00    +0.055 A 
ATOM     13  C   UNL     1      31.613 -23.543 -16.338  0.00  0.00    +0.004 C 
ATOM     14  C   UNL     1      37.083 -23.180 -14.759  0.00  0.00    +0.017 C 
ATOM     15  C   UNL     1      32.279 -24.476 -13.805  0.00  0.00    +0.030 C 
ATOM     16  C   UNL     1      35.241 -24.308 -12.880  0.00  0.00    +0.250 C 
ATOM     17  C   UNL     1      30.621 -24.070 -15.522  0.00  0.00    +0.030 C 
ATOM     18  C   UNL     1      37.479 -23.606 -13.560  0.00  0.00    +0.064 C 
ATOM     19  C   UNL     1      30.954 -24.535 -14.258  0.00  0.00    +0.140 C 
ATOM     20  H   UNL     1      33.085 -22.338 -18.570  0.00  0.00    +0.148 HD
ATOM     21  H   UNL     1      36.981 -22.096 -17.403  0.00  0.00    +0.148 HD
ATOM     22  H   UNL     1      36.965 -24.440 -11.792  0.00  0.00    +0.155 HD
ENDROOT
BRANCH   6  23
ATOM     23  C   UNL     1      35.438 -21.437 -19.672  0.00  0.00    +0.034 C 
ATOM     24  C   UNL     1      34.246 -20.562 -20.200  0.00  0.00    +0.003 C 
ATOM     25  C   UNL     1      35.729 -22.518 -20.774  0.00  0.00    +0.003 C 
ATOM     26  C   UNL     1      36.685 -20.476 -19.727  0.00  0.00    +0.003 C 
ENDBRANCH   6  23
TORSDOF 1
ENDMDL
MODEL 6
REMARK VINA RESULT:      -9.3      9.754     13.033
REMARK  Name = 5494425
REMARK  1 active torsions:
REMARK  status: ('A' for Active; 'I' for Inactive)
REMARK    1  A    between atoms: C_6  and  C_23
REMARK                            x       y       z     vdW  Elec       q    Type
REMARK                         _______ _______ _______ _____ _____    ______ ____
ROOT
ATOM      1  F   UNL     1      36.043 -18.842 -21.760  0.00  0.00    -0.204 F 
ATOM      2  O   UNL     1      34.610 -16.945 -25.875  0.00  0.00    -0.270 OA
ATOM      3  N   UNL     1      32.744 -13.277 -20.874  0.00  0.00    -0.318 N 
ATOM      4  N   UNL     1      32.045 -12.340 -22.756  0.00  0.00    -0.318 N 
ATOM      5  N   UNL     1      33.483 -15.184 -26.770  0.00  0.00    -0.279 N 
ATOM      6  C   UNL     1      32.074 -12.236 -21.449  0.00  0.00    +0.143 C 
ATOM      7  C   UNL     1      33.178 -14.113 -21.877  0.00  0.00    +0.059 A 
ATOM      8  C   UNL     1      32.728 -13.504 -23.043  0.00  0.00    +0.059 A 
ATOM      9  C   UNL     1      33.908 -15.321 -21.872  0.00  0.00    +0.015 A 
ATOM     10  C   UNL     1      33.011 -14.113 -24.278  0.00  0.00    +0.020 A 
ATOM     11  C   UNL     1      34.202 -15.951 -23.114  0.00  0.00    +0.008 A 
ATOM     12  C   UNL     1      33.741 -15.328 -24.320  0.00  0.00    +0.055 A 
ATOM     13  C   UNL     1      34.323 -15.861 -20.635  0.00  0.00    +0.004 C 
ATOM     14  C   UNL     1      32.526 -13.453 -25.484  0.00  0.00    +0.017 C 
ATOM     15  C   UNL     1      34.940 -17.161 -23.015  0.00  0.00    +0.030 C 
ATOM     16  C   UNL     1      33.992 -15.903 -25.694  0.00  0.00    +0.250 C 
ATOM     17  C   UNL     1      35.042 -17.049 -20.599  0.00  0.00    +0.030 C 
ATOM     18  C   UNL     1      32.784 -14.016 -26.666  0.00  0.00    +0.064 C 
ATOM     19  C   UNL     1      35.349 -17.696 -21.786  0.00  0.00    +0.140 C 
ATOM     20  H   UNL     1      32.890 -13.407 -19.909  0.00  0.00    +0.148 HD
ATOM     21  H   UNL     1      31.626 -11.720 -23.396  0.00  0.00    +0.148 HD
ATOM     22  H   UNL     1      33.637 -15.545 -27.674  0.00  0.00    +0.155 HD
ENDROOT
BRANCH   6  23
ATOM     23  C   UNL     1      31.482 -11.159 -20.634  0.00  0.00    +0.034 C 
ATOM     24  C   UNL     1      29.913 -11.195 -20.646  0.00  0.00    +0.003 C 
ATOM     25  C   UNL     1      31.906  -9.731 -21.134  0.00  0.00    +0.003 C 
ATOM     26  C   UNL     1      31.863 -11.168 -19.106  0.00  0.00    +0.003 C 
ENDBRANCH   6  23
TORSDOF 1
ENDMDL
MODEL 7
REMARK VINA RESULT:      -9.1      2.778      5.330
REMARK  Name = 5494425
REMARK  1 active torsions:
REMARK  status: ('A' for Active; 'I' for Inactive)
REMARK    1  A    between atoms: C_6  and  C_23
REMARK                            x       y       z     vdW  Elec       q    Type
REMARK                         _______ _______ _______ _____ _____    ______ ____
ROOT
ATOM      1  F   UNL     1      35.689 -25.009 -11.218  0.00  0.00    -0.204 F 
ATOM      2  O   UNL     1      31.210 -24.862 -12.801  0.00  0.00    -0.270 OA
ATOM      3  N   UNL     1      35.306 -22.569 -17.263  0.00  0.00    -0.318 N 
ATOM      4  N   UNL     1      33.242 -22.472 -18.061  0.00  0.00    -0.318 N 
ATOM      5  N   UNL     1      29.931 -24.271 -14.586  0.00  0.00    -0.279 N 
ATOM      6  C   UNL     1      34.505 -22.227 -18.313  0.00  0.00    +0.143 C 
ATOM      7  C   UNL     1      34.507 -23.070 -16.261  0.00  0.00    +0.059 A 
ATOM      8  C   UNL     1      33.222 -22.998 -16.786  0.00  0.00    +0.059 A 
ATOM      9  C   UNL     1      34.784 -23.569 -14.971  0.00  0.00    +0.015 A 
ATOM     10  C   UNL     1      32.143 -23.442 -16.001  0.00  0.00    +0.020 A 
ATOM     11  C   UNL     1      33.704 -24.023 -14.162  0.00  0.00    +0.008 A 
ATOM     12  C   UNL     1      32.376 -23.951 -14.698  0.00  0.00    +0.055 A 
ATOM     13  C   UNL     1      36.124 -23.602 -14.526  0.00  0.00    +0.004 C 
ATOM     14  C   UNL     1      30.806 -23.355 -16.576  0.00  0.00    +0.017 C 
ATOM     15  C   UNL     1      34.074 -24.507 -12.880  0.00  0.00    +0.030 C 
ATOM     16  C   UNL     1      31.152 -24.401 -13.935  0.00  0.00    +0.250 C 
ATOM     17  C   UNL     1      36.427 -24.087 -13.261  0.00  0.00    +0.030 C 
ATOM     18  C   UNL     1      29.771 -23.771 -15.847  0.00  0.00    +0.064 C 
ATOM     19  C   UNL     1      35.405 -24.539 -12.440  0.00  0.00    +0.140 C 
ATOM     20  H   UNL     1      36.285 -22.473 -17.228  0.00  0.00    +0.148 HD
ATOM     21  H   UNL     1      32.471 -22.314 -18.655  0.00  0.00    +0.148 HD
ATOM     22  H   UNL     1      29.123 -24.560 -14.103  0.00  0.00    +0.155 HD
ENDROOT
BRANCH   6  23
ATOM     23  C   UNL     1      35.064 -21.656 -19.553  0.00  0.00    +0.034 C 
ATOM     24  C   UNL     1      34.118 -20.581 -20.196  0.00  0.00    +0.003 C 
ATOM     25  C   UNL     1      35.319 -22.750 -20.651  0.00  0.00    +0.003 C 
ATOM     26  C   UNL     1      36.449 -20.921 -19.404  0.00  0.00    +0.003 C 
ENDBRANCH   6  23
TORSDOF 1
ENDMDL
MODEL 8
REMARK VINA RESULT:      -9.1     11.597     14.877
REMARK  Name = 5494425
REMARK  1 active torsions:
REMARK  status: ('A' for Active; 'I' for Inactive)
REMARK    1  A    between atoms: C_6  and  C_23
REMARK                            x       y       z     vdW  Elec       q    Type
REMARK                         _______ _______ _______ _____ _____    ______ ____
ROOT
ATOM      1  F   UNL     1      32.855 -17.022 -20.663  0.00  0.00    -0.204 F 
ATOM      2  O   UNL     1      33.555 -16.181 -25.289  0.00  0.00    -0.270 OA
ATOM      3  N   UNL     1      32.627 -10.646 -22.055  0.00  0.00    -0.318 N 
ATOM      4  N   UNL     1      32.945 -10.184 -24.198  0.00  0.00    -0.318 N 
ATOM      5  N   UNL     1      33.688 -14.517 -26.834  0.00  0.00    -0.279 N 
ATOM      6  C   UNL     1      32.713  -9.677 -23.011  0.00  0.00    +0.143 C 
ATOM      7  C   UNL     1      32.814 -11.866 -22.664  0.00  0.00    +0.059 A 
ATOM      8  C   UNL     1      33.011 -11.548 -24.003  0.00  0.00    +0.059 A 
ATOM      9  C   UNL     1      32.829 -13.190 -22.177  0.00  0.00    +0.015 A 
ATOM     10  C   UNL     1      33.236 -12.590 -24.919  0.00  0.00    +0.020 A 
ATOM     11  C   UNL     1      33.056 -14.256 -23.091  0.00  0.00    +0.008 A 
ATOM     12  C   UNL     1      33.259 -13.936 -24.474  0.00  0.00    +0.055 A 
ATOM     13  C   UNL     1      32.619 -13.411 -20.797  0.00  0.00    +0.004 C 
ATOM     14  C   UNL     1      33.439 -12.229 -26.318  0.00  0.00    +0.017 C 
ATOM     15  C   UNL     1      33.054 -15.555 -22.515  0.00  0.00    +0.030 C 
ATOM     16  C   UNL     1      33.508 -14.981 -25.536  0.00  0.00    +0.250 C 
ATOM     17  C   UNL     1      32.628 -14.703 -20.289  0.00  0.00    +0.030 C 
ATOM     18  C   UNL     1      33.654 -13.203 -27.202  0.00  0.00    +0.064 C 
ATOM     19  C   UNL     1      32.844 -15.772 -21.146  0.00  0.00    +0.140 C 
ATOM     20  H   UNL     1      32.458 -10.498 -21.097  0.00  0.00    +0.148 HD
ATOM     21  H   UNL     1      33.049  -9.697 -25.048  0.00  0.00    +0.148 HD
ATOM     22  H   UNL     1      33.851 -15.185 -27.539  0.00  0.00    +0.155 HD
ENDROOT
BRANCH   6  23
ATOM     23  C   UNL     1      32.557  -8.249 -22.676  0.00  0.00    +0.034 C 
ATOM     24  C   UNL     1      31.267  -7.623 -23.314  0.00  0.00    +0.003 C 
ATOM     25  C   UNL     1      33.772  -7.384 -23.169  0.00  0.00    +0.003 C 
ATOM     26  C   UNL     1      32.437  -7.916 -21.141  0.00  0.00    +0.003 C 
ENDBRANCH   6  23
TORSDOF 1
ENDMDL
MODEL 9
REMARK VINA RESULT:      -8.9      9.035     11.582
REMARK  Name = 5494425
REMARK  1 active torsions:
REMARK  status: ('A' for Active; 'I' for Inactive)
REMARK    1  A    between atoms: C_6  and  C_23
REMARK                            x       y       z     vdW  Elec       q    Type
REMARK                         _______ _______ _______ _____ _____    ______ ____
ROOT
ATOM      1  F   UNL     1      32.735 -12.504 -27.585  0.00  0.00    -0.204 F 
ATOM      2  O   UNL     1      31.778 -11.289 -23.091  0.00  0.00    -0.270 OA
ATOM      3  N   UNL     1      34.379 -17.214 -23.372  0.00  0.00    -0.318 N 
ATOM      4  N   UNL     1      33.957 -16.711 -21.256  0.00  0.00    -0.318 N 
ATOM      5  N   UNL     1      31.893 -12.029 -20.944  0.00  0.00    -0.279 N 
ATOM      6  C   UNL     1      34.431 -17.622 -22.071  0.00  0.00    +0.143 C 
ATOM      7  C   UNL     1      33.832 -15.951 -23.402  0.00  0.00    +0.059 A 
ATOM      8  C   UNL     1      33.578 -15.661 -22.067  0.00  0.00    +0.059 A 
ATOM      9  C   UNL     1      33.544 -15.054 -24.453  0.00  0.00    +0.015 A 
ATOM     10  C   UNL     1      33.007 -14.418 -21.741  0.00  0.00    +0.020 A 
ATOM     11  C   UNL     1      32.966 -13.792 -24.140  0.00  0.00    +0.008 A 
ATOM     12  C   UNL     1      32.700 -13.487 -22.765  0.00  0.00    +0.055 A 
ATOM     13  C   UNL     1      33.840 -15.441 -25.779  0.00  0.00    +0.004 C 
ATOM     14  C   UNL     1      32.751 -14.140 -20.332  0.00  0.00    +0.017 C 
ATOM     15  C   UNL     1      32.708 -12.954 -25.258  0.00  0.00    +0.030 C 
ATOM     16  C   UNL     1      32.090 -12.182 -22.312  0.00  0.00    +0.250 C 
ATOM     17  C   UNL     1      33.566 -14.580 -26.833  0.00  0.00    +0.030 C 
ATOM     18  C   UNL     1      32.210 -12.967 -20.003  0.00  0.00    +0.064 C 
ATOM     19  C   UNL     1      33.001 -13.340 -26.573  0.00  0.00    +0.140 C 
ATOM     20  H   UNL     1      34.679 -17.733 -24.152  0.00  0.00    +0.148 HD
ATOM     21  H   UNL     1      33.886 -16.764 -20.275  0.00  0.00    +0.148 HD
ATOM     22  H   UNL     1      31.495 -11.185 -20.631  0.00  0.00    +0.155 HD
ENDROOT
BRANCH   6  23
ATOM     23  C   UNL     1      34.971 -18.944 -21.701  0.00  0.00    +0.034 C 
ATOM     24  C   UNL     1      35.211 -19.863 -22.951  0.00  0.00    +0.003 C 
ATOM     25  C   UNL     1      34.013 -19.731 -20.737  0.00  0.00    +0.003 C 
ATOM     26  C   UNL     1      36.357 -18.931 -20.952  0.00  0.00    +0.003 C 
ENDBRANCH   6  23
TORSDOF 1
ENDMDL
