MODEL 1
REMARK VINA RESULT:      -8.0      0.000      0.000
REMARK  Name = 446981
REMARK  9 active torsions:
REMARK  status: ('A' for Active; 'I' for Inactive)
REMARK    1  A    between atoms: O_1  and  C_3
REMARK    2  A    between atoms: O_1  and  P_12
REMARK    3  A    between atoms: C_2  and  C_9
REMARK    4  A    between atoms: P_12  and  O_14
REMARK    5  A    between atoms: P_12  and  C_16
REMARK    6  A    between atoms: C_16  and  C_17
REMARK    7  A    between atoms: C_17  and  C_18
REMARK    8  A    between atoms: C_18  and  C_19
REMARK    9  A    between atoms: C_19  and  C_20
REMARK                            x       y       z     vdW  Elec       q    Type
REMARK                         _______ _______ _______ _____ _____    ______ ____
ROOT
ATOM      1  O   UNL     1      33.984 -23.745 -17.363  0.00  0.00    -0.297 OA
ENDROOT
BRANCH   1   3
ATOM      2  C   UNL     1      33.982 -24.156 -14.979  0.00  0.00    +0.028 C 
ATOM      3  C   UNL     1      33.471 -23.264 -16.123  0.00  0.00    +0.124 C 
ATOM      4  C   UNL     1      33.344 -23.751 -13.644  0.00  0.00    +0.002 C 
ATOM      5  C   UNL     1      31.312 -22.849 -14.855  0.00  0.00    +0.002 C 
ATOM      6  C   UNL     1      31.942 -23.257 -16.190  0.00  0.00    +0.030 C 
ATOM      7  C   UNL     1      31.818 -23.748 -13.722  0.00  0.00    +0.000 C 
ATOM      8  C   UNL     1      29.787 -22.895 -14.940  0.00  0.00    +0.000 C 
BRANCH   2   9
ATOM      9  C   UNL     1      35.509 -24.108 -14.875  0.00  0.00    +0.002 C 
ATOM     10  C   UNL     1      35.933 -23.475 -13.552  0.00  0.00    +0.000 C 
ATOM     11  C   UNL     1      36.096 -25.509 -15.017  0.00  0.00    +0.000 C 
ENDBRANCH   2   9
ENDBRANCH   1   3
BRANCH   1  12
ATOM     12  P   UNL     1      33.951 -22.820 -18.683  0.00  0.00    +0.340 P 
ATOM     13  O   UNL     1      32.710 -21.987 -18.815  0.00  0.00    -0.258 OA
BRANCH  12  14
ATOM     14  O   UNL     1      34.188 -23.851 -19.906  0.00  0.00    -0.323 OA
ATOM     15  H   UNL     1      34.569 -24.675 -19.565  0.00  0.00    +0.220 HD
ENDBRANCH  12  14
BRANCH  12  16
ATOM     16  C   UNL     1      35.454 -21.863 -18.640  0.00  0.00    +0.116 C 
BRANCH  16  17
ATOM     17  C   UNL     1      35.944 -21.434 -20.017  0.00  0.00    +0.013 C 
BRANCH  17  18
ATOM     18  C   UNL     1      35.205 -20.198 -20.534  0.00  0.00    +0.001 C 
BRANCH  18  19
ATOM     19  C   UNL     1      36.187 -19.125 -21.011  0.00  0.00    +0.000 C 
BRANCH  19  20
ATOM     20  C   UNL     1      35.621 -18.341 -22.195  0.00  0.00    +0.000 C 
ATOM     21  C   UNL     1      34.811 -19.236 -23.120  0.00  0.00    +0.000 C 
ENDBRANCH  19  20
ENDBRANCH  18  19
ENDBRANCH  17  18
ENDBRANCH  16  17
ENDBRANCH  12  16
ENDBRANCH   1  12
TORSDOF 9
ENDMDL
MODEL 2
REMARK VINA RESULT:      -7.8      5.636     10.156
REMARK  Name = 446981
REMARK  9 active torsions:
REMARK  status: ('A' for Active; 'I' for Inactive)
REMARK    1  A    between atoms: O_1  and  C_3
REMARK    2  A    between atoms: O_1  and  P_12
REMARK    3  A    between atoms: C_2  and  C_9
REMARK    4  A    between atoms: P_12  and  O_14
REMARK    5  A    between atoms: P_12  and  C_16
REMARK    6  A    between atoms: C_16  and  C_17
REMARK    7  A    between atoms: C_17  and  C_18
REMARK    8  A    between atoms: C_18  and  C_19
REMARK    9  A    between atoms: C_19  and  C_20
REMARK                            x       y       z     vdW  Elec       q    Type
REMARK                         _______ _______ _______ _____ _____    ______ ____
ROOT
ATOM      1  O   UNL     1      33.410 -16.298 -24.250  0.00  0.00    -0.297 OA
ENDROOT
BRANCH   1   3
ATOM      2  C   UNL     1      32.919 -14.735 -22.471  0.00  0.00    +0.028 C 
ATOM      3  C   UNL     1      33.768 -15.023 -23.720  0.00  0.00    +0.124 C 
ATOM      4  C   UNL     1      33.179 -13.315 -21.950  0.00  0.00    +0.002 C 
ATOM      5  C   UNL     1      33.822 -12.548 -24.277  0.00  0.00    +0.002 C 
ATOM      6  C   UNL     1      33.557 -13.963 -24.802  0.00  0.00    +0.030 C 
ATOM      7  C   UNL     1      32.966 -12.264 -23.038  0.00  0.00    +0.000 C 
ATOM      8  C   UNL     1      33.560 -11.509 -25.365  0.00  0.00    +0.000 C 
BRANCH   2   9
ATOM      9  C   UNL     1      33.183 -15.762 -21.367  0.00  0.00    +0.002 C 
ATOM     10  C   UNL     1      34.458 -15.411 -20.606  0.00  0.00    +0.000 C 
ATOM     11  C   UNL     1      31.991 -15.840 -20.418  0.00  0.00    +0.000 C 
ENDBRANCH   2   9
ENDBRANCH   1   3
BRANCH   1  12
ATOM     12  P   UNL     1      34.542 -17.319 -24.776  0.00  0.00    +0.340 P 
ATOM     13  O   UNL     1      35.365 -16.785 -25.912  0.00  0.00    -0.258 OA
BRANCH  12  14
ATOM     14  O   UNL     1      33.732 -18.674 -25.128  0.00  0.00    -0.323 OA
ATOM     15  H   UNL     1      34.015 -19.003 -25.995  0.00  0.00    +0.220 HD
ENDBRANCH  12  14
BRANCH  12  16
ATOM     16  C   UNL     1      35.501 -17.761 -23.342  0.00  0.00    +0.116 C 
BRANCH  16  17
ATOM     17  C   UNL     1      35.207 -19.160 -22.817  0.00  0.00    +0.013 C 
BRANCH  17  18
ATOM     18  C   UNL     1      34.902 -19.162 -21.318  0.00  0.00    +0.001 C 
BRANCH  18  19
ATOM     19  C   UNL     1      33.421 -19.441 -21.055  0.00  0.00    +0.000 C 
BRANCH  19  20
ATOM     20  C   UNL     1      33.236 -20.678 -20.175  0.00  0.00    +0.000 C 
ATOM     21  C   UNL     1      34.569 -21.208 -19.672  0.00  0.00    +0.000 C 
ENDBRANCH  19  20
ENDBRANCH  18  19
ENDBRANCH  17  18
ENDBRANCH  16  17
ENDBRANCH  12  16
ENDBRANCH   1  12
TORSDOF 9
ENDMDL
MODEL 3
REMARK VINA RESULT:      -7.8      9.542     14.335
REMARK  Name = 446981
REMARK  9 active torsions:
REMARK  status: ('A' for Active; 'I' for Inactive)
REMARK    1  A    between atoms: O_1  and  C_3
REMARK    2  A    between atoms: O_1  and  P_12
REMARK    3  A    between atoms: C_2  and  C_9
REMARK    4  A    between atoms: P_12  and  O_14
REMARK    5  A    between atoms: P_12  and  C_16
REMARK    6  A    between atoms: C_16  and  C_17
REMARK    7  A    between atoms: C_17  and  C_18
REMARK    8  A    between atoms: C_18  and  C_19
REMARK    9  A    between atoms: C_19  and  C_20
REMARK                            x       y       z     vdW  Elec       q    Type
REMARK                         _______ _______ _______ _____ _____    ______ ____
ROOT
ATOM      1  O   UNL     1      31.527 -10.156 -22.465  0.00  0.00    -0.297 OA
ENDROOT
BRANCH   1   3
ATOM      2  C   UNL     1      32.616  -8.026 -22.822  0.00  0.00    +0.028 C 
ATOM      3  C   UNL     1      32.802  -9.542 -22.646  0.00  0.00    +0.124 C 
ATOM      4  C   UNL     1      33.951  -7.347 -23.154  0.00  0.00    +0.002 C 
ATOM      5  C   UNL     1      34.818  -9.491 -24.187  0.00  0.00    +0.002 C 
ATOM      6  C   UNL     1      33.483 -10.171 -23.863  0.00  0.00    +0.030 C 
ATOM      7  C   UNL     1      34.624  -7.982 -24.370  0.00  0.00    +0.000 C 
ATOM      8  C   UNL     1      35.452 -10.109 -25.431  0.00  0.00    +0.000 C 
BRANCH   2   9
ATOM      9  C   UNL     1      31.993  -7.391 -21.576  0.00  0.00    +0.002 C 
ATOM     10  C   UNL     1      32.968  -7.449 -20.404  0.00  0.00    +0.000 C 
ATOM     11  C   UNL     1      31.577  -5.952 -21.863  0.00  0.00    +0.000 C 
ENDBRANCH   2   9
ENDBRANCH   1   3
BRANCH   1  12
ATOM     12  P   UNL     1      31.293 -11.238 -21.293  0.00  0.00    +0.340 P 
ATOM     13  O   UNL     1      29.855 -11.419 -20.907  0.00  0.00    -0.258 OA
BRANCH  12  14
ATOM     14  O   UNL     1      32.242 -10.735 -20.084  0.00  0.00    -0.323 OA
ATOM     15  H   UNL     1      32.772 -11.479 -19.758  0.00  0.00    +0.220 HD
ENDBRANCH  12  14
BRANCH  12  16
ATOM     16  C   UNL     1      32.079 -12.736 -21.852  0.00  0.00    +0.116 C 
BRANCH  16  17
ATOM     17  C   UNL     1      32.552 -13.637 -20.719  0.00  0.00    +0.013 C 
BRANCH  17  18
ATOM     18  C   UNL     1      32.770 -15.079 -21.181  0.00  0.00    +0.001 C 
BRANCH  18  19
ATOM     19  C   UNL     1      34.164 -15.579 -20.797  0.00  0.00    +0.000 C 
BRANCH  19  20
ATOM     20  C   UNL     1      34.823 -16.332 -21.953  0.00  0.00    +0.000 C 
ATOM     21  C   UNL     1      34.749 -15.538 -23.248  0.00  0.00    +0.000 C 
ENDBRANCH  19  20
ENDBRANCH  18  19
ENDBRANCH  17  18
ENDBRANCH  16  17
ENDBRANCH  12  16
ENDBRANCH   1  12
TORSDOF 9
ENDMDL
MODEL 4
REMARK VINA RESULT:      -7.7      1.205      3.303
REMARK  Name = 446981
REMARK  9 active torsions:
REMARK  status: ('A' for Active; 'I' for Inactive)
REMARK    1  A    between atoms: O_1  and  C_3
REMARK    2  A    between atoms: O_1  and  P_12
REMARK    3  A    between atoms: C_2  and  C_9
REMARK    4  A    between atoms: P_12  and  O_14
REMARK    5  A    between atoms: P_12  and  C_16
REMARK    6  A    between atoms: C_16  and  C_17
REMARK    7  A    between atoms: C_17  and  C_18
REMARK    8  A    between atoms: C_18  and  C_19
REMARK    9  A    between atoms: C_19  and  C_20
REMARK                            x       y       z     vdW  Elec       q    Type
REMARK                         _______ _______ _______ _____ _____    ______ ____
ROOT
ATOM      1  O   UNL     1      33.088 -22.574 -17.392  0.00  0.00    -0.297 OA
ENDROOT
BRANCH   1   3
ATOM      2  C   UNL     1      32.048 -23.339 -15.346  0.00  0.00    +0.028 C 
ATOM      3  C   UNL     1      33.154 -23.584 -16.386  0.00  0.00    +0.124 C 
ATOM      4  C   UNL     1      32.172 -24.325 -14.177  0.00  0.00    +0.002 C 
ATOM      5  C   UNL     1      34.662 -24.542 -14.584  0.00  0.00    +0.002 C 
ATOM      6  C   UNL     1      34.545 -23.553 -15.747  0.00  0.00    +0.030 C 
ATOM      7  C   UNL     1      33.563 -24.287 -13.546  0.00  0.00    +0.000 C 
ATOM      8  C   UNL     1      36.044 -24.457 -13.938  0.00  0.00    +0.000 C 
BRANCH   2   9
ATOM      9  C   UNL     1      30.657 -23.436 -15.977  0.00  0.00    +0.002 C 
ATOM     10  C   UNL     1      30.098 -24.847 -15.823  0.00  0.00    +0.000 C 
ATOM     11  C   UNL     1      29.717 -22.410 -15.352  0.00  0.00    +0.000 C 
ENDBRANCH   2   9
ENDBRANCH   1   3
BRANCH   1  12
ATOM     12  P   UNL     1      33.945 -22.708 -18.750  0.00  0.00    +0.340 P 
ATOM     13  O   UNL     1      33.821 -24.044 -19.422  0.00  0.00    -0.258 OA
BRANCH  12  14
ATOM     14  O   UNL     1      35.455 -22.327 -18.315  0.00  0.00    -0.323 OA
ATOM     15  H   UNL     1      36.039 -22.383 -19.088  0.00  0.00    +0.220 HD
ENDBRANCH  12  14
BRANCH  12  16
ATOM     16  C   UNL     1      33.443 -21.341 -19.776  0.00  0.00    +0.116 C 
BRANCH  16  17
ATOM     17  C   UNL     1      34.609 -20.524 -20.320  0.00  0.00    +0.013 C 
BRANCH  17  18
ATOM     18  C   UNL     1      34.140 -19.347 -21.177  0.00  0.00    +0.001 C 
BRANCH  18  19
ATOM     19  C   UNL     1      35.262 -18.325 -21.376  0.00  0.00    +0.000 C 
BRANCH  19  20
ATOM     20  C   UNL     1      35.697 -18.256 -22.840  0.00  0.00    +0.000 C 
ATOM     21  C   UNL     1      34.795 -19.097 -23.730  0.00  0.00    +0.000 C 
ENDBRANCH  19  20
ENDBRANCH  18  19
ENDBRANCH  17  18
ENDBRANCH  16  17
ENDBRANCH  12  16
ENDBRANCH   1  12
TORSDOF 9
ENDMDL
MODEL 5
REMARK VINA RESULT:      -7.7      7.923     10.457
REMARK  Name = 446981
REMARK  9 active torsions:
REMARK  status: ('A' for Active; 'I' for Inactive)
REMARK    1  A    between atoms: O_1  and  C_3
REMARK    2  A    between atoms: O_1  and  P_12
REMARK    3  A    between atoms: C_2  and  C_9
REMARK    4  A    between atoms: P_12  and  O_14
REMARK    5  A    between atoms: P_12  and  C_16
REMARK    6  A    between atoms: C_16  and  C_17
REMARK    7  A    between atoms: C_17  and  C_18
REMARK    8  A    between atoms: C_18  and  C_19
REMARK    9  A    between atoms: C_19  and  C_20
REMARK                            x       y       z     vdW  Elec       q    Type
REMARK                         _______ _______ _______ _____ _____    ______ ____
ROOT
ATOM      1  O   UNL     1      34.488 -14.816 -23.309  0.00  0.00    -0.297 OA
ENDROOT
BRANCH   1   3
ATOM      2  C   UNL     1      34.718 -16.544 -21.632  0.00  0.00    +0.028 C 
ATOM      3  C   UNL     1      34.127 -16.161 -22.999  0.00  0.00    +0.124 C 
ATOM      4  C   UNL     1      34.465 -18.026 -21.324  0.00  0.00    +0.002 C 
ATOM      5  C   UNL     1      34.380 -18.555 -23.799  0.00  0.00    +0.002 C 
ATOM      6  C   UNL     1      34.639 -17.078 -24.111  0.00  0.00    +0.030 C 
ATOM      7  C   UNL     1      34.980 -18.933 -22.440  0.00  0.00    +0.000 C 
ATOM      8  C   UNL     1      34.942 -19.448 -24.904  0.00  0.00    +0.000 C 
BRANCH   2   9
ATOM      9  C   UNL     1      34.153 -15.666 -20.513  0.00  0.00    +0.002 C 
ATOM     10  C   UNL     1      34.773 -14.272 -20.565  0.00  0.00    +0.000 C 
ATOM     11  C   UNL     1      32.634 -15.586 -20.614  0.00  0.00    +0.000 C 
ENDBRANCH   2   9
ENDBRANCH   1   3
BRANCH   1  12
ATOM     12  P   UNL     1      33.463 -13.847 -24.087  0.00  0.00    +0.340 P 
ATOM     13  O   UNL     1      32.912 -14.431 -25.355  0.00  0.00    -0.258 OA
BRANCH  12  14
ATOM     14  O   UNL     1      34.288 -12.472 -24.299  0.00  0.00    -0.323 OA
ATOM     15  H   UNL     1      33.774 -11.729 -23.946  0.00  0.00    +0.220 HD
ENDBRANCH  12  14
BRANCH  12  16
ATOM     16  C   UNL     1      32.211 -13.409 -22.897  0.00  0.00    +0.116 C 
BRANCH  16  17
ATOM     17  C   UNL     1      32.218 -11.934 -22.517  0.00  0.00    +0.013 C 
BRANCH  17  18
ATOM     18  C   UNL     1      31.181 -11.611 -21.439  0.00  0.00    +0.001 C 
BRANCH  18  19
ATOM     19  C   UNL     1      31.717 -11.933 -20.042  0.00  0.00    +0.000 C 
BRANCH  19  20
ATOM     20  C   UNL     1      31.481 -10.772 -19.076  0.00  0.00    +0.000 C 
ATOM     21  C   UNL     1      31.898  -9.444 -19.688  0.00  0.00    +0.000 C 
ENDBRANCH  19  20
ENDBRANCH  18  19
ENDBRANCH  17  18
ENDBRANCH  16  17
ENDBRANCH  12  16
ENDBRANCH   1  12
TORSDOF 9
ENDMDL
MODEL 6
REMARK VINA RESULT:      -7.6      7.516     12.753
REMARK  Name = 446981
REMARK  9 active torsions:
REMARK  status: ('A' for Active; 'I' for Inactive)
REMARK    1  A    between atoms: O_1  and  C_3
REMARK    2  A    between atoms: O_1  and  P_12
REMARK    3  A    between atoms: C_2  and  C_9
REMARK    4  A    between atoms: P_12  and  O_14
REMARK    5  A    between atoms: P_12  and  C_16
REMARK    6  A    between atoms: C_16  and  C_17
REMARK    7  A    between atoms: C_17  and  C_18
REMARK    8  A    between atoms: C_18  and  C_19
REMARK    9  A    between atoms: C_19  and  C_20
REMARK                            x       y       z     vdW  Elec       q    Type
REMARK                         _______ _______ _______ _____ _____    ______ ____
ROOT
ATOM      1  O   UNL     1      32.636 -12.899 -23.350  0.00  0.00    -0.297 OA
ENDROOT
BRANCH   1   3
ATOM      2  C   UNL     1      32.638 -10.500 -23.042  0.00  0.00    +0.028 C 
ATOM      3  C   UNL     1      33.478 -11.748 -23.361  0.00  0.00    +0.124 C 
ATOM      4  C   UNL     1      33.481  -9.225 -23.177  0.00  0.00    +0.002 C 
ATOM      5  C   UNL     1      34.991 -10.367 -24.860  0.00  0.00    +0.002 C 
ATOM      6  C   UNL     1      34.147 -11.640 -24.733  0.00  0.00    +0.030 C 
ATOM      7  C   UNL     1      34.145  -9.127 -24.550  0.00  0.00    +0.000 C 
ATOM      8  C   UNL     1      35.609 -10.265 -26.253  0.00  0.00    +0.000 C 
BRANCH   2   9
ATOM      9  C   UNL     1      32.023 -10.583 -21.642  0.00  0.00    +0.002 C 
ATOM     10  C   UNL     1      32.023  -9.210 -20.977  0.00  0.00    +0.000 C 
ATOM     11  C   UNL     1      30.608 -11.149 -21.716  0.00  0.00    +0.000 C 
ENDBRANCH   2   9
ENDBRANCH   1   3
BRANCH   1  12
ATOM     12  P   UNL     1      33.191 -14.320 -22.829  0.00  0.00    +0.340 P 
ATOM     13  O   UNL     1      32.275 -15.018 -21.867  0.00  0.00    -0.258 OA
BRANCH  12  14
ATOM     14  O   UNL     1      34.653 -13.985 -22.222  0.00  0.00    -0.323 OA
ATOM     15  H   UNL     1      34.796 -14.507 -21.418  0.00  0.00    +0.220 HD
ENDBRANCH  12  14
BRANCH  12  16
ATOM     16  C   UNL     1      33.549 -15.268 -24.294  0.00  0.00    +0.116 C 
BRANCH  16  17
ATOM     17  C   UNL     1      34.743 -16.201 -24.142  0.00  0.00    +0.013 C 
BRANCH  17  18
ATOM     18  C   UNL     1      34.681 -17.381 -25.114  0.00  0.00    +0.001 C 
BRANCH  18  19
ATOM     19  C   UNL     1      34.574 -18.711 -24.363  0.00  0.00    +0.000 C 
BRANCH  19  20
ATOM     20  C   UNL     1      35.232 -18.626 -22.986  0.00  0.00    +0.000 C 
ATOM     21  C   UNL     1      34.490 -19.469 -21.961  0.00  0.00    +0.000 C 
ENDBRANCH  19  20
ENDBRANCH  18  19
ENDBRANCH  17  18
ENDBRANCH  16  17
ENDBRANCH  12  16
ENDBRANCH   1  12
TORSDOF 9
ENDMDL
MODEL 7
REMARK VINA RESULT:      -7.5      6.860     11.904
REMARK  Name = 446981
REMARK  9 active torsions:
REMARK  status: ('A' for Active; 'I' for Inactive)
REMARK    1  A    between atoms: O_1  and  C_3
REMARK    2  A    between atoms: O_1  and  P_12
REMARK    3  A    between atoms: C_2  and  C_9
REMARK    4  A    between atoms: P_12  and  O_14
REMARK    5  A    between atoms: P_12  and  C_16
REMARK    6  A    between atoms: C_16  and  C_17
REMARK    7  A    between atoms: C_17  and  C_18
REMARK    8  A    between atoms: C_18  and  C_19
REMARK    9  A    between atoms: C_19  and  C_20
REMARK                            x       y       z     vdW  Elec       q    Type
REMARK                         _______ _______ _______ _____ _____    ______ ____
ROOT
ATOM      1  O   UNL     1      34.124 -13.624 -23.061  0.00  0.00    -0.297 OA
ENDROOT
BRANCH   1   3
ATOM      2  C   UNL     1      33.815 -11.317 -23.719  0.00  0.00    +0.028 C 
ATOM      3  C   UNL     1      33.134 -12.616 -23.257  0.00  0.00    +0.124 C 
ATOM      4  C   UNL     1      32.799 -10.171 -23.811  0.00  0.00    +0.002 C 
ATOM      5  C   UNL     1      31.353 -11.272 -22.047  0.00  0.00    +0.002 C 
ATOM      6  C   UNL     1      32.368 -12.415 -21.948  0.00  0.00    +0.030 C 
ATOM      7  C   UNL     1      32.040  -9.979 -22.499  0.00  0.00    +0.000 C 
ATOM      8  C   UNL     1      30.638 -11.067 -20.714  0.00  0.00    +0.000 C 
BRANCH   2   9
ATOM      9  C   UNL     1      34.525 -11.506 -25.062  0.00  0.00    +0.002 C 
ATOM     10  C   UNL     1      33.537 -11.974 -26.126  0.00  0.00    +0.000 C 
ATOM     11  C   UNL     1      35.207 -10.210 -25.490  0.00  0.00    +0.000 C 
ENDBRANCH   2   9
ENDBRANCH   1   3
BRANCH   1  12
ATOM     12  P   UNL     1      33.785 -14.958 -22.222  0.00  0.00    +0.340 P 
ATOM     13  O   UNL     1      32.320 -15.175 -21.985  0.00  0.00    -0.258 OA
BRANCH  12  14
ATOM     14  O   UNL     1      34.659 -14.816 -20.868  0.00  0.00    -0.323 OA
ATOM     15  H   UNL     1      35.593 -14.695 -21.097  0.00  0.00    +0.220 HD
ENDBRANCH  12  14
BRANCH  12  16
ATOM     16  C   UNL     1      34.575 -16.294 -23.096  0.00  0.00    +0.116 C 
BRANCH  16  17
ATOM     17  C   UNL     1      35.243 -17.313 -22.182  0.00  0.00    +0.013 C 
BRANCH  17  18
ATOM     18  C   UNL     1      34.632 -18.708 -22.327  0.00  0.00    +0.001 C 
BRANCH  18  19
ATOM     19  C   UNL     1      34.664 -19.467 -20.999  0.00  0.00    +0.000 C 
BRANCH  19  20
ATOM     20  C   UNL     1      33.273 -19.973 -20.615  0.00  0.00    +0.000 C 
ATOM     21  C   UNL     1      33.354 -21.199 -19.719  0.00  0.00    +0.000 C 
ENDBRANCH  19  20
ENDBRANCH  18  19
ENDBRANCH  17  18
ENDBRANCH  16  17
ENDBRANCH  12  16
ENDBRANCH   1  12
TORSDOF 9
ENDMDL
MODEL 8
REMARK VINA RESULT:      -7.5      2.308      3.050
REMARK  Name = 446981
REMARK  9 active torsions:
REMARK  status: ('A' for Active; 'I' for Inactive)
REMARK    1  A    between atoms: O_1  and  C_3
REMARK    2  A    between atoms: O_1  and  P_12
REMARK    3  A    between atoms: C_2  and  C_9
REMARK    4  A    between atoms: P_12  and  O_14
REMARK    5  A    between atoms: P_12  and  C_16
REMARK    6  A    between atoms: C_16  and  C_17
REMARK    7  A    between atoms: C_17  and  C_18
REMARK    8  A    between atoms: C_18  and  C_19
REMARK    9  A    between atoms: C_19  and  C_20
REMARK                            x       y       z     vdW  Elec       q    Type
REMARK                         _______ _______ _______ _____ _____    ______ ____
ROOT
ATOM      1  O   UNL     1      36.118 -23.670 -15.988  0.00  0.00    -0.297 OA
ENDROOT
BRANCH   1   3
ATOM      2  C   UNL     1      34.803 -24.573 -14.169  0.00  0.00    +0.028 C 
ATOM      3  C   UNL     1      34.957 -23.436 -15.194  0.00  0.00    +0.124 C 
ATOM      4  C   UNL     1      33.492 -24.428 -13.386  0.00  0.00    +0.002 C 
ATOM      5  C   UNL     1      32.435 -23.191 -15.327  0.00  0.00    +0.002 C 
ATOM      6  C   UNL     1      33.739 -23.340 -16.115  0.00  0.00    +0.030 C 
ATOM      7  C   UNL     1      32.283 -24.332 -14.315  0.00  0.00    +0.000 C 
ATOM      8  C   UNL     1      31.234 -23.143 -16.270  0.00  0.00    +0.000 C 
BRANCH   2   9
ATOM      9  C   UNL     1      35.993 -24.624 -13.208  0.00  0.00    +0.002 C 
ATOM     10  C   UNL     1      35.514 -24.552 -11.762  0.00  0.00    +0.000 C 
ATOM     11  C   UNL     1      36.814 -25.887 -13.444  0.00  0.00    +0.000 C 
ENDBRANCH   2   9
ENDBRANCH   1   3
BRANCH   1  12
ATOM     12  P   UNL     1      37.403 -22.704 -15.873  0.00  0.00    +0.340 P 
ATOM     13  O   UNL     1      38.717 -23.420 -15.985  0.00  0.00    -0.258 OA
BRANCH  12  14
ATOM     14  O   UNL     1      37.196 -21.921 -14.474  0.00  0.00    -0.323 OA
ATOM     15  H   UNL     1      37.808 -21.170 -14.430  0.00  0.00    +0.220 HD
ENDBRANCH  12  14
BRANCH  12  16
ATOM     16  C   UNL     1      37.170 -21.439 -17.105  0.00  0.00    +0.116 C 
BRANCH  16  17
ATOM     17  C   UNL     1      36.155 -21.810 -18.179  0.00  0.00    +0.013 C 
BRANCH  17  18
ATOM     18  C   UNL     1      36.563 -21.295 -19.561  0.00  0.00    +0.001 C 
BRANCH  18  19
ATOM     19  C   UNL     1      35.393 -20.598 -20.259  0.00  0.00    +0.000 C 
BRANCH  19  20
ATOM     20  C   UNL     1      34.051 -21.174 -19.804  0.00  0.00    +0.000 C 
ATOM     21  C   UNL     1      32.888 -20.313 -20.272  0.00  0.00    +0.000 C 
ENDBRANCH  19  20
ENDBRANCH  18  19
ENDBRANCH  17  18
ENDBRANCH  16  17
ENDBRANCH  12  16
ENDBRANCH   1  12
TORSDOF 9
ENDMDL
MODEL 9
REMARK VINA RESULT:      -7.4      8.320     11.090
REMARK  Name = 446981
REMARK  9 active torsions:
REMARK  status: ('A' for Active; 'I' for Inactive)
REMARK    1  A    between atoms: O_1  and  C_3
REMARK    2  A    between atoms: O_1  and  P_12
REMARK    3  A    between atoms: C_2  and  C_9
REMARK    4  A    between atoms: P_12  and  O_14
REMARK    5  A    between atoms: P_12  and  C_16
REMARK    6  A    between atoms: C_16  and  C_17
REMARK    7  A    between atoms: C_17  and  C_18
REMARK    8  A    between atoms: C_18  and  C_19
REMARK    9  A    between atoms: C_19  and  C_20
REMARK                            x       y       z     vdW  Elec       q    Type
REMARK                         _______ _______ _______ _____ _____    ______ ____
ROOT
ATOM      1  O   UNL     1      34.328 -14.753 -24.100  0.00  0.00    -0.297 OA
ENDROOT
BRANCH   1   3
ATOM      2  C   UNL     1      34.565 -16.218 -22.190  0.00  0.00    +0.028 C 
ATOM      3  C   UNL     1      34.008 -16.055 -23.615  0.00  0.00    +0.124 C 
ATOM      4  C   UNL     1      34.359 -17.652 -21.685  0.00  0.00    +0.002 C 
ATOM      5  C   UNL     1      34.383 -18.525 -24.063  0.00  0.00    +0.002 C 
ATOM      6  C   UNL     1      34.596 -17.095 -24.571  0.00  0.00    +0.030 C 
ATOM      7  C   UNL     1      34.948 -18.683 -22.647  0.00  0.00    +0.000 C 
ATOM      8  C   UNL     1      35.018 -19.537 -25.014  0.00  0.00    +0.000 C 
BRANCH   2   9
ATOM      9  C   UNL     1      33.926 -15.218 -21.224  0.00  0.00    +0.002 C 
ATOM     10  C   UNL     1      32.535 -15.690 -20.810  0.00  0.00    +0.000 C 
ATOM     11  C   UNL     1      34.816 -15.018 -20.001  0.00  0.00    +0.000 C 
ENDBRANCH   2   9
ENDBRANCH   1   3
BRANCH   1  12
ATOM     12  P   UNL     1      33.162 -13.711 -24.493  0.00  0.00    +0.340 P 
ATOM     13  O   UNL     1      32.144 -13.497 -23.412  0.00  0.00    -0.258 OA
BRANCH  12  14
ATOM     14  O   UNL     1      32.548 -14.293 -25.871  0.00  0.00    -0.323 OA
ATOM     15  H   UNL     1      33.259 -14.686 -26.402  0.00  0.00    +0.220 HD
ENDBRANCH  12  14
BRANCH  12  16
ATOM     16  C   UNL     1      33.995 -12.219 -24.998  0.00  0.00    +0.116 C 
BRANCH  16  17
ATOM     17  C   UNL     1      33.800 -11.055 -24.036  0.00  0.00    +0.013 C 
BRANCH  17  18
ATOM     18  C   UNL     1      34.687  -9.859 -24.389  0.00  0.00    +0.001 C 
BRANCH  18  19
ATOM     19  C   UNL     1      34.307  -8.626 -23.566  0.00  0.00    +0.000 C 
BRANCH  19  20
ATOM     20  C   UNL     1      34.600  -7.336 -24.332  0.00  0.00    +0.000 C 
ATOM     21  C   UNL     1      33.351  -6.483 -24.486  0.00  0.00    +0.000 C 
ENDBRANCH  19  20
ENDBRANCH  18  19
ENDBRANCH  17  18
ENDBRANCH  16  17
ENDBRANCH  12  16
ENDBRANCH   1  12
TORSDOF 9
ENDMDL
