MODEL 1
REMARK VINA RESULT:     -13.0      0.000      0.000
REMARK  Name = 11697676
REMARK  7 active torsions:
REMARK  status: ('A' for Active; 'I' for Inactive)
REMARK    1  A    between atoms: N_1  and  C_18
REMARK    2  A    between atoms: N_2  and  C_8
REMARK    3  A    between atoms: C_18  and  C_19
REMARK    4  A    between atoms: C_19  and  C_20
REMARK    5  A    between atoms: C_20  and  C_21
REMARK    6  A    between atoms: C_21  and  O_22
REMARK    7  A    between atoms: O_22  and  C_28
REMARK                            x       y       z     vdW  Elec       q    Type
REMARK                         _______ _______ _______ _____ _____    ______ ____
ROOT
ATOM      1  N   UNL     1      35.984 -20.656 -19.247  0.00  0.00    +0.389 N 
ATOM      2  N   UNL     1      35.294 -19.226 -21.620  0.00  0.00    -0.312 N 
ATOM      3  C   UNL     1      37.025 -20.262 -20.205  0.00  0.00    -0.055 C 
ATOM      4  C   UNL     1      34.737 -20.957 -19.959  0.00  0.00    -0.055 C 
ATOM      5  C   UNL     1      36.604 -19.018 -20.991  0.00  0.00    +0.068 C 
ATOM      6  C   UNL     1      34.240 -19.736 -20.738  0.00  0.00    +0.068 C 
ATOM      7  H   UNL     1      35.818 -19.882 -18.604  0.00  0.00    -0.080 HD
ENDROOT
BRANCH   2   8
ATOM      8  C   UNL     1      34.954 -18.419 -22.712  0.00  0.00    +0.048 C 
ATOM      9  C   UNL     1      34.698 -17.024 -22.590  0.00  0.00    +0.013 C 
ATOM     10  C   UNL     1      34.859 -19.006 -23.993  0.00  0.00    +0.015 C 
ATOM     11  C   UNL     1      34.358 -16.255 -23.727  0.00  0.00    +0.001 C 
ATOM     12  C   UNL     1      34.781 -16.398 -21.336  0.00  0.00    +0.001 C 
ATOM     13  C   UNL     1      34.525 -18.248 -25.112  0.00  0.00    +0.001 C 
ATOM     14  C   UNL     1      34.276 -16.882 -24.981  0.00  0.00    +0.000 C 
ATOM     15  C   UNL     1      34.110 -14.881 -23.578  0.00  0.00    +0.000 C 
ATOM     16  C   UNL     1      34.531 -15.031 -21.205  0.00  0.00    +0.000 C 
ATOM     17  C   UNL     1      34.196 -14.274 -22.324  0.00  0.00    +0.000 C 
ENDBRANCH   2   8
BRANCH   1  18
ATOM     18  C   UNL     1      36.420 -21.812 -18.464  0.00  0.00    -0.077 C 
BRANCH  18  19
ATOM     19  C   UNL     1      36.848 -21.375 -17.064  0.00  0.00    -0.019 C 
BRANCH  19  20
ATOM     20  C   UNL     1      37.596 -22.493 -16.340  0.00  0.00    +0.045 C 
BRANCH  20  21
ATOM     21  C   UNL     1      36.682 -23.259 -15.393  0.00  0.00    +0.208 C 
BRANCH  21  22
ATOM     22  O   UNL     1      35.669 -23.925 -16.133  0.00  0.00    -0.452 OA
BRANCH  22  28
ATOM     23  O   UNL     1      28.956 -22.324 -17.185  0.00  0.00    -0.275 OA
ATOM     24  N   UNL     1      31.144 -22.913 -16.810  0.00  0.00    -0.263 N 
ATOM     25  N   UNL     1      33.426 -23.427 -16.457  0.00  0.00    -0.357 NA
ATOM     26  C   UNL     1      31.846 -23.750 -14.657  0.00  0.00    +0.090 C 
ATOM     27  C   UNL     1      30.416 -23.765 -14.207  0.00  0.00    +0.022 C 
ATOM     28  C   UNL     1      34.396 -23.871 -15.627  0.00  0.00    +0.278 C 
ATOM     29  C   UNL     1      32.169 -23.363 -15.957  0.00  0.00    +0.170 C 
ATOM     30  C   UNL     1      29.618 -22.677 -14.908  0.00  0.00    +0.086 C 
ATOM     31  C   UNL     1      32.874 -24.216 -13.837  0.00  0.00    -0.012 C 
ATOM     32  C   UNL     1      34.175 -24.270 -14.321  0.00  0.00    +0.068 C 
ATOM     33  C   UNL     1      29.850 -22.652 -16.404  0.00  0.00    +0.228 C 
ATOM     34  H   UNL     1      31.364 -22.775 -17.760  0.00  0.00    +0.157 HD
ENDBRANCH  22  28
ENDBRANCH  21  22
ENDBRANCH  20  21
ENDBRANCH  19  20
ENDBRANCH  18  19
ENDBRANCH   1  18
TORSDOF 7
ENDMDL
MODEL 2
REMARK VINA RESULT:     -12.5      2.199      4.580
REMARK  Name = 11697676
REMARK  7 active torsions:
REMARK  status: ('A' for Active; 'I' for Inactive)
REMARK    1  A    between atoms: N_1  and  C_18
REMARK    2  A    between atoms: N_2  and  C_8
REMARK    3  A    between atoms: C_18  and  C_19
REMARK    4  A    between atoms: C_19  and  C_20
REMARK    5  A    between atoms: C_20  and  C_21
REMARK    6  A    between atoms: C_21  and  O_22
REMARK    7  A    between atoms: O_22  and  C_28
REMARK                            x       y       z     vdW  Elec       q    Type
REMARK                         _______ _______ _______ _____ _____    ______ ____
ROOT
ATOM      1  N   UNL     1      34.524 -21.741 -19.373  0.00  0.00    +0.389 N 
ATOM      2  N   UNL     1      34.622 -19.654 -21.320  0.00  0.00    -0.312 N 
ATOM      3  C   UNL     1      33.355 -20.883 -19.600  0.00  0.00    -0.055 C 
ATOM      4  C   UNL     1      35.757 -20.970 -19.575  0.00  0.00    -0.055 C 
ATOM      5  C   UNL     1      33.351 -20.326 -21.026  0.00  0.00    +0.068 C 
ATOM      6  C   UNL     1      35.832 -20.416 -21.000  0.00  0.00    +0.068 C 
ATOM      7  H   UNL     1      34.503 -22.510 -20.043  0.00  0.00    -0.080 HD
ENDROOT
BRANCH   2   8
ATOM      8  C   UNL     1      34.645 -18.719 -22.362  0.00  0.00    +0.048 C 
ATOM      9  C   UNL     1      34.587 -17.315 -22.139  0.00  0.00    +0.013 C 
ATOM     10  C   UNL     1      34.728 -19.182 -23.693  0.00  0.00    +0.015 C 
ATOM     11  C   UNL     1      34.614 -16.414 -23.229  0.00  0.00    +0.001 C 
ATOM     12  C   UNL     1      34.503 -16.810 -20.832  0.00  0.00    +0.001 C 
ATOM     13  C   UNL     1      34.755 -18.295 -24.766  0.00  0.00    +0.001 C 
ATOM     14  C   UNL     1      34.699 -16.921 -24.537  0.00  0.00    +0.000 C 
ATOM     15  C   UNL     1      34.556 -15.033 -22.981  0.00  0.00    +0.000 C 
ATOM     16  C   UNL     1      34.446 -15.434 -20.603  0.00  0.00    +0.000 C 
ATOM     17  C   UNL     1      34.472 -14.548 -21.675  0.00  0.00    +0.000 C 
ENDBRANCH   2   8
BRANCH   1  18
ATOM     18  C   UNL     1      34.489 -22.310 -18.026  0.00  0.00    -0.077 C 
BRANCH  18  19
ATOM     19  C   UNL     1      33.426 -23.403 -17.939  0.00  0.00    -0.019 C 
BRANCH  19  20
ATOM     20  C   UNL     1      32.373 -23.066 -16.885  0.00  0.00    +0.045 C 
BRANCH  20  21
ATOM     21  C   UNL     1      32.911 -23.249 -15.472  0.00  0.00    +0.208 C 
BRANCH  21  22
ATOM     22  O   UNL     1      33.571 -24.503 -15.367  0.00  0.00    -0.452 OA
BRANCH  22  28
ATOM     23  O   UNL     1      40.397 -25.959 -15.478  0.00  0.00    -0.275 OA
ATOM     24  N   UNL     1      38.166 -25.417 -15.411  0.00  0.00    -0.263 N 
ATOM     25  N   UNL     1      35.847 -24.952 -15.377  0.00  0.00    -0.357 NA
ATOM     26  C   UNL     1      37.163 -24.566 -13.387  0.00  0.00    +0.090 C 
ATOM     27  C   UNL     1      38.518 -24.510 -12.749  0.00  0.00    +0.022 C 
ATOM     28  C   UNL     1      34.764 -24.519 -14.693  0.00  0.00    +0.278 C 
ATOM     29  C   UNL     1      37.026 -24.979 -14.712  0.00  0.00    +0.170 C 
ATOM     30  C   UNL     1      39.426 -25.589 -13.317  0.00  0.00    +0.086 C 
ATOM     31  C   UNL     1      36.023 -24.112 -12.721  0.00  0.00    -0.012 C 
ATOM     32  C   UNL     1      34.799 -24.096 -13.377  0.00  0.00    +0.068 C 
ATOM     33  C   UNL     1      39.399 -25.641 -14.830  0.00  0.00    +0.228 C 
ATOM     34  H   UNL     1      38.079 -25.574 -16.379  0.00  0.00    +0.157 HD
ENDBRANCH  22  28
ENDBRANCH  21  22
ENDBRANCH  20  21
ENDBRANCH  19  20
ENDBRANCH  18  19
ENDBRANCH   1  18
TORSDOF 7
ENDMDL
MODEL 3
REMARK VINA RESULT:     -12.4      0.862      2.248
REMARK  Name = 11697676
REMARK  7 active torsions:
REMARK  status: ('A' for Active; 'I' for Inactive)
REMARK    1  A    between atoms: N_1  and  C_18
REMARK    2  A    between atoms: N_2  and  C_8
REMARK    3  A    between atoms: C_18  and  C_19
REMARK    4  A    between atoms: C_19  and  C_20
REMARK    5  A    between atoms: C_20  and  C_21
REMARK    6  A    between atoms: C_21  and  O_22
REMARK    7  A    between atoms: O_22  and  C_28
REMARK                            x       y       z     vdW  Elec       q    Type
REMARK                         _______ _______ _______ _____ _____    ______ ____
ROOT
ATOM      1  N   UNL     1      35.952 -20.629 -20.746  0.00  0.00    +0.389 N 
ATOM      2  N   UNL     1      34.987 -17.989 -21.255  0.00  0.00    -0.312 N 
ATOM      3  C   UNL     1      34.614 -20.228 -20.294  0.00  0.00    -0.055 C 
ATOM      4  C   UNL     1      36.864 -19.480 -20.687  0.00  0.00    -0.055 C 
ATOM      5  C   UNL     1      34.047 -19.114 -21.178  0.00  0.00    +0.068 C 
ATOM      6  C   UNL     1      36.372 -18.341 -21.584  0.00  0.00    +0.068 C 
ATOM      7  H   UNL     1      35.891 -20.952 -21.711  0.00  0.00    -0.080 HD
ENDROOT
BRANCH   2   8
ATOM      8  C   UNL     1      34.484 -16.736 -21.622  0.00  0.00    +0.048 C 
ATOM      9  C   UNL     1      34.246 -16.367 -22.975  0.00  0.00    +0.013 C 
ATOM     10  C   UNL     1      34.198 -15.792 -20.612  0.00  0.00    +0.015 C 
ATOM     11  C   UNL     1      33.736 -15.086 -23.291  0.00  0.00    +0.001 C 
ATOM     12  C   UNL     1      34.516 -17.274 -24.013  0.00  0.00    +0.001 C 
ATOM     13  C   UNL     1      33.695 -14.531 -20.922  0.00  0.00    +0.001 C 
ATOM     14  C   UNL     1      33.465 -14.180 -22.252  0.00  0.00    +0.000 C 
ATOM     15  C   UNL     1      33.510 -14.749 -24.635  0.00  0.00    +0.000 C 
ATOM     16  C   UNL     1      34.286 -16.922 -25.344  0.00  0.00    +0.000 C 
ATOM     17  C   UNL     1      33.785 -15.661 -25.654  0.00  0.00    +0.000 C 
ENDBRANCH   2   8
BRANCH   1  18
ATOM     18  C   UNL     1      36.461 -21.730 -19.928  0.00  0.00    -0.077 C 
BRANCH  18  19
ATOM     19  C   UNL     1      35.822 -21.699 -18.541  0.00  0.00    -0.019 C 
BRANCH  19  20
ATOM     20  C   UNL     1      36.877 -21.821 -17.443  0.00  0.00    +0.045 C 
BRANCH  20  21
ATOM     21  C   UNL     1      36.310 -22.466 -16.186  0.00  0.00    +0.208 C 
BRANCH  21  22
ATOM     22  O   UNL     1      35.457 -23.545 -16.541  0.00  0.00    -0.452 OA
BRANCH  22  28
ATOM     23  O   UNL     1      28.608 -22.361 -17.189  0.00  0.00    -0.275 OA
ATOM     24  N   UNL     1      30.847 -22.814 -16.946  0.00  0.00    -0.263 N 
ATOM     25  N   UNL     1      33.173 -23.186 -16.730  0.00  0.00    -0.357 NA
ATOM     26  C   UNL     1      31.725 -23.606 -14.840  0.00  0.00    +0.090 C 
ATOM     27  C   UNL     1      30.327 -23.709 -14.307  0.00  0.00    +0.022 C 
ATOM     28  C   UNL     1      34.216 -23.569 -15.960  0.00  0.00    +0.278 C 
ATOM     29  C   UNL     1      31.946 -23.200 -16.156  0.00  0.00    +0.170 C 
ATOM     30  C   UNL     1      29.424 -22.672 -14.956  0.00  0.00    +0.086 C 
ATOM     31  C   UNL     1      32.827 -24.007 -14.085  0.00  0.00    -0.012 C 
ATOM     32  C   UNL     1      34.097 -23.982 -14.645  0.00  0.00    +0.068 C 
ATOM     33  C   UNL     1      29.565 -22.633 -16.463  0.00  0.00    +0.228 C 
ATOM     34  H   UNL     1      31.001 -22.663 -17.906  0.00  0.00    +0.157 HD
ENDBRANCH  22  28
ENDBRANCH  21  22
ENDBRANCH  20  21
ENDBRANCH  19  20
ENDBRANCH  18  19
ENDBRANCH   1  18
TORSDOF 7
ENDMDL
MODEL 4
REMARK VINA RESULT:     -12.2      3.412      6.436
REMARK  Name = 11697676
REMARK  7 active torsions:
REMARK  status: ('A' for Active; 'I' for Inactive)
REMARK    1  A    between atoms: N_1  and  C_18
REMARK    2  A    between atoms: N_2  and  C_8
REMARK    3  A    between atoms: C_18  and  C_19
REMARK    4  A    between atoms: C_19  and  C_20
REMARK    5  A    between atoms: C_20  and  C_21
REMARK    6  A    between atoms: C_21  and  O_22
REMARK    7  A    between atoms: O_22  and  C_28
REMARK                            x       y       z     vdW  Elec       q    Type
REMARK                         _______ _______ _______ _____ _____    ______ ____
ROOT
ATOM      1  N   UNL     1      33.944 -16.087 -24.349  0.00  0.00    +0.389 N 
ATOM      2  N   UNL     1      33.247 -13.423 -23.591  0.00  0.00    -0.312 N 
ATOM      3  C   UNL     1      34.708 -15.388 -23.308  0.00  0.00    -0.055 C 
ATOM      4  C   UNL     1      33.475 -15.126 -25.355  0.00  0.00    -0.055 C 
ATOM      5  C   UNL     1      33.845 -14.335 -22.608  0.00  0.00    +0.068 C 
ATOM      6  C   UNL     1      32.572 -14.064 -24.723  0.00  0.00    +0.068 C 
ATOM      7  H   UNL     1      33.135 -16.535 -23.919  0.00  0.00    -0.080 HD
ENDROOT
BRANCH   2   8
ATOM      8  C   UNL     1      32.815 -12.168 -23.145  0.00  0.00    +0.048 C 
ATOM      9  C   UNL     1      33.430 -10.952 -23.554  0.00  0.00    +0.013 C 
ATOM     10  C   UNL     1      31.724 -12.098 -22.252  0.00  0.00    +0.015 C 
ATOM     11  C   UNL     1      32.953  -9.710 -23.073  0.00  0.00    +0.001 C 
ATOM     12  C   UNL     1      34.518 -10.973 -24.441  0.00  0.00    +0.001 C 
ATOM     13  C   UNL     1      31.254 -10.876 -21.779  0.00  0.00    +0.001 C 
ATOM     14  C   UNL     1      31.863  -9.690 -22.187  0.00  0.00    +0.000 C 
ATOM     15  C   UNL     1      33.578  -8.525 -23.493  0.00  0.00    +0.000 C 
ATOM     16  C   UNL     1      35.128  -9.786 -24.848  0.00  0.00    +0.000 C 
ATOM     17  C   UNL     1      34.659  -8.564 -24.374  0.00  0.00    +0.000 C 
ENDBRANCH   2   8
BRANCH   1  18
ATOM     18  C   UNL     1      34.761 -17.126 -24.974  0.00  0.00    -0.077 C 
BRANCH  18  19
ATOM     19  C   UNL     1      34.585 -18.454 -24.238  0.00  0.00    -0.019 C 
BRANCH  19  20
ATOM     20  C   UNL     1      35.595 -18.593 -23.100  0.00  0.00    +0.045 C 
BRANCH  20  21
ATOM     21  C   UNL     1      34.910 -18.604 -21.740  0.00  0.00    +0.208 C 
BRANCH  21  22
ATOM     22  O   UNL     1      34.089 -19.757 -21.623  0.00  0.00    -0.452 OA
BRANCH  22  28
ATOM     23  O   UNL     1      31.355 -23.605 -16.480  0.00  0.00    -0.275 OA
ATOM     24  N   UNL     1      32.300 -22.392 -18.186  0.00  0.00    -0.263 N 
ATOM     25  N   UNL     1      33.214 -21.064 -19.917  0.00  0.00    -0.357 NA
ATOM     26  C   UNL     1      34.698 -22.182 -18.371  0.00  0.00    +0.090 C 
ATOM     27  C   UNL     1      34.861 -23.158 -17.245  0.00  0.00    +0.022 C 
ATOM     28  C   UNL     1      34.307 -20.565 -20.537  0.00  0.00    +0.278 C 
ATOM     29  C   UNL     1      33.425 -21.855 -18.839  0.00  0.00    +0.170 C 
ATOM     30  C   UNL     1      33.686 -23.075 -16.284  0.00  0.00    +0.086 C 
ATOM     31  C   UNL     1      35.799 -21.658 -19.049  0.00  0.00    -0.012 C 
ATOM     32  C   UNL     1      35.607 -20.827 -20.145  0.00  0.00    +0.068 C 
ATOM     33  C   UNL     1      32.347 -23.087 -16.993  0.00  0.00    +0.228 C 
ATOM     34  H   UNL     1      31.419 -22.264 -18.608  0.00  0.00    +0.157 HD
ENDBRANCH  22  28
ENDBRANCH  21  22
ENDBRANCH  20  21
ENDBRANCH  19  20
ENDBRANCH  18  19
ENDBRANCH   1  18
TORSDOF 7
ENDMDL
MODEL 5
REMARK VINA RESULT:     -12.1      2.252      3.948
REMARK  Name = 11697676
REMARK  7 active torsions:
REMARK  status: ('A' for Active; 'I' for Inactive)
REMARK    1  A    between atoms: N_1  and  C_18
REMARK    2  A    between atoms: N_2  and  C_8
REMARK    3  A    between atoms: C_18  and  C_19
REMARK    4  A    between atoms: C_19  and  C_20
REMARK    5  A    between atoms: C_20  and  C_21
REMARK    6  A    between atoms: C_21  and  O_22
REMARK    7  A    between atoms: O_22  and  C_28
REMARK                            x       y       z     vdW  Elec       q    Type
REMARK                         _______ _______ _______ _____ _____    ______ ____
ROOT
ATOM      1  N   UNL     1      35.553 -20.517 -20.609  0.00  0.00    +0.389 N 
ATOM      2  N   UNL     1      34.785 -18.208 -22.103  0.00  0.00    -0.312 N 
ATOM      3  C   UNL     1      34.141 -20.119 -20.686  0.00  0.00    -0.055 C 
ATOM      4  C   UNL     1      36.410 -19.326 -20.629  0.00  0.00    -0.055 C 
ATOM      5  C   UNL     1      33.861 -19.341 -21.975  0.00  0.00    +0.068 C 
ATOM      6  C   UNL     1      36.204 -18.521 -21.915  0.00  0.00    +0.068 C 
ATOM      7  H   UNL     1      35.776 -21.098 -21.418  0.00  0.00    -0.080 HD
ENDROOT
BRANCH   2   8
ATOM      8  C   UNL     1      34.414 -17.149 -22.940  0.00  0.00    +0.048 C 
ATOM      9  C   UNL     1      33.779 -15.971 -22.456  0.00  0.00    +0.013 C 
ATOM     10  C   UNL     1      34.676 -17.246 -24.324  0.00  0.00    +0.015 C 
ATOM     11  C   UNL     1      33.424 -14.930 -23.346  0.00  0.00    +0.001 C 
ATOM     12  C   UNL     1      33.498 -15.830 -21.087  0.00  0.00    +0.001 C 
ATOM     13  C   UNL     1      34.327 -16.221 -25.199  0.00  0.00    +0.001 C 
ATOM     14  C   UNL     1      33.706 -15.071 -24.715  0.00  0.00    +0.000 C 
ATOM     15  C   UNL     1      32.799 -13.778 -22.841  0.00  0.00    +0.000 C 
ATOM     16  C   UNL     1      32.876 -14.679 -20.603  0.00  0.00    +0.000 C 
ATOM     17  C   UNL     1      32.527 -13.655 -21.478  0.00  0.00    +0.000 C 
ENDBRANCH   2   8
BRANCH   1  18
ATOM     18  C   UNL     1      35.797 -21.306 -19.401  0.00  0.00    -0.077 C 
BRANCH  18  19
ATOM     19  C   UNL     1      34.812 -22.471 -19.320  0.00  0.00    -0.019 C 
BRANCH  19  20
ATOM     20  C   UNL     1      33.544 -22.071 -18.570  0.00  0.00    +0.045 C 
BRANCH  20  21
ATOM     21  C   UNL     1      33.306 -22.956 -17.354  0.00  0.00    +0.208 C 
BRANCH  21  22
ATOM     22  O   UNL     1      34.411 -23.830 -17.170  0.00  0.00    -0.452 OA
BRANCH  22  28
ATOM     23  O   UNL     1      35.267 -25.224 -10.384  0.00  0.00    -0.275 OA
ATOM     24  N   UNL     1      35.055 -24.779 -12.627  0.00  0.00    -0.263 N 
ATOM     25  N   UNL     1      34.739 -24.293 -14.920  0.00  0.00    -0.357 NA
ATOM     26  C   UNL     1      36.621 -23.326 -13.751  0.00  0.00    +0.090 C 
ATOM     27  C   UNL     1      37.447 -23.264 -12.501  0.00  0.00    +0.022 C 
ATOM     28  C   UNL     1      35.158 -23.652 -16.035  0.00  0.00    +0.278 C 
ATOM     29  C   UNL     1      35.470 -24.112 -13.795  0.00  0.00    +0.170 C 
ATOM     30  C   UNL     1      36.571 -23.417 -11.268  0.00  0.00    +0.086 C 
ATOM     31  C   UNL     1      37.027 -22.693 -14.927  0.00  0.00    -0.012 C 
ATOM     32  C   UNL     1      36.282 -22.847 -16.089  0.00  0.00    +0.068 C 
ATOM     33  C   UNL     1      35.603 -24.577 -11.376  0.00  0.00    +0.228 C 
ATOM     34  H   UNL     1      34.324 -25.435 -12.707  0.00  0.00    +0.157 HD
ENDBRANCH  22  28
ENDBRANCH  21  22
ENDBRANCH  20  21
ENDBRANCH  19  20
ENDBRANCH  18  19
ENDBRANCH   1  18
TORSDOF 7
ENDMDL
MODEL 6
REMARK VINA RESULT:     -12.0      3.327      6.566
REMARK  Name = 11697676
REMARK  7 active torsions:
REMARK  status: ('A' for Active; 'I' for Inactive)
REMARK    1  A    between atoms: N_1  and  C_18
REMARK    2  A    between atoms: N_2  and  C_8
REMARK    3  A    between atoms: C_18  and  C_19
REMARK    4  A    between atoms: C_19  and  C_20
REMARK    5  A    between atoms: C_20  and  C_21
REMARK    6  A    between atoms: C_21  and  O_22
REMARK    7  A    between atoms: O_22  and  C_28
REMARK                            x       y       z     vdW  Elec       q    Type
REMARK                         _______ _______ _______ _____ _____    ______ ____
ROOT
ATOM      1  N   UNL     1      34.042 -16.081 -23.734  0.00  0.00    +0.389 N 
ATOM      2  N   UNL     1      33.268 -13.373 -23.257  0.00  0.00    -0.312 N 
ATOM      3  C   UNL     1      34.624 -15.329 -22.615  0.00  0.00    -0.055 C 
ATOM      4  C   UNL     1      33.773 -15.175 -24.858  0.00  0.00    -0.055 C 
ATOM      5  C   UNL     1      33.669 -14.232 -22.136  0.00  0.00    +0.068 C 
ATOM      6  C   UNL     1      32.791 -14.073 -24.453  0.00  0.00    +0.068 C 
ATOM      7  H   UNL     1      33.163 -16.498 -23.429  0.00  0.00    -0.080 HD
ENDROOT
BRANCH   2   8
ATOM      8  C   UNL     1      32.785 -12.093 -22.963  0.00  0.00    +0.048 C 
ATOM      9  C   UNL     1      33.400 -10.907 -23.454  0.00  0.00    +0.013 C 
ATOM     10  C   UNL     1      31.641 -11.964 -22.146  0.00  0.00    +0.015 C 
ATOM     11  C   UNL     1      32.871  -9.636 -23.126  0.00  0.00    +0.001 C 
ATOM     12  C   UNL     1      34.541 -10.987 -24.269  0.00  0.00    +0.001 C 
ATOM     13  C   UNL     1      31.120 -10.713 -21.825  0.00  0.00    +0.001 C 
ATOM     14  C   UNL     1      31.730  -9.557 -22.311  0.00  0.00    +0.000 C 
ATOM     15  C   UNL     1      33.498  -8.482 -23.624  0.00  0.00    +0.000 C 
ATOM     16  C   UNL     1      35.151  -9.830 -24.755  0.00  0.00    +0.000 C 
ATOM     17  C   UNL     1      34.630  -8.580 -24.432  0.00  0.00    +0.000 C 
ENDBRANCH   2   8
BRANCH   1  18
ATOM     18  C   UNL     1      34.939 -17.159 -24.147  0.00  0.00    -0.077 C 
BRANCH  18  19
ATOM     19  C   UNL     1      35.431 -17.938 -22.928  0.00  0.00    -0.019 C 
BRANCH  19  20
ATOM     20  C   UNL     1      34.712 -19.279 -22.802  0.00  0.00    +0.045 C 
BRANCH  20  21
ATOM     21  C   UNL     1      34.429 -19.632 -21.348  0.00  0.00    +0.208 C 
BRANCH  21  22
ATOM     22  O   UNL     1      35.505 -20.393 -20.818  0.00  0.00    -0.452 OA
BRANCH  22  28
ATOM     23  O   UNL     1      37.773 -22.948 -14.731  0.00  0.00    -0.275 OA
ATOM     24  N   UNL     1      36.966 -22.088 -16.702  0.00  0.00    -0.263 N 
ATOM     25  N   UNL     1      36.218 -21.238 -18.779  0.00  0.00    -0.357 NA
ATOM     26  C   UNL     1      34.749 -22.649 -17.477  0.00  0.00    +0.090 C 
ATOM     27  C   UNL     1      34.491 -23.371 -16.189  0.00  0.00    +0.022 C 
ATOM     28  C   UNL     1      35.240 -21.151 -19.707  0.00  0.00    +0.278 C 
ATOM     29  C   UNL     1      35.962 -21.993 -17.684  0.00  0.00    +0.170 C 
ATOM     30  C   UNL     1      35.781 -23.941 -15.622  0.00  0.00    +0.086 C 
ATOM     31  C   UNL     1      33.760 -22.521 -18.453  0.00  0.00    -0.012 C 
ATOM     32  C   UNL     1      34.007 -21.768 -19.594  0.00  0.00    +0.068 C 
ATOM     33  C   UNL     1      36.913 -22.935 -15.611  0.00  0.00    +0.228 C 
ATOM     34  H   UNL     1      37.759 -21.512 -16.798  0.00  0.00    +0.157 HD
ENDBRANCH  22  28
ENDBRANCH  21  22
ENDBRANCH  20  21
ENDBRANCH  19  20
ENDBRANCH  18  19
ENDBRANCH   1  18
TORSDOF 7
ENDMDL
MODEL 7
REMARK VINA RESULT:     -12.0      5.452      9.145
REMARK  Name = 11697676
REMARK  7 active torsions:
REMARK  status: ('A' for Active; 'I' for Inactive)
REMARK    1  A    between atoms: N_1  and  C_18
REMARK    2  A    between atoms: N_2  and  C_8
REMARK    3  A    between atoms: C_18  and  C_19
REMARK    4  A    between atoms: C_19  and  C_20
REMARK    5  A    between atoms: C_20  and  C_21
REMARK    6  A    between atoms: C_21  and  O_22
REMARK    7  A    between atoms: O_22  and  C_28
REMARK                            x       y       z     vdW  Elec       q    Type
REMARK                         _______ _______ _______ _____ _____    ______ ____
ROOT
ATOM      1  N   UNL     1      32.555 -12.648 -23.536  0.00  0.00    +0.389 N 
ATOM      2  N   UNL     1      32.437 -10.058 -22.337  0.00  0.00    -0.312 N 
ATOM      3  C   UNL     1      31.981 -12.476 -22.196  0.00  0.00    -0.055 C 
ATOM      4  C   UNL     1      33.642 -11.683 -23.741  0.00  0.00    -0.055 C 
ATOM      5  C   UNL     1      31.417 -11.065 -22.016  0.00  0.00    +0.068 C 
ATOM      6  C   UNL     1      33.134 -10.245 -23.612  0.00  0.00    +0.068 C 
ATOM      7  H   UNL     1      31.827 -12.476 -24.230  0.00  0.00    -0.080 HD
ENDROOT
BRANCH   2   8
ATOM      8  C   UNL     1      32.274  -8.769 -21.817  0.00  0.00    +0.048 C 
ATOM      9  C   UNL     1      31.804  -7.677 -22.600  0.00  0.00    +0.013 C 
ATOM     10  C   UNL     1      32.586  -8.534 -20.461  0.00  0.00    +0.015 C 
ATOM     11  C   UNL     1      31.658  -6.393 -22.025  0.00  0.00    +0.001 C 
ATOM     12  C   UNL     1      31.481  -7.864 -23.953  0.00  0.00    +0.001 C 
ATOM     13  C   UNL     1      32.441  -7.270 -19.894  0.00  0.00    +0.001 C 
ATOM     14  C   UNL     1      31.980  -6.207 -20.670  0.00  0.00    +0.000 C 
ATOM     15  C   UNL     1      31.192  -5.333 -22.819  0.00  0.00    +0.000 C 
ATOM     16  C   UNL     1      31.020  -6.800 -24.729  0.00  0.00    +0.000 C 
ATOM     17  C   UNL     1      30.876  -5.537 -24.163  0.00  0.00    +0.000 C 
ENDBRANCH   2   8
BRANCH   1  18
ATOM     18  C   UNL     1      33.041 -14.015 -23.715  0.00  0.00    -0.077 C 
BRANCH  18  19
ATOM     19  C   UNL     1      32.940 -14.790 -22.402  0.00  0.00    -0.019 C 
BRANCH  19  20
ATOM     20  C   UNL     1      34.322 -15.056 -21.809  0.00  0.00    +0.045 C 
BRANCH  20  21
ATOM     21  C   UNL     1      35.069 -16.133 -22.585  0.00  0.00    +0.208 C 
BRANCH  21  22
ATOM     22  O   UNL     1      34.303 -17.328 -22.612  0.00  0.00    -0.452 OA
BRANCH  22  28
ATOM     23  O   UNL     1      32.686 -22.771 -18.551  0.00  0.00    -0.275 OA
ATOM     24  N   UNL     1      33.266 -21.021 -19.921  0.00  0.00    -0.263 N 
ATOM     25  N   UNL     1      33.801 -19.158 -21.277  0.00  0.00    -0.357 NA
ATOM     26  C   UNL     1      35.584 -20.442 -20.269  0.00  0.00    +0.090 C 
ATOM     27  C   UNL     1      35.994 -21.656 -19.492  0.00  0.00    +0.022 C 
ATOM     28  C   UNL     1      34.745 -18.364 -21.831  0.00  0.00    +0.278 C 
ATOM     29  C   UNL     1      34.234 -20.177 -20.498  0.00  0.00    +0.170 C 
ATOM     30  C   UNL     1      34.953 -22.001 -18.439  0.00  0.00    +0.086 C 
ATOM     31  C   UNL     1      36.526 -19.607 -20.871  0.00  0.00    -0.012 C 
ATOM     32  C   UNL     1      36.105 -18.543 -21.659  0.00  0.00    +0.068 C 
ATOM     33  C   UNL     1      33.542 -22.002 -18.988  0.00  0.00    +0.228 C 
ATOM     34  H   UNL     1      32.329 -20.904 -20.200  0.00  0.00    +0.157 HD
ENDBRANCH  22  28
ENDBRANCH  21  22
ENDBRANCH  20  21
ENDBRANCH  19  20
ENDBRANCH  18  19
ENDBRANCH   1  18
TORSDOF 7
ENDMDL
MODEL 8
REMARK VINA RESULT:     -12.0      3.349     10.573
REMARK  Name = 11697676
REMARK  7 active torsions:
REMARK  status: ('A' for Active; 'I' for Inactive)
REMARK    1  A    between atoms: N_1  and  C_18
REMARK    2  A    between atoms: N_2  and  C_8
REMARK    3  A    between atoms: C_18  and  C_19
REMARK    4  A    between atoms: C_19  and  C_20
REMARK    5  A    between atoms: C_20  and  C_21
REMARK    6  A    between atoms: C_21  and  O_22
REMARK    7  A    between atoms: O_22  and  C_28
REMARK                            x       y       z     vdW  Elec       q    Type
REMARK                         _______ _______ _______ _____ _____    ______ ____
ROOT
ATOM      1  N   UNL     1      35.281 -21.638 -18.220  0.00  0.00    +0.389 N 
ATOM      2  N   UNL     1      35.906 -23.125 -15.862  0.00  0.00    -0.312 N 
ATOM      3  C   UNL     1      34.498 -22.828 -17.864  0.00  0.00    -0.055 C 
ATOM      4  C   UNL     1      36.677 -21.815 -17.800  0.00  0.00    -0.055 C 
ATOM      5  C   UNL     1      34.523 -23.069 -16.352  0.00  0.00    +0.068 C 
ATOM      6  C   UNL     1      36.774 -22.023 -16.287  0.00  0.00    +0.068 C 
ATOM      7  H   UNL     1      34.891 -20.830 -17.735  0.00  0.00    -0.080 HD
ENDROOT
BRANCH   2   8
ATOM      8  C   UNL     1      36.146 -23.766 -14.642  0.00  0.00    +0.048 C 
ATOM      9  C   UNL     1      37.370 -24.429 -14.348  0.00  0.00    +0.013 C 
ATOM     10  C   UNL     1      35.135 -23.760 -13.656  0.00  0.00    +0.015 C 
ATOM     11  C   UNL     1      37.560 -25.063 -13.097  0.00  0.00    +0.001 C 
ATOM     12  C   UNL     1      38.403 -24.461 -15.298  0.00  0.00    +0.001 C 
ATOM     13  C   UNL     1      35.322 -24.383 -12.425  0.00  0.00    +0.001 C 
ATOM     14  C   UNL     1      36.526 -25.030 -12.146  0.00  0.00    +0.000 C 
ATOM     15  C   UNL     1      38.778 -25.710 -12.833  0.00  0.00    +0.000 C 
ATOM     16  C   UNL     1      39.607 -25.109 -15.019  0.00  0.00    +0.000 C 
ATOM     17  C   UNL     1      39.794 -25.733 -13.789  0.00  0.00    +0.000 C 
ENDBRANCH   2   8
BRANCH   1  18
ATOM     18  C   UNL     1      35.205 -21.387 -19.659  0.00  0.00    -0.077 C 
BRANCH  18  19
ATOM     19  C   UNL     1      33.818 -20.871 -20.035  0.00  0.00    -0.019 C 
BRANCH  19  20
ATOM     20  C   UNL     1      33.911 -19.649 -20.947  0.00  0.00    +0.045 C 
BRANCH  20  21
ATOM     21  C   UNL     1      35.357 -19.254 -21.213  0.00  0.00    +0.208 C 
BRANCH  21  22
ATOM     22  O   UNL     1      35.598 -17.945 -20.719  0.00  0.00    -0.452 OA
BRANCH  22  28
ATOM     23  O   UNL     1      33.287 -15.261 -26.734  0.00  0.00    -0.275 OA
ATOM     24  N   UNL     1      33.985 -16.128 -24.725  0.00  0.00    -0.263 N 
ATOM     25  N   UNL     1      34.796 -17.035 -22.696  0.00  0.00    -0.357 NA
ATOM     26  C   UNL     1      33.697 -14.882 -22.676  0.00  0.00    +0.090 C 
ATOM     27  C   UNL     1      32.917 -13.846 -23.427  0.00  0.00    +0.022 C 
ATOM     28  C   UNL     1      34.962 -16.914 -21.360  0.00  0.00    +0.278 C 
ATOM     29  C   UNL     1      34.176 -16.015 -23.335  0.00  0.00    +0.170 C 
ATOM     30  C   UNL     1      33.387 -13.756 -24.870  0.00  0.00    +0.086 C 
ATOM     31  C   UNL     1      33.877 -14.803 -21.295  0.00  0.00    -0.012 C 
ATOM     32  C   UNL     1      34.528 -15.829 -20.621  0.00  0.00    +0.068 C 
ATOM     33  C   UNL     1      33.509 -15.113 -25.532  0.00  0.00    +0.228 C 
ATOM     34  H   UNL     1      34.204 -16.988 -25.150  0.00  0.00    +0.157 HD
ENDBRANCH  22  28
ENDBRANCH  21  22
ENDBRANCH  20  21
ENDBRANCH  19  20
ENDBRANCH  18  19
ENDBRANCH   1  18
TORSDOF 7
ENDMDL
MODEL 9
REMARK VINA RESULT:     -12.0      2.304      4.950
REMARK  Name = 11697676
REMARK  7 active torsions:
REMARK  status: ('A' for Active; 'I' for Inactive)
REMARK    1  A    between atoms: N_1  and  C_18
REMARK    2  A    between atoms: N_2  and  C_8
REMARK    3  A    between atoms: C_18  and  C_19
REMARK    4  A    between atoms: C_19  and  C_20
REMARK    5  A    between atoms: C_20  and  C_21
REMARK    6  A    between atoms: C_21  and  O_22
REMARK    7  A    between atoms: O_22  and  C_28
REMARK                            x       y       z     vdW  Elec       q    Type
REMARK                         _______ _______ _______ _____ _____    ______ ____
ROOT
ATOM      1  N   UNL     1      34.716 -21.379 -20.124  0.00  0.00    +0.389 N 
ATOM      2  N   UNL     1      34.644 -18.642 -20.935  0.00  0.00    -0.312 N 
ATOM      3  C   UNL     1      33.477 -20.600 -19.999  0.00  0.00    -0.055 C 
ATOM      4  C   UNL     1      35.878 -20.509 -19.906  0.00  0.00    -0.055 C 
ATOM      5  C   UNL     1      33.435 -19.468 -21.029  0.00  0.00    +0.068 C 
ATOM      6  C   UNL     1      35.914 -19.373 -20.932  0.00  0.00    +0.068 C 
ATOM      7  H   UNL     1      34.767 -21.768 -21.066  0.00  0.00    -0.080 HD
ENDROOT
BRANCH   2   8
ATOM      8  C   UNL     1      34.594 -17.342 -21.452  0.00  0.00    +0.048 C 
ATOM      9  C   UNL     1      34.539 -17.069 -22.847  0.00  0.00    +0.013 C 
ATOM     10  C   UNL     1      34.596 -16.250 -20.557  0.00  0.00    +0.015 C 
ATOM     11  C   UNL     1      34.490 -15.736 -23.316  0.00  0.00    +0.001 C 
ATOM     12  C   UNL     1      34.535 -18.124 -23.774  0.00  0.00    +0.001 C 
ATOM     13  C   UNL     1      34.546 -14.937 -21.019  0.00  0.00    +0.001 C 
ATOM     14  C   UNL     1      34.493 -14.681 -22.388  0.00  0.00    +0.000 C 
ATOM     15  C   UNL     1      34.437 -15.495 -24.699  0.00  0.00    +0.000 C 
ATOM     16  C   UNL     1      34.482 -17.867 -25.145  0.00  0.00    +0.000 C 
ATOM     17  C   UNL     1      34.434 -16.555 -25.606  0.00  0.00    +0.000 C 
ENDBRANCH   2   8
BRANCH   1  18
ATOM     18  C   UNL     1      34.721 -22.490 -19.173  0.00  0.00    -0.077 C 
BRANCH  18  19
ATOM     19  C   UNL     1      33.409 -22.525 -18.391  0.00  0.00    -0.019 C 
BRANCH  19  20
ATOM     20  C   UNL     1      33.392 -23.680 -17.392  0.00  0.00    +0.045 C 
BRANCH  20  21
ATOM     21  C   UNL     1      33.557 -23.189 -15.960  0.00  0.00    +0.208 C 
BRANCH  21  22
ATOM     22  O   UNL     1      33.723 -24.296 -15.086  0.00  0.00    -0.452 OA
BRANCH  22  28
ATOM     23  O   UNL     1      40.515 -25.800 -15.664  0.00  0.00    -0.275 OA
ATOM     24  N   UNL     1      38.298 -25.248 -15.436  0.00  0.00    -0.263 N 
ATOM     25  N   UNL     1      35.990 -24.766 -15.247  0.00  0.00    -0.357 NA
ATOM     26  C   UNL     1      37.384 -24.675 -13.275  0.00  0.00    +0.090 C 
ATOM     27  C   UNL     1      38.764 -24.724 -12.690  0.00  0.00    +0.022 C 
ATOM     28  C   UNL     1      34.941 -24.420 -14.468  0.00  0.00    +0.278 C 
ATOM     29  C   UNL     1      37.192 -24.898 -14.638  0.00  0.00    +0.170 C 
ATOM     30  C   UNL     1      39.632 -25.724 -13.436  0.00  0.00    +0.086 C 
ATOM     31  C   UNL     1      36.278 -24.306 -12.509  0.00  0.00    -0.012 C 
ATOM     32  C   UNL     1      35.031 -24.184 -13.108  0.00  0.00    +0.068 C 
ATOM     33  C   UNL     1      39.548 -25.565 -14.940  0.00  0.00    +0.228 C 
ATOM     34  H   UNL     1      38.173 -25.267 -16.412  0.00  0.00    +0.157 HD
ENDBRANCH  22  28
ENDBRANCH  21  22
ENDBRANCH  20  21
ENDBRANCH  19  20
ENDBRANCH  18  19
ENDBRANCH   1  18
TORSDOF 7
ENDMDL
