MODEL 1
REMARK VINA RESULT:     -10.7      0.000      0.000
REMARK  Name = 44200882
REMARK  8 active torsions:
REMARK  status: ('A' for Active; 'I' for Inactive)
REMARK    1  A    between atoms: C_1  and  C_5
REMARK    2  A    between atoms: C_1  and  N_15
REMARK    3  A    between atoms: C_1  and  C_27
REMARK    4  A    between atoms: C_6  and  C_7
REMARK    5  A    between atoms: C_12  and  C_14
REMARK    6  A    between atoms: N_15  and  C_18
REMARK    7  A    between atoms: C_24  and  C_26
REMARK    8  A    between atoms: C_27  and  O_29
REMARK                            x       y       z     vdW  Elec       q    Type
REMARK                         _______ _______ _______ _____ _____    ______ ____
ROOT
ATOM      1  C   UNL     1      34.102 -14.967 -24.195  0.00  0.00    +0.175 C 
ENDROOT
BRANCH   1   5
ATOM      2  O   UNL     1      34.160 -16.929 -22.727  0.00  0.00    -0.418 OA
ATOM      3  N   UNL     1      34.803 -15.029 -21.736  0.00  0.00    -0.110 NA
ATOM      4  N   UNL     1      34.882 -16.046 -20.802  0.00  0.00    -0.107 NA
ATOM      5  C   UNL     1      34.377 -15.590 -22.844  0.00  0.00    +0.246 A 
ATOM      6  C   UNL     1      34.498 -17.136 -21.425  0.00  0.00    +0.250 A 
BRANCH   6   7
ATOM      7  C   UNL     1      34.382 -18.486 -20.954  0.00  0.00    +0.055 C 
ATOM      8  C   UNL     1      35.529 -19.247 -20.728  0.00  0.00    +0.005 C 
ATOM      9  C   UNL     1      33.122 -19.038 -20.723  0.00  0.00    +0.005 C 
ATOM     10  C   UNL     1      35.416 -20.559 -20.270  0.00  0.00    +0.010 C 
ATOM     11  C   UNL     1      33.010 -20.350 -20.265  0.00  0.00    +0.010 C 
ATOM     12  C   UNL     1      34.157 -21.111 -20.038  0.00  0.00    +0.068 C 
BRANCH  12  14
ATOM     13  N   UNL     1      33.947 -23.547 -19.185  0.00  0.00    -0.191 NA
ATOM     14  C   UNL     1      34.041 -22.455 -19.567  0.00  0.00    +0.100 C 
ENDBRANCH  12  14
ENDBRANCH   6   7
ENDBRANCH   1   5
BRANCH   1  15
ATOM     15  N   UNL     1      33.039 -13.985 -24.051  0.00  0.00    -0.325 N 
ATOM     16  H   UNL     1      32.109 -14.306 -24.013  0.00  0.00    +0.147 HD
BRANCH  15  18
ATOM     17 CL   UNL     1      32.188  -9.556 -21.619  0.00  0.00    -0.082 Cl
ATOM     18  C   UNL     1      33.268 -12.627 -23.962  0.00  0.00    +0.042 C 
ATOM     19  C   UNL     1      32.681 -11.865 -22.952  0.00  0.00    +0.003 C 
ATOM     20  C   UNL     1      34.099 -12.018 -24.902  0.00  0.00    +0.015 C 
ATOM     21  C   UNL     1      32.925 -10.494 -22.881  0.00  0.00    +0.064 C 
ATOM     22  C   UNL     1      31.790 -12.539 -21.952  0.00  0.00    +0.033 C 
ATOM     23  C   UNL     1      34.345 -10.647 -24.831  0.00  0.00    +0.012 C 
ATOM     24  C   UNL     1      33.758  -9.884 -23.820  0.00  0.00    +0.079 C 
BRANCH  24  26
ATOM     25  N   UNL     1      34.268  -7.343 -23.764  0.00  0.00    -0.191 NA
ATOM     26  C   UNL     1      34.039  -8.479 -23.789  0.00  0.00    +0.101 C 
ENDBRANCH  24  26
ENDBRANCH  15  18
ENDBRANCH   1  15
BRANCH   1  27
ATOM     27  C   UNL     1      33.708 -15.977 -25.293  0.00  0.00    +0.137 C 
ATOM     28  C   UNL     1      34.744 -17.080 -25.492  0.00  0.00    +0.034 C 
BRANCH  27  29
ATOM     29  O   UNL     1      33.605 -15.286 -26.542  0.00  0.00    -0.382 OA
ATOM     30  H   UNL     1      33.190 -14.421 -26.398  0.00  0.00    +0.210 HD
ENDBRANCH  27  29
ENDBRANCH   1  27
TORSDOF 8
ENDMDL
MODEL 2
REMARK VINA RESULT:     -10.6      2.964      9.335
REMARK  Name = 44200882
REMARK  8 active torsions:
REMARK  status: ('A' for Active; 'I' for Inactive)
REMARK    1  A    between atoms: C_1  and  C_5
REMARK    2  A    between atoms: C_1  and  N_15
REMARK    3  A    between atoms: C_1  and  C_27
REMARK    4  A    between atoms: C_6  and  C_7
REMARK    5  A    between atoms: C_12  and  C_14
REMARK    6  A    between atoms: N_15  and  C_18
REMARK    7  A    between atoms: C_24  and  C_26
REMARK    8  A    between atoms: C_27  and  O_29
REMARK                            x       y       z     vdW  Elec       q    Type
REMARK                         _______ _______ _______ _____ _____    ______ ____
ROOT
ATOM      1  C   UNL     1      33.864 -16.948 -22.672  0.00  0.00    +0.175 C 
ENDROOT
BRANCH   1   5
ATOM      2  O   UNL     1      33.217 -14.584 -22.720  0.00  0.00    -0.418 OA
ATOM      3  N   UNL     1      33.005 -15.547 -20.711  0.00  0.00    -0.110 NA
ATOM      4  N   UNL     1      32.611 -14.226 -20.596  0.00  0.00    -0.107 NA
ATOM      5  C   UNL     1      33.351 -15.711 -21.967  0.00  0.00    +0.246 A 
ATOM      6  C   UNL     1      32.751 -13.704 -21.792  0.00  0.00    +0.250 A 
BRANCH   6   7
ATOM      7  C   UNL     1      32.493 -12.375 -22.264  0.00  0.00    +0.055 C 
ATOM      8  C   UNL     1      33.269 -11.835 -23.289  0.00  0.00    +0.005 C 
ATOM      9  C   UNL     1      31.465 -11.621 -21.696  0.00  0.00    +0.005 C 
ATOM     10  C   UNL     1      33.018 -10.542 -23.747  0.00  0.00    +0.010 C 
ATOM     11  C   UNL     1      31.214 -10.328 -22.155  0.00  0.00    +0.010 C 
ATOM     12  C   UNL     1      31.990  -9.788 -23.182  0.00  0.00    +0.068 C 
BRANCH  12  14
ATOM     13  N   UNL     1      31.521  -7.389 -24.035  0.00  0.00    -0.191 NA
ATOM     14  C   UNL     1      31.731  -8.465 -23.652  0.00  0.00    +0.100 C 
ENDBRANCH  12  14
ENDBRANCH   6   7
ENDBRANCH   1   5
BRANCH   1  15
ATOM     15  N   UNL     1      34.858 -17.590 -21.826  0.00  0.00    -0.325 N 
ATOM     16  H   UNL     1      35.734 -17.153 -21.722  0.00  0.00    +0.147 HD
BRANCH  15  18
ATOM     17 CL   UNL     1      36.790 -21.731 -19.508  0.00  0.00    -0.082 Cl
ATOM     18  C   UNL     1      34.636 -18.780 -21.163  0.00  0.00    +0.042 C 
ATOM     19  C   UNL     1      35.701 -19.564 -20.721  0.00  0.00    +0.003 C 
ATOM     20  C   UNL     1      33.324 -19.194 -20.936  0.00  0.00    +0.015 C 
ATOM     21  C   UNL     1      35.455 -20.763 -20.052  0.00  0.00    +0.064 C 
ATOM     22  C   UNL     1      37.104 -19.101 -20.975  0.00  0.00    +0.033 C 
ATOM     23  C   UNL     1      33.076 -20.392 -20.267  0.00  0.00    +0.012 C 
ATOM     24  C   UNL     1      34.142 -21.177 -19.825  0.00  0.00    +0.079 C 
BRANCH  24  26
ATOM     25  N   UNL     1      33.590 -23.391 -18.592  0.00  0.00    -0.191 NA
ATOM     26  C   UNL     1      33.837 -22.400 -19.143  0.00  0.00    +0.101 C 
ENDBRANCH  24  26
ENDBRANCH  15  18
ENDBRANCH   1  15
BRANCH   1  27
ATOM     27  C   UNL     1      34.481 -16.680 -24.060  0.00  0.00    +0.137 C 
ATOM     28  C   UNL     1      34.714 -17.952 -24.868  0.00  0.00    +0.034 C 
BRANCH  27  29
ATOM     29  O   UNL     1      35.763 -16.068 -23.886  0.00  0.00    -0.382 OA
ATOM     30  H   UNL     1      35.841 -15.736 -22.977  0.00  0.00    +0.210 HD
ENDBRANCH  27  29
ENDBRANCH   1  27
TORSDOF 8
ENDMDL
MODEL 3
REMARK VINA RESULT:     -10.6      6.728     13.049
REMARK  Name = 44200882
REMARK  8 active torsions:
REMARK  status: ('A' for Active; 'I' for Inactive)
REMARK    1  A    between atoms: C_1  and  C_5
REMARK    2  A    between atoms: C_1  and  N_15
REMARK    3  A    between atoms: C_1  and  C_27
REMARK    4  A    between atoms: C_6  and  C_7
REMARK    5  A    between atoms: C_12  and  C_14
REMARK    6  A    between atoms: N_15  and  C_18
REMARK    7  A    between atoms: C_24  and  C_26
REMARK    8  A    between atoms: C_27  and  O_29
REMARK                            x       y       z     vdW  Elec       q    Type
REMARK                         _______ _______ _______ _____ _____    ______ ____
ROOT
ATOM      1  C   UNL     1      33.791 -23.540 -15.017  0.00  0.00    +0.175 C 
ENDROOT
BRANCH   1   5
ATOM      2  O   UNL     1      34.162 -22.304 -17.101  0.00  0.00    -0.418 OA
ATOM      3  N   UNL     1      33.610 -24.451 -17.401  0.00  0.00    -0.110 NA
ATOM      4  N   UNL     1      33.789 -23.878 -18.646  0.00  0.00    -0.107 NA
ATOM      5  C   UNL     1      33.838 -23.496 -16.529  0.00  0.00    +0.246 A 
ATOM      6  C   UNL     1      34.109 -22.625 -18.423  0.00  0.00    +0.250 A 
BRANCH   6   7
ATOM      7  C   UNL     1      34.408 -21.563 -19.338  0.00  0.00    +0.055 C 
ATOM      8  C   UNL     1      33.372 -20.850 -19.942  0.00  0.00    +0.005 C 
ATOM      9  C   UNL     1      35.735 -21.242 -19.625  0.00  0.00    +0.005 C 
ATOM     10  C   UNL     1      33.664 -19.817 -20.833  0.00  0.00    +0.010 C 
ATOM     11  C   UNL     1      36.026 -20.209 -20.516  0.00  0.00    +0.010 C 
ATOM     12  C   UNL     1      34.990 -19.495 -21.119  0.00  0.00    +0.068 C 
BRANCH  12  14
ATOM     13  N   UNL     1      35.530 -17.575 -22.770  0.00  0.00    -0.191 NA
ATOM     14  C   UNL     1      35.288 -18.436 -22.030  0.00  0.00    +0.100 C 
ENDBRANCH  12  14
ENDBRANCH   6   7
ENDBRANCH   1   5
BRANCH   1  15
ATOM     15  N   UNL     1      34.307 -24.823 -14.569  0.00  0.00    -0.325 N 
ATOM     16  H   UNL     1      33.663 -25.532 -14.341  0.00  0.00    +0.147 HD
BRANCH  15  18
ATOM     17 CL   UNL     1      38.719 -24.072 -12.075  0.00  0.00    -0.082 Cl
ATOM     18  C   UNL     1      35.654 -25.099 -14.449  0.00  0.00    +0.042 C 
ATOM     19  C   UNL     1      36.418 -24.514 -13.439  0.00  0.00    +0.003 C 
ATOM     20  C   UNL     1      36.249 -25.978 -15.354  0.00  0.00    +0.015 C 
ATOM     21  C   UNL     1      37.778 -24.807 -13.335  0.00  0.00    +0.064 C 
ATOM     22  C   UNL     1      35.761 -23.573 -12.477  0.00  0.00    +0.033 C 
ATOM     23  C   UNL     1      37.608 -26.271 -15.250  0.00  0.00    +0.012 C 
ATOM     24  C   UNL     1      38.373 -25.686 -14.241  0.00  0.00    +0.079 C 
BRANCH  24  26
ATOM     25  N   UNL     1      40.893 -26.288 -14.124  0.00  0.00    -0.191 NA
ATOM     26  C   UNL     1      39.766 -26.018 -14.176  0.00  0.00    +0.101 C 
ENDBRANCH  24  26
ENDBRANCH  15  18
ENDBRANCH   1  15
BRANCH   1  27
ATOM     27  C   UNL     1      32.385 -23.326 -14.418  0.00  0.00    +0.137 C 
ATOM     28  C   UNL     1      31.796 -24.593 -13.807  0.00  0.00    +0.034 C 
BRANCH  27  29
ATOM     29  O   UNL     1      31.493 -22.926 -15.464  0.00  0.00    -0.382 OA
ATOM     30  H   UNL     1      31.889 -23.137 -16.324  0.00  0.00    +0.210 HD
ENDBRANCH  27  29
ENDBRANCH   1  27
TORSDOF 8
ENDMDL
MODEL 4
REMARK VINA RESULT:     -10.4      2.868      9.602
REMARK  Name = 44200882
REMARK  8 active torsions:
REMARK  status: ('A' for Active; 'I' for Inactive)
REMARK    1  A    between atoms: C_1  and  C_5
REMARK    2  A    between atoms: C_1  and  N_15
REMARK    3  A    between atoms: C_1  and  C_27
REMARK    4  A    between atoms: C_6  and  C_7
REMARK    5  A    between atoms: C_12  and  C_14
REMARK    6  A    between atoms: N_15  and  C_18
REMARK    7  A    between atoms: C_24  and  C_26
REMARK    8  A    between atoms: C_27  and  O_29
REMARK                            x       y       z     vdW  Elec       q    Type
REMARK                         _______ _______ _______ _____ _____    ______ ____
ROOT
ATOM      1  C   UNL     1      34.778 -16.418 -22.059  0.00  0.00    +0.175 C 
ENDROOT
BRANCH   1   5
ATOM      2  O   UNL     1      34.277 -14.114 -22.727  0.00  0.00    -0.418 OA
ATOM      3  N   UNL     1      33.804 -15.640 -24.293  0.00  0.00    -0.110 NA
ATOM      4  N   UNL     1      33.475 -14.394 -24.797  0.00  0.00    -0.107 NA
ATOM      5  C   UNL     1      34.267 -15.427 -23.083  0.00  0.00    +0.246 A 
ATOM      6  C   UNL     1      33.768 -13.535 -23.849  0.00  0.00    +0.250 A 
BRANCH   6   7
ATOM      7  C   UNL     1      33.638 -12.107 -23.814  0.00  0.00    +0.055 C 
ATOM      8  C   UNL     1      32.679 -11.514 -22.993  0.00  0.00    +0.005 C 
ATOM      9  C   UNL     1      34.471 -11.312 -24.601  0.00  0.00    +0.005 C 
ATOM     10  C   UNL     1      32.553 -10.125 -22.960  0.00  0.00    +0.010 C 
ATOM     11  C   UNL     1      34.344  -9.923 -24.567  0.00  0.00    +0.010 C 
ATOM     12  C   UNL     1      33.386  -9.329 -23.746  0.00  0.00    +0.068 C 
BRANCH  12  14
ATOM     13  N   UNL     1      33.154  -6.751 -23.681  0.00  0.00    -0.191 NA
ATOM     14  C   UNL     1      33.258  -7.907 -23.710  0.00  0.00    +0.100 C 
ENDBRANCH  12  14
ENDBRANCH   6   7
ENDBRANCH   1   5
BRANCH   1  15
ATOM     15  N   UNL     1      34.483 -17.765 -22.523  0.00  0.00    -0.325 N 
ATOM     16  H   UNL     1      34.366 -17.910 -23.490  0.00  0.00    +0.147 HD
BRANCH  15  18
ATOM     17 CL   UNL     1      36.748 -21.335 -19.629  0.00  0.00    -0.082 Cl
ATOM     18  C   UNL     1      34.359 -18.849 -21.678  0.00  0.00    +0.042 C 
ATOM     19  C   UNL     1      35.485 -19.472 -21.142  0.00  0.00    +0.003 C 
ATOM     20  C   UNL     1      33.084 -19.318 -21.361  0.00  0.00    +0.015 C 
ATOM     21  C   UNL     1      35.338 -20.566 -20.289  0.00  0.00    +0.064 C 
ATOM     22  C   UNL     1      36.846 -18.953 -21.494  0.00  0.00    +0.033 C 
ATOM     23  C   UNL     1      32.936 -20.411 -20.509  0.00  0.00    +0.012 C 
ATOM     24  C   UNL     1      34.063 -21.036 -19.972  0.00  0.00    +0.079 C 
BRANCH  24  26
ATOM     25  N   UNL     1      33.695 -23.064 -18.398  0.00  0.00    -0.191 NA
ATOM     26  C   UNL     1      33.859 -22.156 -19.102  0.00  0.00    +0.101 C 
ENDBRANCH  24  26
ENDBRANCH  15  18
ENDBRANCH   1  15
BRANCH   1  27
ATOM     27  C   UNL     1      34.188 -16.232 -20.645  0.00  0.00    +0.137 C 
ATOM     28  C   UNL     1      32.737 -15.762 -20.658  0.00  0.00    +0.034 C 
BRANCH  27  29
ATOM     29  O   UNL     1      34.937 -15.222 -19.961  0.00  0.00    -0.382 OA
ATOM     30  H   UNL     1      34.678 -15.207 -19.026  0.00  0.00    +0.210 HD
ENDBRANCH  27  29
ENDBRANCH   1  27
TORSDOF 8
ENDMDL
MODEL 5
REMARK VINA RESULT:     -10.3      6.961     11.929
REMARK  Name = 44200882
REMARK  8 active torsions:
REMARK  status: ('A' for Active; 'I' for Inactive)
REMARK    1  A    between atoms: C_1  and  C_5
REMARK    2  A    between atoms: C_1  and  N_15
REMARK    3  A    between atoms: C_1  and  C_27
REMARK    4  A    between atoms: C_6  and  C_7
REMARK    5  A    between atoms: C_12  and  C_14
REMARK    6  A    between atoms: N_15  and  C_18
REMARK    7  A    between atoms: C_24  and  C_26
REMARK    8  A    between atoms: C_27  and  O_29
REMARK                            x       y       z     vdW  Elec       q    Type
REMARK                         _______ _______ _______ _____ _____    ______ ____
ROOT
ATOM      1  C   UNL     1      34.735 -24.236 -15.377  0.00  0.00    +0.175 C 
ENDROOT
BRANCH   1   5
ATOM      2  O   UNL     1      34.983 -22.757 -17.316  0.00  0.00    -0.418 OA
ATOM      3  N   UNL     1      36.841 -22.968 -16.086  0.00  0.00    -0.110 NA
ATOM      4  N   UNL     1      37.119 -22.115 -17.138  0.00  0.00    -0.107 NA
ATOM      5  C   UNL     1      35.584 -23.318 -16.230  0.00  0.00    +0.246 A 
ATOM      6  C   UNL     1      36.007 -22.021 -17.829  0.00  0.00    +0.250 A 
BRANCH   6   7
ATOM      7  C   UNL     1      35.709 -21.276 -19.017  0.00  0.00    +0.055 C 
ATOM      8  C   UNL     1      36.723 -20.586 -19.681  0.00  0.00    +0.005 C 
ATOM      9  C   UNL     1      34.404 -21.241 -19.510  0.00  0.00    +0.005 C 
ATOM     10  C   UNL     1      36.433 -19.862 -20.837  0.00  0.00    +0.010 C 
ATOM     11  C   UNL     1      34.114 -20.516 -20.666  0.00  0.00    +0.010 C 
ATOM     12  C   UNL     1      35.129 -19.827 -21.330  0.00  0.00    +0.068 C 
BRANCH  12  14
ATOM     13  N   UNL     1      34.591 -18.485 -23.478  0.00  0.00    -0.191 NA
ATOM     14  C   UNL     1      34.832 -19.087 -22.515  0.00  0.00    +0.100 C 
ENDBRANCH  12  14
ENDBRANCH   6   7
ENDBRANCH   1   5
BRANCH   1  15
ATOM     15  N   UNL     1      33.637 -23.468 -14.813  0.00  0.00    -0.325 N 
ATOM     16  H   UNL     1      33.817 -22.906 -14.025  0.00  0.00    +0.147 HD
BRANCH  15  18
ATOM     17 CL   UNL     1      28.851 -25.281 -14.556  0.00  0.00    -0.082 Cl
ATOM     18  C   UNL     1      32.355 -23.487 -15.324  0.00  0.00    +0.042 C 
ATOM     19  C   UNL     1      31.365 -24.282 -14.748  0.00  0.00    +0.003 C 
ATOM     20  C   UNL     1      32.058 -22.695 -16.433  0.00  0.00    +0.015 C 
ATOM     21  C   UNL     1      30.076 -24.286 -15.281  0.00  0.00    +0.064 C 
ATOM     22  C   UNL     1      31.705 -25.125 -13.557  0.00  0.00    +0.033 C 
ATOM     23  C   UNL     1      30.769 -22.698 -16.967  0.00  0.00    +0.012 C 
ATOM     24  C   UNL     1      29.778 -23.494 -16.391  0.00  0.00    +0.079 C 
BRANCH  24  26
ATOM     25  N   UNL     1      27.410 -23.438 -17.448  0.00  0.00    -0.191 NA
ATOM     26  C   UNL     1      28.469 -23.464 -16.975  0.00  0.00    +0.101 C 
ENDBRANCH  24  26
ENDBRANCH  15  18
ENDBRANCH   1  15
BRANCH   1  27
ATOM     27  C   UNL     1      35.502 -24.933 -14.234  0.00  0.00    +0.137 C 
ATOM     28  C   UNL     1      35.848 -23.991 -13.084  0.00  0.00    +0.034 C 
BRANCH  27  29
ATOM     29  O   UNL     1      36.746 -25.425 -14.744  0.00  0.00    -0.382 OA
ATOM     30  H   UNL     1      37.159 -24.744 -15.299  0.00  0.00    +0.210 HD
ENDBRANCH  27  29
ENDBRANCH   1  27
TORSDOF 8
ENDMDL
MODEL 6
REMARK VINA RESULT:     -10.2      1.119      2.007
REMARK  Name = 44200882
REMARK  8 active torsions:
REMARK  status: ('A' for Active; 'I' for Inactive)
REMARK    1  A    between atoms: C_1  and  C_5
REMARK    2  A    between atoms: C_1  and  N_15
REMARK    3  A    between atoms: C_1  and  C_27
REMARK    4  A    between atoms: C_6  and  C_7
REMARK    5  A    between atoms: C_12  and  C_14
REMARK    6  A    between atoms: N_15  and  C_18
REMARK    7  A    between atoms: C_24  and  C_26
REMARK    8  A    between atoms: C_27  and  O_29
REMARK                            x       y       z     vdW  Elec       q    Type
REMARK                         _______ _______ _______ _____ _____    ______ ____
ROOT
ATOM      1  C   UNL     1      33.895 -14.959 -24.124  0.00  0.00    +0.175 C 
ENDROOT
BRANCH   1   5
ATOM      2  O   UNL     1      34.030 -16.935 -22.680  0.00  0.00    -0.418 OA
ATOM      3  N   UNL     1      34.776 -15.055 -21.723  0.00  0.00    -0.110 NA
ATOM      4  N   UNL     1      34.907 -16.082 -20.807  0.00  0.00    -0.107 NA
ATOM      5  C   UNL     1      34.260 -15.598 -22.802  0.00  0.00    +0.246 A 
ATOM      6  C   UNL     1      34.460 -17.159 -21.409  0.00  0.00    +0.250 A 
BRANCH   6   7
ATOM      7  C   UNL     1      34.358 -18.511 -20.942  0.00  0.00    +0.055 C 
ATOM      8  C   UNL     1      33.104 -19.073 -20.701  0.00  0.00    +0.005 C 
ATOM      9  C   UNL     1      35.512 -19.265 -20.728  0.00  0.00    +0.005 C 
ATOM     10  C   UNL     1      33.005 -20.388 -20.247  0.00  0.00    +0.010 C 
ATOM     11  C   UNL     1      35.412 -20.580 -20.274  0.00  0.00    +0.010 C 
ATOM     12  C   UNL     1      34.158 -21.142 -20.034  0.00  0.00    +0.068 C 
BRANCH  12  14
ATOM     13  N   UNL     1      33.974 -23.584 -19.194  0.00  0.00    -0.191 NA
ATOM     14  C   UNL     1      34.057 -22.489 -19.571  0.00  0.00    +0.100 C 
ENDBRANCH  12  14
ENDBRANCH   6   7
ENDBRANCH   1   5
BRANCH   1  15
ATOM     15  N   UNL     1      32.643 -14.236 -23.965  0.00  0.00    -0.325 N 
ATOM     16  H   UNL     1      31.822 -14.640 -24.328  0.00  0.00    +0.147 HD
BRANCH  15  18
ATOM     17 CL   UNL     1      33.765  -9.237 -23.914  0.00  0.00    -0.082 Cl
ATOM     18  C   UNL     1      32.547 -13.014 -23.332  0.00  0.00    +0.042 C 
ATOM     19  C   UNL     1      33.136 -11.874 -23.879  0.00  0.00    +0.003 C 
ATOM     20  C   UNL     1      31.848 -12.928 -22.128  0.00  0.00    +0.015 C 
ATOM     21  C   UNL     1      33.026 -10.648 -23.223  0.00  0.00    +0.064 C 
ATOM     22  C   UNL     1      33.882 -11.987 -25.173  0.00  0.00    +0.033 C 
ATOM     23  C   UNL     1      31.738 -11.703 -21.471  0.00  0.00    +0.012 C 
ATOM     24  C   UNL     1      32.327 -10.563 -22.018  0.00  0.00    +0.079 C 
BRANCH  24  26
ATOM     25  N   UNL     1      32.075  -8.326 -20.730  0.00  0.00    -0.191 NA
ATOM     26  C   UNL     1      32.187  -9.327 -21.306  0.00  0.00    +0.101 C 
ENDBRANCH  24  26
ENDBRANCH  15  18
ENDBRANCH   1  15
BRANCH   1  27
ATOM     27  C   UNL     1      33.758 -15.953 -25.295  0.00  0.00    +0.137 C 
ATOM     28  C   UNL     1      34.936 -16.916 -25.405  0.00  0.00    +0.034 C 
BRANCH  27  29
ATOM     29  O   UNL     1      33.717 -15.219 -26.523  0.00  0.00    -0.382 OA
ATOM     30  H   UNL     1      33.928 -15.812 -27.261  0.00  0.00    +0.210 HD
ENDBRANCH  27  29
ENDBRANCH   1  27
TORSDOF 8
ENDMDL
MODEL 7
REMARK VINA RESULT:     -10.0      3.271      9.406
REMARK  Name = 44200882
REMARK  8 active torsions:
REMARK  status: ('A' for Active; 'I' for Inactive)
REMARK    1  A    between atoms: C_1  and  C_5
REMARK    2  A    between atoms: C_1  and  N_15
REMARK    3  A    between atoms: C_1  and  C_27
REMARK    4  A    between atoms: C_6  and  C_7
REMARK    5  A    between atoms: C_12  and  C_14
REMARK    6  A    between atoms: N_15  and  C_18
REMARK    7  A    between atoms: C_24  and  C_26
REMARK    8  A    between atoms: C_27  and  O_29
REMARK                            x       y       z     vdW  Elec       q    Type
REMARK                         _______ _______ _______ _____ _____    ______ ____
ROOT
ATOM      1  C   UNL     1      32.854 -13.859 -23.835  0.00  0.00    +0.175 C 
ENDROOT
BRANCH   1   5
ATOM      2  O   UNL     1      32.319 -11.539 -23.252  0.00  0.00    -0.418 OA
ATOM      3  N   UNL     1      32.162 -12.969 -21.538  0.00  0.00    -0.110 NA
ATOM      4  N   UNL     1      31.837 -11.708 -21.074  0.00  0.00    -0.107 NA
ATOM      5  C   UNL     1      32.436 -12.823 -22.814  0.00  0.00    +0.246 A 
ATOM      6  C   UNL     1      31.942 -10.907 -22.107  0.00  0.00    +0.250 A 
BRANCH   6   7
ATOM      7  C   UNL     1      31.724  -9.493 -22.215  0.00  0.00    +0.055 C 
ATOM      8  C   UNL     1      31.187  -8.957 -23.386  0.00  0.00    +0.005 C 
ATOM      9  C   UNL     1      32.048  -8.654 -21.149  0.00  0.00    +0.005 C 
ATOM     10  C   UNL     1      30.976  -7.582 -23.491  0.00  0.00    +0.010 C 
ATOM     11  C   UNL     1      31.836  -7.279 -21.254  0.00  0.00    +0.010 C 
ATOM     12  C   UNL     1      31.299  -6.743 -22.424  0.00  0.00    +0.068 C 
BRANCH  12  14
ATOM     13  N   UNL     1      30.902  -4.192 -22.618  0.00  0.00    -0.191 NA
ATOM     14  C   UNL     1      31.080  -5.336 -22.531  0.00  0.00    +0.100 C 
ENDBRANCH  12  14
ENDBRANCH   6   7
ENDBRANCH   1   5
BRANCH   1  15
ATOM     15  N   UNL     1      34.205 -14.301 -23.526  0.00  0.00    -0.325 N 
ATOM     16  H   UNL     1      34.957 -13.719 -23.782  0.00  0.00    +0.147 HD
BRANCH  15  18
ATOM     17 CL   UNL     1      35.208 -19.313 -23.891  0.00  0.00    -0.082 Cl
ATOM     18  C   UNL     1      34.487 -15.495 -22.894  0.00  0.00    +0.042 C 
ATOM     19  C   UNL     1      34.683 -16.666 -23.627  0.00  0.00    +0.003 C 
ATOM     20  C   UNL     1      34.575 -15.520 -21.503  0.00  0.00    +0.015 C 
ATOM     21  C   UNL     1      34.967 -17.862 -22.968  0.00  0.00    +0.064 C 
ATOM     22  C   UNL     1      34.584 -16.618 -25.121  0.00  0.00    +0.033 C 
ATOM     23  C   UNL     1      34.860 -16.715 -20.843  0.00  0.00    +0.012 C 
ATOM     24  C   UNL     1      35.056 -17.887 -21.576  0.00  0.00    +0.079 C 
BRANCH  24  26
ATOM     25  N   UNL     1      35.579 -20.064 -20.267  0.00  0.00    -0.191 NA
ATOM     26  C   UNL     1      35.345 -19.090 -20.853  0.00  0.00    +0.101 C 
ENDBRANCH  24  26
ENDBRANCH  15  18
ENDBRANCH   1  15
BRANCH   1  27
ATOM     27  C   UNL     1      32.807 -13.367 -25.296  0.00  0.00    +0.137 C 
ATOM     28  C   UNL     1      32.888 -14.501 -26.313  0.00  0.00    +0.034 C 
BRANCH  27  29
ATOM     29  O   UNL     1      33.938 -12.523 -25.537  0.00  0.00    -0.382 OA
ATOM     30  H   UNL     1      33.689 -11.820 -26.159  0.00  0.00    +0.210 HD
ENDBRANCH  27  29
ENDBRANCH   1  27
TORSDOF 8
ENDMDL
MODEL 8
REMARK VINA RESULT:      -9.9      3.014      5.400
REMARK  Name = 44200882
REMARK  8 active torsions:
REMARK  status: ('A' for Active; 'I' for Inactive)
REMARK    1  A    between atoms: C_1  and  C_5
REMARK    2  A    between atoms: C_1  and  N_15
REMARK    3  A    between atoms: C_1  and  C_27
REMARK    4  A    between atoms: C_6  and  C_7
REMARK    5  A    between atoms: C_12  and  C_14
REMARK    6  A    between atoms: N_15  and  C_18
REMARK    7  A    between atoms: C_24  and  C_26
REMARK    8  A    between atoms: C_27  and  O_29
REMARK                            x       y       z     vdW  Elec       q    Type
REMARK                         _______ _______ _______ _____ _____    ______ ____
ROOT
ATOM      1  C   UNL     1      31.713 -10.188 -22.511  0.00  0.00    +0.175 C 
ENDROOT
BRANCH   1   5
ATOM      2  O   UNL     1      32.846 -12.354 -22.324  0.00  0.00    -0.418 OA
ATOM      3  N   UNL     1      33.239 -11.283 -24.249  0.00  0.00    -0.110 NA
ATOM      4  N   UNL     1      33.933 -12.479 -24.276  0.00  0.00    -0.107 NA
ATOM      5  C   UNL     1      32.619 -11.252 -23.092  0.00  0.00    +0.246 A 
ATOM      6  C   UNL     1      33.674 -13.070 -23.133  0.00  0.00    +0.250 A 
BRANCH   6   7
ATOM      7  C   UNL     1      34.121 -14.330 -22.614  0.00  0.00    +0.055 C 
ATOM      8  C   UNL     1      34.069 -14.578 -21.243  0.00  0.00    +0.005 C 
ATOM      9  C   UNL     1      34.607 -15.308 -23.482  0.00  0.00    +0.005 C 
ATOM     10  C   UNL     1      34.503 -15.804 -20.739  0.00  0.00    +0.010 C 
ATOM     11  C   UNL     1      35.042 -16.534 -22.978  0.00  0.00    +0.010 C 
ATOM     12  C   UNL     1      34.988 -16.783 -21.606  0.00  0.00    +0.068 C 
BRANCH  12  14
ATOM     13  N   UNL     1      35.791 -19.060 -20.672  0.00  0.00    -0.191 NA
ATOM     14  C   UNL     1      35.431 -18.039 -21.091  0.00  0.00    +0.100 C 
ENDBRANCH  12  14
ENDBRANCH   6   7
ENDBRANCH   1   5
BRANCH   1  15
ATOM     15  N   UNL     1      32.489  -8.977 -22.300  0.00  0.00    -0.325 N 
ATOM     16  H   UNL     1      33.113  -8.948 -21.539  0.00  0.00    +0.147 HD
BRANCH  15  18
ATOM     17 CL   UNL     1      34.701  -5.859 -25.712  0.00  0.00    -0.082 Cl
ATOM     18  C   UNL     1      32.398  -7.865 -23.113  0.00  0.00    +0.042 C 
ATOM     19  C   UNL     1      33.471  -7.469 -23.910  0.00  0.00    +0.003 C 
ATOM     20  C   UNL     1      31.209  -7.135 -23.130  0.00  0.00    +0.015 C 
ATOM     21  C   UNL     1      33.357  -6.342 -24.725  0.00  0.00    +0.064 C 
ATOM     22  C   UNL     1      34.739  -8.267 -23.878  0.00  0.00    +0.033 C 
ATOM     23  C   UNL     1      31.094  -6.009 -23.944  0.00  0.00    +0.012 C 
ATOM     24  C   UNL     1      32.168  -5.612 -24.742  0.00  0.00    +0.079 C 
BRANCH  24  26
ATOM     25  N   UNL     1      31.869  -3.506 -26.224  0.00  0.00    -0.191 NA
ATOM     26  C   UNL     1      32.002  -4.448 -25.561  0.00  0.00    +0.101 C 
ENDBRANCH  24  26
ENDBRANCH  15  18
ENDBRANCH   1  15
BRANCH   1  27
ATOM     27  C   UNL     1      31.031 -10.587 -21.186  0.00  0.00    +0.137 C 
ATOM     28  C   UNL     1      31.991 -10.602 -20.000  0.00  0.00    +0.034 C 
BRANCH  27  29
ATOM     29  O   UNL     1      30.519 -11.917 -21.311  0.00  0.00    -0.382 OA
ATOM     30  H   UNL     1      30.475 -12.159 -22.250  0.00  0.00    +0.210 HD
ENDBRANCH  27  29
ENDBRANCH   1  27
TORSDOF 8
ENDMDL
MODEL 9
REMARK VINA RESULT:      -9.7      3.796     10.744
REMARK  Name = 44200882
REMARK  8 active torsions:
REMARK  status: ('A' for Active; 'I' for Inactive)
REMARK    1  A    between atoms: C_1  and  C_5
REMARK    2  A    between atoms: C_1  and  N_15
REMARK    3  A    between atoms: C_1  and  C_27
REMARK    4  A    between atoms: C_6  and  C_7
REMARK    5  A    between atoms: C_12  and  C_14
REMARK    6  A    between atoms: N_15  and  C_18
REMARK    7  A    between atoms: C_24  and  C_26
REMARK    8  A    between atoms: C_27  and  O_29
REMARK                            x       y       z     vdW  Elec       q    Type
REMARK                         _______ _______ _______ _____ _____    ______ ____
ROOT
ATOM      1  C   UNL     1      32.305 -11.095 -21.635  0.00  0.00    +0.175 C 
ENDROOT
BRANCH   1   5
ATOM      2  O   UNL     1      32.108  -8.848 -22.594  0.00  0.00    -0.418 OA
ATOM      3  N   UNL     1      33.638 -10.135 -23.597  0.00  0.00    -0.110 NA
ATOM      4  N   UNL     1      33.630  -8.907 -24.232  0.00  0.00    -0.107 NA
ATOM      5  C   UNL     1      32.734 -10.055 -22.648  0.00  0.00    +0.246 A 
ATOM      6  C   UNL     1      32.723  -8.189 -23.613  0.00  0.00    +0.250 A 
BRANCH   6   7
ATOM      7  C   UNL     1      32.288  -6.841 -23.841  0.00  0.00    +0.055 C 
ATOM      8  C   UNL     1      31.362  -6.252 -22.981  0.00  0.00    +0.005 C 
ATOM      9  C   UNL     1      32.791  -6.120 -24.924  0.00  0.00    +0.005 C 
ATOM     10  C   UNL     1      30.939  -4.941 -23.203  0.00  0.00    +0.010 C 
ATOM     11  C   UNL     1      32.368  -4.809 -25.146  0.00  0.00    +0.010 C 
ATOM     12  C   UNL     1      31.443  -4.219 -24.285  0.00  0.00    +0.068 C 
BRANCH  12  14
ATOM     13  N   UNL     1      30.660  -1.786 -24.695  0.00  0.00    -0.191 NA
ATOM     14  C   UNL     1      31.011  -2.877 -24.511  0.00  0.00    +0.100 C 
ENDBRANCH  12  14
ENDBRANCH   6   7
ENDBRANCH   1   5
BRANCH   1  15
ATOM     15  N   UNL     1      32.069 -12.353 -22.326  0.00  0.00    -0.325 N 
ATOM     16  H   UNL     1      31.372 -12.380 -23.021  0.00  0.00    +0.147 HD
BRANCH  15  18
ATOM     17 CL   UNL     1      34.999 -16.187 -24.048  0.00  0.00    -0.082 Cl
ATOM     18  C   UNL     1      32.773 -13.509 -22.058  0.00  0.00    +0.042 C 
ATOM     19  C   UNL     1      33.452 -14.186 -23.071  0.00  0.00    +0.003 C 
ATOM     20  C   UNL     1      32.797 -13.999 -20.753  0.00  0.00    +0.015 C 
ATOM     21  C   UNL     1      34.157 -15.353 -22.779  0.00  0.00    +0.064 C 
ATOM     22  C   UNL     1      33.413 -13.643 -24.467  0.00  0.00    +0.033 C 
ATOM     23  C   UNL     1      33.503 -15.166 -20.460  0.00  0.00    +0.012 C 
ATOM     24  C   UNL     1      34.183 -15.844 -21.473  0.00  0.00    +0.079 C 
BRANCH  24  26
ATOM     25  N   UNL     1      35.467 -18.005 -20.838  0.00  0.00    -0.191 NA
ATOM     26  C   UNL     1      34.892 -17.039 -21.122  0.00  0.00    +0.101 C 
ENDBRANCH  24  26
ENDBRANCH  15  18
ENDBRANCH   1  15
BRANCH   1  27
ATOM     27  C   UNL     1      31.043 -10.717 -20.831  0.00  0.00    +0.137 C 
ATOM     28  C   UNL     1      31.222 -10.880 -19.325  0.00  0.00    +0.034 C 
BRANCH  27  29
ATOM     29  O   UNL     1      29.975 -11.590 -21.211  0.00  0.00    -0.382 OA
ATOM     30  H   UNL     1      29.193 -11.398 -20.668  0.00  0.00    +0.210 HD
ENDBRANCH  27  29
ENDBRANCH   1  27
TORSDOF 8
ENDMDL
