MODEL 1
REMARK VINA RESULT:      -5.7      0.000      0.000
REMARK  Name = 44272391
REMARK  6 active torsions:
REMARK  status: ('A' for Active; 'I' for Inactive)
REMARK    1  A    between atoms: CA_1  and  N_2
REMARK    2  A    between atoms: CA_1  and  C_8
REMARK    3  A    between atoms: CA_1  and  CB_9
REMARK    4  A    between atoms: CB_9  and  CG_10
REMARK    5  A    between atoms: CG_10  and  CD_12
REMARK    6  A    between atoms: CD_12  and  OE1_13
REMARK                            x       y       z     vdW  Elec       q    Type
REMARK                         _______ _______ _______ _____ _____    ______ ____
ROOT
ATOM      1  CA  GLU A   1      37.298 -24.585 -12.848  0.00  0.00    +0.041 C 
ENDROOT
BRANCH   1   2
ATOM      2  N   GLU A   1      37.217 -23.716 -14.065  0.00  0.00    +0.389 N 
ATOM      3  H1  GLU A   1      37.996 -23.056 -14.064  0.00  0.00    -0.088 HD
ATOM      4  H2  GLU A   1      36.336 -23.202 -14.058  0.00  0.00    -0.088 HD
ATOM      5  H3  GLU A   1      37.266 -24.297 -14.903  0.00  0.00    -0.088 HD
ENDBRANCH   1   2
BRANCH   1   8
ATOM      6  O   GLU A   1      36.781 -24.017 -10.605  0.00  0.00    -0.248 OA
ATOM      7  OXT GLU A   1      38.511 -22.950 -11.652  0.00  0.00    -0.248 OA
ATOM      8  C   GLU A   1      37.555 -23.773 -11.573  0.00  0.00    +0.345 C 
ENDBRANCH   1   8
BRANCH   1   9
ATOM      9  CB  GLU A   1      38.396 -25.623 -13.112  0.00  0.00    +0.001 C 
BRANCH   9  10
ATOM     10  CG  GLU A   1      38.750 -25.767 -14.597  0.00  0.00    +0.108 C 
BRANCH  10  12
ATOM     11  OE2 GLU A   1      40.927 -24.744 -14.227  0.00  0.00    -0.250 OA
ATOM     12  CD  GLU A   1      40.189 -25.433 -14.918  0.00  0.00    +0.314 C 
BRANCH  12  13
ATOM     13  OE1 GLU A   1      40.602 -26.034 -16.064  0.00  0.00    -0.480 OA
ATOM     14  HE1 GLU A   1      39.999 -26.158 -16.771  0.00  0.00    +0.295 HD
ENDBRANCH  12  13
ENDBRANCH  10  12
ENDBRANCH   9  10
ENDBRANCH   1   9
TORSDOF 6
ENDMDL
MODEL 2
REMARK VINA RESULT:      -5.7      1.670      4.534
REMARK  Name = 44272391
REMARK  6 active torsions:
REMARK  status: ('A' for Active; 'I' for Inactive)
REMARK    1  A    between atoms: CA_1  and  N_2
REMARK    2  A    between atoms: CA_1  and  C_8
REMARK    3  A    between atoms: CA_1  and  CB_9
REMARK    4  A    between atoms: CB_9  and  CG_10
REMARK    5  A    between atoms: CG_10  and  CD_12
REMARK    6  A    between atoms: CD_12  and  OE1_13
REMARK                            x       y       z     vdW  Elec       q    Type
REMARK                         _______ _______ _______ _____ _____    ______ ____
ROOT
ATOM      1  CA  GLU A   1      38.803 -25.106 -14.159  0.00  0.00    +0.041 C 
ENDROOT
BRANCH   1   2
ATOM      2  N   GLU A   1      37.782 -25.554 -15.160  0.00  0.00    +0.389 N 
ATOM      3  H1  GLU A   1      36.920 -25.808 -14.677  0.00  0.00    -0.088 HD
ATOM      4  H2  GLU A   1      38.137 -26.364 -15.669  0.00  0.00    -0.088 HD
ATOM      5  H3  GLU A   1      37.593 -24.796 -15.816  0.00  0.00    -0.088 HD
ENDBRANCH   1   2
BRANCH   1   8
ATOM      6  O   GLU A   1      41.100 -24.721 -14.602  0.00  0.00    -0.248 OA
ATOM      7  OXT GLU A   1      40.302 -26.863 -14.647  0.00  0.00    -0.248 OA
ATOM      8  C   GLU A   1      40.209 -25.611 -14.501  0.00  0.00    +0.345 C 
ENDBRANCH   1   8
BRANCH   1   9
ATOM      9  CB  GLU A   1      38.324 -25.591 -12.785  0.00  0.00    +0.001 C 
BRANCH   9  10
ATOM     10  CG  GLU A   1      37.482 -24.553 -12.035  0.00  0.00    +0.108 C 
BRANCH  10  12
ATOM     11  OE2 GLU A   1      35.421 -25.041 -10.834  0.00  0.00    -0.250 OA
ATOM     12  CD  GLU A   1      36.024 -24.934 -11.893  0.00  0.00    +0.314 C 
BRANCH  12  13
ATOM     13  OE1 GLU A   1      35.428 -25.102 -13.102  0.00  0.00    -0.480 OA
ATOM     14  HE1 GLU A   1      35.073 -25.937 -13.336  0.00  0.00    +0.295 HD
ENDBRANCH  12  13
ENDBRANCH  10  12
ENDBRANCH   9  10
ENDBRANCH   1   9
TORSDOF 6
ENDMDL
MODEL 3
REMARK VINA RESULT:      -5.6      2.271      2.855
REMARK  Name = 44272391
REMARK  6 active torsions:
REMARK  status: ('A' for Active; 'I' for Inactive)
REMARK    1  A    between atoms: CA_1  and  N_2
REMARK    2  A    between atoms: CA_1  and  C_8
REMARK    3  A    between atoms: CA_1  and  CB_9
REMARK    4  A    between atoms: CB_9  and  CG_10
REMARK    5  A    between atoms: CG_10  and  CD_12
REMARK    6  A    between atoms: CD_12  and  OE1_13
REMARK                            x       y       z     vdW  Elec       q    Type
REMARK                         _______ _______ _______ _____ _____    ______ ____
ROOT
ATOM      1  CA  GLU A   1      36.715 -23.500 -12.001  0.00  0.00    +0.041 C 
ENDROOT
BRANCH   1   2
ATOM      2  N   GLU A   1      38.156 -23.508 -11.589  0.00  0.00    +0.389 N 
ATOM      3  H1  GLU A   1      38.702 -24.035 -12.271  0.00  0.00    -0.088 HD
ATOM      4  H2  GLU A   1      38.245 -23.945 -10.672  0.00  0.00    -0.088 HD
ATOM      5  H3  GLU A   1      38.503 -22.549 -11.545  0.00  0.00    -0.088 HD
ENDBRANCH   1   2
BRANCH   1   8
ATOM      6  O   GLU A   1      34.860 -24.892 -11.510  0.00  0.00    -0.248 OA
ATOM      7  OXT GLU A   1      36.165 -24.132  -9.794  0.00  0.00    -0.248 OA
ATOM      8  C   GLU A   1      35.825 -24.252 -11.005  0.00  0.00    +0.345 C 
ENDBRANCH   1   8
BRANCH   1   9
ATOM      9  CB  GLU A   1      36.651 -24.099 -13.412  0.00  0.00    +0.001 C 
BRANCH   9  10
ATOM     10  CG  GLU A   1      37.911 -24.881 -13.797  0.00  0.00    +0.108 C 
BRANCH  10  12
ATOM     11  OE2 GLU A   1      38.290 -27.117 -14.681  0.00  0.00    -0.250 OA
ATOM     12  CD  GLU A   1      37.692 -26.374 -13.916  0.00  0.00    +0.314 C 
BRANCH  12  13
ATOM     13  OE1 GLU A   1      36.771 -26.820 -13.023  0.00  0.00    -0.480 OA
ATOM     14  HE1 GLU A   1      37.049 -27.255 -12.241  0.00  0.00    +0.295 HD
ENDBRANCH  12  13
ENDBRANCH  10  12
ENDBRANCH   9  10
ENDBRANCH   1   9
TORSDOF 6
ENDMDL
MODEL 4
REMARK VINA RESULT:      -5.6      2.897      3.211
REMARK  Name = 44272391
REMARK  6 active torsions:
REMARK  status: ('A' for Active; 'I' for Inactive)
REMARK    1  A    between atoms: CA_1  and  N_2
REMARK    2  A    between atoms: CA_1  and  C_8
REMARK    3  A    between atoms: CA_1  and  CB_9
REMARK    4  A    between atoms: CB_9  and  CG_10
REMARK    5  A    between atoms: CG_10  and  CD_12
REMARK    6  A    between atoms: CD_12  and  OE1_13
REMARK                            x       y       z     vdW  Elec       q    Type
REMARK                         _______ _______ _______ _____ _____    ______ ____
ROOT
ATOM      1  CA  GLU A   1      36.813 -25.110 -14.118  0.00  0.00    +0.041 C 
ENDROOT
BRANCH   1   2
ATOM      2  N   GLU A   1      36.872 -26.152 -13.043  0.00  0.00    +0.389 N 
ATOM      3  H1  GLU A   1      36.712 -27.072 -13.452  0.00  0.00    -0.088 HD
ATOM      4  H2  GLU A   1      36.154 -25.961 -12.344  0.00  0.00    -0.088 HD
ATOM      5  H3  GLU A   1      37.791 -26.133 -12.600  0.00  0.00    -0.088 HD
ENDBRANCH   1   2
BRANCH   1   8
ATOM      6  O   GLU A   1      36.175 -26.753 -15.702  0.00  0.00    -0.248 OA
ATOM      7  OXT GLU A   1      35.198 -24.688 -15.787  0.00  0.00    -0.248 OA
ATOM      8  C   GLU A   1      35.979 -25.565 -15.320  0.00  0.00    +0.345 C 
ENDBRANCH   1   8
BRANCH   1   9
ATOM      9  CB  GLU A   1      38.262 -24.781 -14.500  0.00  0.00    +0.001 C 
BRANCH   9  10
ATOM     10  CG  GLU A   1      39.297 -25.584 -13.705  0.00  0.00    +0.108 C 
BRANCH  10  12
ATOM     11  OE2 GLU A   1      41.340 -26.834 -14.139  0.00  0.00    -0.250 OA
ATOM     12  CD  GLU A   1      40.431 -26.125 -14.548  0.00  0.00    +0.314 C 
BRANCH  12  13
ATOM     13  OE1 GLU A   1      40.304 -25.768 -15.852  0.00  0.00    -0.480 OA
ATOM     14  HE1 GLU A   1      40.966 -26.008 -16.470  0.00  0.00    +0.295 HD
ENDBRANCH  12  13
ENDBRANCH  10  12
ENDBRANCH   9  10
ENDBRANCH   1   9
TORSDOF 6
ENDMDL
MODEL 5
REMARK VINA RESULT:      -5.6      2.368      4.932
REMARK  Name = 44272391
REMARK  6 active torsions:
REMARK  status: ('A' for Active; 'I' for Inactive)
REMARK    1  A    between atoms: CA_1  and  N_2
REMARK    2  A    between atoms: CA_1  and  C_8
REMARK    3  A    between atoms: CA_1  and  CB_9
REMARK    4  A    between atoms: CB_9  and  CG_10
REMARK    5  A    between atoms: CG_10  and  CD_12
REMARK    6  A    between atoms: CD_12  and  OE1_13
REMARK                            x       y       z     vdW  Elec       q    Type
REMARK                         _______ _______ _______ _____ _____    ______ ____
ROOT
ATOM      1  CA  GLU A   1      36.743 -25.328 -14.465  0.00  0.00    +0.041 C 
ENDROOT
BRANCH   1   2
ATOM      2  N   GLU A   1      35.255 -25.186 -14.371  0.00  0.00    +0.389 N 
ATOM      3  H1  GLU A   1      34.988 -24.231 -14.609  0.00  0.00    -0.088 HD
ATOM      4  H2  GLU A   1      34.952 -25.396 -13.420  0.00  0.00    -0.088 HD
ATOM      5  H3  GLU A   1      34.809 -25.835 -15.020  0.00  0.00    -0.088 HD
ENDBRANCH   1   2
BRANCH   1   8
ATOM      6  O   GLU A   1      36.381 -27.050 -16.053  0.00  0.00    -0.248 OA
ATOM      7  OXT GLU A   1      38.227 -27.148 -14.707  0.00  0.00    -0.248 OA
ATOM      8  C   GLU A   1      37.157 -26.637 -15.146  0.00  0.00    +0.345 C 
ENDBRANCH   1   8
BRANCH   1   9
ATOM      9  CB  GLU A   1      37.294 -25.209 -13.038  0.00  0.00    +0.001 C 
BRANCH   9  10
ATOM     10  CG  GLU A   1      36.743 -24.000 -12.274  0.00  0.00    +0.108 C 
BRANCH  10  12
ATOM     11  OE2 GLU A   1      36.178 -24.094  -9.908  0.00  0.00    -0.250 OA
ATOM     12  CD  GLU A   1      35.906 -24.369 -11.069  0.00  0.00    +0.314 C 
BRANCH  12  13
ATOM     13  OE1 GLU A   1      34.765 -25.013 -11.426  0.00  0.00    -0.480 OA
ATOM     14  HE1 GLU A   1      34.076 -24.543 -11.854  0.00  0.00    +0.295 HD
ENDBRANCH  12  13
ENDBRANCH  10  12
ENDBRANCH   9  10
ENDBRANCH   1   9
TORSDOF 6
ENDMDL
MODEL 6
REMARK VINA RESULT:      -5.6      2.368      4.127
REMARK  Name = 44272391
REMARK  6 active torsions:
REMARK  status: ('A' for Active; 'I' for Inactive)
REMARK    1  A    between atoms: CA_1  and  N_2
REMARK    2  A    between atoms: CA_1  and  C_8
REMARK    3  A    between atoms: CA_1  and  CB_9
REMARK    4  A    between atoms: CB_9  and  CG_10
REMARK    5  A    between atoms: CG_10  and  CD_12
REMARK    6  A    between atoms: CD_12  and  OE1_13
REMARK                            x       y       z     vdW  Elec       q    Type
REMARK                         _______ _______ _______ _____ _____    ______ ____
ROOT
ATOM      1  CA  GLU A   1      36.348 -25.286 -15.018  0.00  0.00    +0.041 C 
ENDROOT
BRANCH   1   2
ATOM      2  N   GLU A   1      35.265 -25.244 -13.984  0.00  0.00    +0.389 N 
ATOM      3  H1  GLU A   1      35.683 -25.156 -13.057  0.00  0.00    -0.088 HD
ATOM      4  H2  GLU A   1      34.717 -26.102 -14.030  0.00  0.00    -0.088 HD
ATOM      5  H3  GLU A   1      34.658 -24.442 -14.159  0.00  0.00    -0.088 HD
ENDBRANCH   1   2
BRANCH   1   8
ATOM      6  O   GLU A   1      36.711 -27.316 -16.188  0.00  0.00    -0.248 OA
ATOM      7  OXT GLU A   1      37.701 -27.016 -14.149  0.00  0.00    -0.248 OA
ATOM      8  C   GLU A   1      36.984 -26.677 -15.133  0.00  0.00    +0.345 C 
ENDBRANCH   1   8
BRANCH   1   9
ATOM      9  CB  GLU A   1      37.369 -24.205 -14.641  0.00  0.00    +0.001 C 
BRANCH   9  10
ATOM     10  CG  GLU A   1      37.054 -23.510 -13.312  0.00  0.00    +0.108 C 
BRANCH  10  12
ATOM     11  OE2 GLU A   1      38.787 -23.239 -11.624  0.00  0.00    -0.250 OA
ATOM     12  CD  GLU A   1      37.946 -23.941 -12.169  0.00  0.00    +0.314 C 
BRANCH  12  13
ATOM     13  OE1 GLU A   1      37.674 -25.211 -11.769  0.00  0.00    -0.480 OA
ATOM     14  HE1 GLU A   1      38.141 -25.584 -11.048  0.00  0.00    +0.295 HD
ENDBRANCH  12  13
ENDBRANCH  10  12
ENDBRANCH   9  10
ENDBRANCH   1   9
TORSDOF 6
ENDMDL
MODEL 7
REMARK VINA RESULT:      -5.5      2.204      2.454
REMARK  Name = 44272391
REMARK  6 active torsions:
REMARK  status: ('A' for Active; 'I' for Inactive)
REMARK    1  A    between atoms: CA_1  and  N_2
REMARK    2  A    between atoms: CA_1  and  C_8
REMARK    3  A    between atoms: CA_1  and  CB_9
REMARK    4  A    between atoms: CB_9  and  CG_10
REMARK    5  A    between atoms: CG_10  and  CD_12
REMARK    6  A    between atoms: CD_12  and  OE1_13
REMARK                            x       y       z     vdW  Elec       q    Type
REMARK                         _______ _______ _______ _____ _____    ______ ____
ROOT
ATOM      1  CA  GLU A   1      35.927 -24.503 -12.220  0.00  0.00    +0.041 C 
ENDROOT
BRANCH   1   2
ATOM      2  N   GLU A   1      34.915 -23.650 -12.922  0.00  0.00    +0.389 N 
ATOM      3  H1  GLU A   1      34.860 -22.740 -12.463  0.00  0.00    -0.088 HD
ATOM      4  H2  GLU A   1      34.003 -24.105 -12.886  0.00  0.00    -0.088 HD
ATOM      5  H3  GLU A   1      35.193 -23.522 -13.895  0.00  0.00    -0.088 HD
ENDBRANCH   1   2
BRANCH   1   8
ATOM      6  O   GLU A   1      36.053 -24.214  -9.871  0.00  0.00    -0.248 OA
ATOM      7  OXT GLU A   1      37.363 -22.916 -11.222  0.00  0.00    -0.248 OA
ATOM      8  C   GLU A   1      36.505 -23.812 -10.979  0.00  0.00    +0.345 C 
ENDBRANCH   1   8
BRANCH   1   9
ATOM      9  CB  GLU A   1      37.007 -24.854 -13.252  0.00  0.00    +0.001 C 
BRANCH   9  10
ATOM     10  CG  GLU A   1      36.441 -25.465 -14.539  0.00  0.00    +0.108 C 
BRANCH  10  12
ATOM     11  OE2 GLU A   1      38.250 -27.093 -14.544  0.00  0.00    -0.250 OA
ATOM     12  CD  GLU A   1      37.250 -26.626 -15.073  0.00  0.00    +0.314 C 
BRANCH  12  13
ATOM     13  OE1 GLU A   1      36.707 -27.139 -16.207  0.00  0.00    -0.480 OA
ATOM     14  HE1 GLU A   1      36.531 -26.578 -16.937  0.00  0.00    +0.295 HD
ENDBRANCH  12  13
ENDBRANCH  10  12
ENDBRANCH   9  10
ENDBRANCH   1   9
TORSDOF 6
ENDMDL
MODEL 8
REMARK VINA RESULT:      -5.4      8.730      9.987
REMARK  Name = 44272391
REMARK  6 active torsions:
REMARK  status: ('A' for Active; 'I' for Inactive)
REMARK    1  A    between atoms: CA_1  and  N_2
REMARK    2  A    between atoms: CA_1  and  C_8
REMARK    3  A    between atoms: CA_1  and  CB_9
REMARK    4  A    between atoms: CB_9  and  CG_10
REMARK    5  A    between atoms: CG_10  and  CD_12
REMARK    6  A    between atoms: CD_12  and  OE1_13
REMARK                            x       y       z     vdW  Elec       q    Type
REMARK                         _______ _______ _______ _____ _____    ______ ____
ROOT
ATOM      1  CA  GLU A   1      30.040 -24.560 -14.774  0.00  0.00    +0.041 C 
ENDROOT
BRANCH   1   2
ATOM      2  N   GLU A   1      28.847 -25.416 -14.478  0.00  0.00    +0.389 N 
ATOM      3  H1  GLU A   1      29.050 -26.382 -14.733  0.00  0.00    -0.088 HD
ATOM      4  H2  GLU A   1      28.047 -25.083 -15.016  0.00  0.00    -0.088 HD
ATOM      5  H3  GLU A   1      28.631 -25.367 -13.482  0.00  0.00    -0.088 HD
ENDBRANCH   1   2
BRANCH   1   8
ATOM      6  O   GLU A   1      30.898 -23.805 -12.696  0.00  0.00    -0.248 OA
ATOM      7  OXT GLU A   1      32.006 -25.457 -13.823  0.00  0.00    -0.248 OA
ATOM      8  C   GLU A   1      31.082 -24.612 -13.650  0.00  0.00    +0.345 C 
ENDBRANCH   1   8
BRANCH   1   9
ATOM      9  CB  GLU A   1      29.520 -23.139 -15.024  0.00  0.00    +0.001 C 
BRANCH   9  10
ATOM     10  CG  GLU A   1      29.471 -22.763 -16.509  0.00  0.00    +0.108 C 
BRANCH  10  12
ATOM     11  OE2 GLU A   1      27.581 -23.880 -17.561  0.00  0.00    -0.250 OA
ATOM     12  CD  GLU A   1      28.090 -22.859 -17.119  0.00  0.00    +0.314 C 
BRANCH  12  13
ATOM     13  OE1 GLU A   1      27.438 -21.667 -17.080  0.00  0.00    -0.480 OA
ATOM     14  HE1 GLU A   1      26.507 -21.646 -16.979  0.00  0.00    +0.295 HD
ENDBRANCH  12  13
ENDBRANCH  10  12
ENDBRANCH   9  10
ENDBRANCH   1   9
TORSDOF 6
ENDMDL
MODEL 9
REMARK VINA RESULT:      -5.3     11.782     12.168
REMARK  Name = 44272391
REMARK  6 active torsions:
REMARK  status: ('A' for Active; 'I' for Inactive)
REMARK    1  A    between atoms: CA_1  and  N_2
REMARK    2  A    between atoms: CA_1  and  C_8
REMARK    3  A    between atoms: CA_1  and  CB_9
REMARK    4  A    between atoms: CB_9  and  CG_10
REMARK    5  A    between atoms: CG_10  and  CD_12
REMARK    6  A    between atoms: CD_12  and  OE1_13
REMARK                            x       y       z     vdW  Elec       q    Type
REMARK                         _______ _______ _______ _____ _____    ______ ____
ROOT
ATOM      1  CA  GLU A   1      34.475 -18.459 -21.630  0.00  0.00    +0.041 C 
ENDROOT
BRANCH   1   2
ATOM      2  N   GLU A   1      35.198 -17.416 -20.834  0.00  0.00    +0.389 N 
ATOM      3  H1  GLU A   1      36.097 -17.787 -20.525  0.00  0.00    -0.088 HD
ATOM      4  H2  GLU A   1      34.638 -17.159 -20.021  0.00  0.00    -0.088 HD
ATOM      5  H3  GLU A   1      35.353 -16.591 -21.415  0.00  0.00    -0.088 HD
ENDBRANCH   1   2
BRANCH   1   8
ATOM      6  O   GLU A   1      33.026 -20.189 -20.903  0.00  0.00    -0.248 OA
ATOM      7  OXT GLU A   1      35.177 -20.142 -20.130  0.00  0.00    -0.248 OA
ATOM      8  C   GLU A   1      34.196 -19.723 -20.809  0.00  0.00    +0.345 C 
ENDBRANCH   1   8
BRANCH   1   9
ATOM      9  CB  GLU A   1      35.327 -18.744 -22.873  0.00  0.00    +0.001 C 
BRANCH   9  10
ATOM     10  CG  GLU A   1      34.617 -18.403 -24.187  0.00  0.00    +0.108 C 
BRANCH  10  12
ATOM     11  OE2 GLU A   1      34.629 -16.605 -25.828  0.00  0.00    -0.250 OA
ATOM     12  CD  GLU A   1      34.956 -17.032 -24.729  0.00  0.00    +0.314 C 
BRANCH  12  13
ATOM     13  OE1 GLU A   1      35.641 -16.288 -23.823  0.00  0.00    -0.480 OA
ATOM     14  HE1 GLU A   1      36.578 -16.269 -23.845  0.00  0.00    +0.295 HD
ENDBRANCH  12  13
ENDBRANCH  10  12
ENDBRANCH   9  10
ENDBRANCH   1   9
TORSDOF 6
ENDMDL
