MODEL 1
REMARK VINA RESULT:      -7.9      0.000      0.000
REMARK  Name = 65859
REMARK  6 active torsions:
REMARK  status: ('A' for Active; 'I' for Inactive)
REMARK    1  A    between atoms: N_1  and  C_14
REMARK    2  A    between atoms: N_2  and  C_8
REMARK    3  A    between atoms: C_14  and  C_15
REMARK    4  A    between atoms: C_15  and  O_16
REMARK    5  A    between atoms: C_15  and  C_18
REMARK    6  A    between atoms: C_18  and  O_19
REMARK                            x       y       z     vdW  Elec       q    Type
REMARK                         _______ _______ _______ _____ _____    ______ ____
ROOT
ATOM      1  N   UNL     1      35.392 -16.875 -23.651  0.00  0.00    +0.391 N 
ATOM      2  N   UNL     1      34.744 -18.941 -21.788  0.00  0.00    -0.312 N 
ATOM      3  C   UNL     1      34.989 -16.538 -22.281  0.00  0.00    -0.055 C 
ATOM      4  C   UNL     1      34.686 -18.083 -24.097  0.00  0.00    -0.055 C 
ATOM      5  C   UNL     1      35.324 -17.677 -21.315  0.00  0.00    +0.068 C 
ATOM      6  C   UNL     1      35.010 -19.273 -23.191  0.00  0.00    +0.068 C 
ATOM      7  H   UNL     1      36.395 -17.055 -23.666  0.00  0.00    -0.079 HD
ENDROOT
BRANCH   2   8
ATOM      8  C   UNL     1      34.553 -19.966 -20.856  0.00  0.00    +0.048 C 
ATOM      9  C   UNL     1      35.646 -20.689 -20.335  0.00  0.00    +0.015 C 
ATOM     10  C   UNL     1      33.260 -20.309 -20.410  0.00  0.00    +0.015 C 
ATOM     11  C   UNL     1      35.454 -21.710 -19.406  0.00  0.00    +0.001 C 
ATOM     12  C   UNL     1      33.069 -21.331 -19.480  0.00  0.00    +0.001 C 
ATOM     13  C   UNL     1      34.167 -22.032 -18.978  0.00  0.00    +0.000 C 
ENDBRANCH   2   8
BRANCH   1  14
ATOM     14  C   UNL     1      35.116 -15.758 -24.555  0.00  0.00    -0.045 C 
BRANCH  14  15
ATOM     15  C   UNL     1      33.616 -15.548 -24.770  0.00  0.00    +0.119 C 
BRANCH  15  16
ATOM     16  O   UNL     1      33.334 -15.729 -26.160  0.00  0.00    -0.384 OA
ATOM     17  H   UNL     1      32.839 -14.964 -26.493  0.00  0.00    +0.210 HD
ENDBRANCH  15  16
BRANCH  15  18
ATOM     18  C   UNL     1      33.134 -14.161 -24.349  0.00  0.00    +0.164 C 
BRANCH  18  19
ATOM     19  O   UNL     1      34.204 -13.478 -23.702  0.00  0.00    -0.380 OA
ATOM     20  H   UNL     1      33.868 -12.669 -23.288  0.00  0.00    +0.211 HD
ENDBRANCH  18  19
ENDBRANCH  15  18
ENDBRANCH  14  15
ENDBRANCH   1  14
TORSDOF 6
ENDMDL
MODEL 2
REMARK VINA RESULT:      -7.8      0.627      1.781
REMARK  Name = 65859
REMARK  6 active torsions:
REMARK  status: ('A' for Active; 'I' for Inactive)
REMARK    1  A    between atoms: N_1  and  C_14
REMARK    2  A    between atoms: N_2  and  C_8
REMARK    3  A    between atoms: C_14  and  C_15
REMARK    4  A    between atoms: C_15  and  O_16
REMARK    5  A    between atoms: C_15  and  C_18
REMARK    6  A    between atoms: C_18  and  O_19
REMARK                            x       y       z     vdW  Elec       q    Type
REMARK                         _______ _______ _______ _____ _____    ______ ____
ROOT
ATOM      1  N   UNL     1      34.375 -16.863 -23.524  0.00  0.00    +0.391 N 
ATOM      2  N   UNL     1      34.875 -18.926 -21.612  0.00  0.00    -0.312 N 
ATOM      3  C   UNL     1      35.001 -18.124 -23.939  0.00  0.00    -0.055 C 
ATOM      4  C   UNL     1      34.794 -16.525 -22.157  0.00  0.00    -0.055 C 
ATOM      5  C   UNL     1      34.593 -19.271 -23.012  0.00  0.00    +0.068 C 
ATOM      6  C   UNL     1      34.381 -17.619 -21.170  0.00  0.00    +0.068 C 
ATOM      7  H   UNL     1      33.362 -16.975 -23.539  0.00  0.00    -0.079 HD
ENDROOT
BRANCH   2   8
ATOM      8  C   UNL     1      34.997 -19.970 -20.689  0.00  0.00    +0.048 C 
ATOM      9  C   UNL     1      33.860 -20.642 -20.198  0.00  0.00    +0.015 C 
ATOM     10  C   UNL     1      36.262 -20.382 -20.222  0.00  0.00    +0.015 C 
ATOM     11  C   UNL     1      33.983 -21.684 -19.278  0.00  0.00    +0.001 C 
ATOM     12  C   UNL     1      36.384 -21.423 -19.303  0.00  0.00    +0.001 C 
ATOM     13  C   UNL     1      35.243 -22.074 -18.831  0.00  0.00    +0.000 C 
ENDBRANCH   2   8
BRANCH   1  14
ATOM     14  C   UNL     1      34.729 -15.787 -24.449  0.00  0.00    -0.045 C 
BRANCH  14  15
ATOM     15  C   UNL     1      33.496 -15.170 -25.113  0.00  0.00    +0.119 C 
BRANCH  15  16
ATOM     16  O   UNL     1      33.645 -15.288 -26.530  0.00  0.00    -0.384 OA
ATOM     17  H   UNL     1      34.298 -15.977 -26.731  0.00  0.00    +0.210 HD
ENDBRANCH  15  16
BRANCH  15  18
ATOM     18  C   UNL     1      33.295 -13.697 -24.763  0.00  0.00    +0.164 C 
BRANCH  18  19
ATOM     19  O   UNL     1      34.233 -13.332 -23.754  0.00  0.00    -0.380 OA
ATOM     20  H   UNL     1      35.117 -13.260 -24.146  0.00  0.00    +0.211 HD
ENDBRANCH  18  19
ENDBRANCH  15  18
ENDBRANCH  14  15
ENDBRANCH   1  14
TORSDOF 6
ENDMDL
MODEL 3
REMARK VINA RESULT:      -7.8      7.498     10.696
REMARK  Name = 65859
REMARK  6 active torsions:
REMARK  status: ('A' for Active; 'I' for Inactive)
REMARK    1  A    between atoms: N_1  and  C_14
REMARK    2  A    between atoms: N_2  and  C_8
REMARK    3  A    between atoms: C_14  and  C_15
REMARK    4  A    between atoms: C_15  and  O_16
REMARK    5  A    between atoms: C_15  and  C_18
REMARK    6  A    between atoms: C_18  and  O_19
REMARK                            x       y       z     vdW  Elec       q    Type
REMARK                         _______ _______ _______ _____ _____    ______ ____
ROOT
ATOM      1  N   UNL     1      36.341 -24.087 -13.971  0.00  0.00    +0.391 N 
ATOM      2  N   UNL     1      35.802 -22.948 -16.535  0.00  0.00    -0.312 N 
ATOM      3  C   UNL     1      37.419 -23.930 -14.955  0.00  0.00    -0.055 C 
ATOM      4  C   UNL     1      35.075 -24.371 -14.659  0.00  0.00    -0.055 C 
ATOM      5  C   UNL     1      37.122 -22.776 -15.915  0.00  0.00    +0.068 C 
ATOM      6  C   UNL     1      34.700 -23.232 -15.611  0.00  0.00    +0.068 C 
ATOM      7  H   UNL     1      36.244 -23.219 -13.447  0.00  0.00    -0.079 HD
ENDROOT
BRANCH   2   8
ATOM      8  C   UNL     1      35.546 -22.276 -17.735  0.00  0.00    +0.048 C 
ATOM      9  C   UNL     1      34.259 -22.285 -18.312  0.00  0.00    +0.015 C 
ATOM     10  C   UNL     1      36.566 -21.570 -18.404  0.00  0.00    +0.015 C 
ATOM     11  C   UNL     1      34.004 -21.614 -19.507  0.00  0.00    +0.001 C 
ATOM     12  C   UNL     1      36.310 -20.899 -19.599  0.00  0.00    +0.001 C 
ATOM     13  C   UNL     1      35.028 -20.922 -20.151  0.00  0.00    +0.000 C 
ENDBRANCH   2   8
BRANCH   1  14
ATOM     14  C   UNL     1      36.662 -25.157 -13.027  0.00  0.00    -0.045 C 
BRANCH  14  15
ATOM     15  C   UNL     1      36.655 -24.667 -11.577  0.00  0.00    +0.119 C 
BRANCH  15  16
ATOM     16  O   UNL     1      35.391 -25.002 -10.998  0.00  0.00    -0.384 OA
ATOM     17  H   UNL     1      35.516 -25.247 -10.068  0.00  0.00    +0.210 HD
ENDBRANCH  15  16
BRANCH  15  18
ATOM     18  C   UNL     1      36.870 -23.161 -11.448  0.00  0.00    +0.164 C 
BRANCH  18  19
ATOM     19  O   UNL     1      38.252 -22.874 -11.644  0.00  0.00    -0.380 OA
ATOM     20  H   UNL     1      38.656 -22.637 -10.795  0.00  0.00    +0.211 HD
ENDBRANCH  18  19
ENDBRANCH  15  18
ENDBRANCH  14  15
ENDBRANCH   1  14
TORSDOF 6
ENDMDL
MODEL 4
REMARK VINA RESULT:      -7.7      7.353     10.326
REMARK  Name = 65859
REMARK  6 active torsions:
REMARK  status: ('A' for Active; 'I' for Inactive)
REMARK    1  A    between atoms: N_1  and  C_14
REMARK    2  A    between atoms: N_2  and  C_8
REMARK    3  A    between atoms: C_14  and  C_15
REMARK    4  A    between atoms: C_15  and  O_16
REMARK    5  A    between atoms: C_15  and  C_18
REMARK    6  A    between atoms: C_18  and  O_19
REMARK                            x       y       z     vdW  Elec       q    Type
REMARK                         _______ _______ _______ _____ _____    ______ ____
ROOT
ATOM      1  N   UNL     1      37.041 -23.724 -14.679  0.00  0.00    +0.391 N 
ATOM      2  N   UNL     1      35.940 -22.646 -17.084  0.00  0.00    -0.312 N 
ATOM      3  C   UNL     1      37.923 -23.210 -15.733  0.00  0.00    -0.055 C 
ATOM      4  C   UNL     1      35.840 -24.319 -15.278  0.00  0.00    -0.055 C 
ATOM      5  C   UNL     1      37.216 -22.137 -16.565  0.00  0.00    +0.068 C 
ATOM      6  C   UNL     1      35.064 -23.285 -16.097  0.00  0.00    +0.068 C 
ATOM      7  H   UNL     1      36.759 -22.950 -14.077  0.00  0.00    -0.079 HD
ENDROOT
BRANCH   2   8
ATOM      8  C   UNL     1      35.382 -22.010 -18.198  0.00  0.00    +0.048 C 
ATOM      9  C   UNL     1      36.176 -21.227 -19.061  0.00  0.00    +0.015 C 
ATOM     10  C   UNL     1      34.009 -22.132 -18.492  0.00  0.00    +0.015 C 
ATOM     11  C   UNL     1      35.619 -20.594 -20.172  0.00  0.00    +0.001 C 
ATOM     12  C   UNL     1      33.453 -21.500 -19.604  0.00  0.00    +0.001 C 
ATOM     13  C   UNL     1      34.259 -20.730 -20.443  0.00  0.00    +0.000 C 
ENDBRANCH   2   8
BRANCH   1  14
ATOM     14  C   UNL     1      37.745 -24.708 -13.857  0.00  0.00    -0.045 C 
BRANCH  14  15
ATOM     15  C   UNL     1      38.739 -25.536 -14.674  0.00  0.00    +0.119 C 
BRANCH  15  16
ATOM     16  O   UNL     1      38.296 -26.896 -14.671  0.00  0.00    -0.384 OA
ATOM     17  H   UNL     1      38.469 -27.295 -15.538  0.00  0.00    +0.210 HD
ENDBRANCH  15  16
BRANCH  15  18
ATOM     18  C   UNL     1      40.163 -25.483 -14.127  0.00  0.00    +0.164 C 
BRANCH  18  19
ATOM     19  O   UNL     1      40.902 -26.579 -14.659  0.00  0.00    -0.380 OA
ATOM     20  H   UNL     1      40.871 -26.550 -15.627  0.00  0.00    +0.211 HD
ENDBRANCH  18  19
ENDBRANCH  15  18
ENDBRANCH  14  15
ENDBRANCH   1  14
TORSDOF 6
ENDMDL
MODEL 5
REMARK VINA RESULT:      -7.7      0.822      1.794
REMARK  Name = 65859
REMARK  6 active torsions:
REMARK  status: ('A' for Active; 'I' for Inactive)
REMARK    1  A    between atoms: N_1  and  C_14
REMARK    2  A    between atoms: N_2  and  C_8
REMARK    3  A    between atoms: C_14  and  C_15
REMARK    4  A    between atoms: C_15  and  O_16
REMARK    5  A    between atoms: C_15  and  C_18
REMARK    6  A    between atoms: C_18  and  O_19
REMARK                            x       y       z     vdW  Elec       q    Type
REMARK                         _______ _______ _______ _____ _____    ______ ____
ROOT
ATOM      1  N   UNL     1      34.369 -16.539 -23.230  0.00  0.00    +0.391 N 
ATOM      2  N   UNL     1      34.622 -18.790 -21.489  0.00  0.00    -0.312 N 
ATOM      3  C   UNL     1      35.046 -17.758 -23.687  0.00  0.00    -0.055 C 
ATOM      4  C   UNL     1      34.606 -16.345 -21.794  0.00  0.00    -0.055 C 
ATOM      5  C   UNL     1      34.524 -18.988 -22.941  0.00  0.00    +0.068 C 
ATOM      6  C   UNL     1      34.072 -17.528 -20.984  0.00  0.00    +0.068 C 
ATOM      7  H   UNL     1      33.366 -16.639 -23.387  0.00  0.00    -0.079 HD
ENDROOT
BRANCH   2   8
ATOM      8  C   UNL     1      34.627 -19.922 -20.668  0.00  0.00    +0.048 C 
ATOM      9  C   UNL     1      35.838 -20.523 -20.266  0.00  0.00    +0.015 C 
ATOM     10  C   UNL     1      33.422 -20.499 -20.219  0.00  0.00    +0.015 C 
ATOM     11  C   UNL     1      35.842 -21.652 -19.447  0.00  0.00    +0.001 C 
ATOM     12  C   UNL     1      33.427 -21.627 -19.399  0.00  0.00    +0.001 C 
ATOM     13  C   UNL     1      34.637 -22.204 -19.014  0.00  0.00    +0.000 C 
ENDBRANCH   2   8
BRANCH   1  14
ATOM     14  C   UNL     1      34.836 -15.379 -23.988  0.00  0.00    -0.045 C 
BRANCH  14  15
ATOM     15  C   UNL     1      33.687 -14.449 -24.384  0.00  0.00    +0.119 C 
BRANCH  15  16
ATOM     16  O   UNL     1      32.706 -14.484 -23.344  0.00  0.00    -0.384 OA
ATOM     17  H   UNL     1      33.091 -14.881 -22.548  0.00  0.00    +0.210 HD
ENDBRANCH  15  16
BRANCH  15  18
ATOM     18  C   UNL     1      33.021 -14.839 -25.701  0.00  0.00    +0.164 C 
BRANCH  18  19
ATOM     19  O   UNL     1      33.785 -15.872 -26.315  0.00  0.00    -0.380 OA
ATOM     20  H   UNL     1      33.932 -16.588 -25.678  0.00  0.00    +0.211 HD
ENDBRANCH  18  19
ENDBRANCH  15  18
ENDBRANCH  14  15
ENDBRANCH   1  14
TORSDOF 6
ENDMDL
MODEL 6
REMARK VINA RESULT:      -7.6      1.783      2.677
REMARK  Name = 65859
REMARK  6 active torsions:
REMARK  status: ('A' for Active; 'I' for Inactive)
REMARK    1  A    between atoms: N_1  and  C_14
REMARK    2  A    between atoms: N_2  and  C_8
REMARK    3  A    between atoms: C_14  and  C_15
REMARK    4  A    between atoms: C_15  and  O_16
REMARK    5  A    between atoms: C_15  and  C_18
REMARK    6  A    between atoms: C_18  and  O_19
REMARK                            x       y       z     vdW  Elec       q    Type
REMARK                         _______ _______ _______ _____ _____    ______ ____
ROOT
ATOM      1  N   UNL     1      34.160 -14.921 -23.464  0.00  0.00    +0.391 N 
ATOM      2  N   UNL     1      34.521 -17.402 -22.094  0.00  0.00    -0.312 N 
ATOM      3  C   UNL     1      33.544 -15.140 -22.149  0.00  0.00    -0.055 C 
ATOM      4  C   UNL     1      34.202 -16.184 -24.212  0.00  0.00    -0.055 C 
ATOM      5  C   UNL     1      34.341 -16.159 -21.332  0.00  0.00    +0.068 C 
ATOM      6  C   UNL     1      35.020 -17.239 -23.463  0.00  0.00    +0.068 C 
ATOM      7  H   UNL     1      35.113 -14.586 -23.330  0.00  0.00    -0.079 HD
ENDROOT
BRANCH   2   8
ATOM      8  C   UNL     1      34.812 -18.572 -21.385  0.00  0.00    +0.048 C 
ATOM      9  C   UNL     1      33.782 -19.432 -20.949  0.00  0.00    +0.015 C 
ATOM     10  C   UNL     1      36.142 -18.928 -21.083  0.00  0.00    +0.015 C 
ATOM     11  C   UNL     1      34.073 -20.599 -20.243  0.00  0.00    +0.001 C 
ATOM     12  C   UNL     1      36.431 -20.095 -20.377  0.00  0.00    +0.001 C 
ATOM     13  C   UNL     1      35.396 -20.930 -19.957  0.00  0.00    +0.000 C 
ENDBRANCH   2   8
BRANCH   1  14
ATOM     14  C   UNL     1      33.420 -13.906 -24.213  0.00  0.00    -0.045 C 
BRANCH  14  15
ATOM     15  C   UNL     1      33.759 -12.487 -23.749  0.00  0.00    +0.119 C 
BRANCH  15  16
ATOM     16  O   UNL     1      32.619 -11.955 -23.068  0.00  0.00    -0.384 OA
ATOM     17  H   UNL     1      31.824 -12.440 -23.340  0.00  0.00    +0.210 HD
ENDBRANCH  15  16
BRANCH  15  18
ATOM     18  C   UNL     1      34.127 -11.548 -24.895  0.00  0.00    +0.164 C 
BRANCH  18  19
ATOM     19  O   UNL     1      35.019 -10.551 -24.405  0.00  0.00    -0.380 OA
ATOM     20  H   UNL     1      34.866 -10.419 -23.457  0.00  0.00    +0.211 HD
ENDBRANCH  18  19
ENDBRANCH  15  18
ENDBRANCH  14  15
ENDBRANCH   1  14
TORSDOF 6
ENDMDL
MODEL 7
REMARK VINA RESULT:      -7.5      6.700      9.723
REMARK  Name = 65859
REMARK  6 active torsions:
REMARK  status: ('A' for Active; 'I' for Inactive)
REMARK    1  A    between atoms: N_1  and  C_14
REMARK    2  A    between atoms: N_2  and  C_8
REMARK    3  A    between atoms: C_14  and  C_15
REMARK    4  A    between atoms: C_15  and  O_16
REMARK    5  A    between atoms: C_15  and  C_18
REMARK    6  A    between atoms: C_18  and  O_19
REMARK                            x       y       z     vdW  Elec       q    Type
REMARK                         _______ _______ _______ _____ _____    ______ ____
ROOT
ATOM      1  N   UNL     1      35.116 -23.789 -16.206  0.00  0.00    +0.391 N 
ATOM      2  N   UNL     1      34.679 -21.930 -18.330  0.00  0.00    -0.312 N 
ATOM      3  C   UNL     1      33.752 -23.466 -16.640  0.00  0.00    -0.055 C 
ATOM      4  C   UNL     1      35.979 -22.610 -16.350  0.00  0.00    -0.055 C 
ATOM      5  C   UNL     1      33.732 -23.029 -18.107  0.00  0.00    +0.068 C 
ATOM      6  C   UNL     1      36.032 -22.144 -17.807  0.00  0.00    +0.068 C 
ATOM      7  H   UNL     1      35.481 -24.538 -16.794  0.00  0.00    -0.079 HD
ENDROOT
BRANCH   2   8
ATOM      8  C   UNL     1      34.490 -21.115 -19.451  0.00  0.00    +0.048 C 
ATOM      9  C   UNL     1      33.195 -20.752 -19.874  0.00  0.00    +0.015 C 
ATOM     10  C   UNL     1      35.587 -20.631 -20.191  0.00  0.00    +0.015 C 
ATOM     11  C   UNL     1      33.006 -19.938 -20.991  0.00  0.00    +0.001 C 
ATOM     12  C   UNL     1      35.398 -19.817 -21.308  0.00  0.00    +0.001 C 
ATOM     13  C   UNL     1      34.107 -19.472 -21.708  0.00  0.00    +0.000 C 
ENDBRANCH   2   8
BRANCH   1  14
ATOM     14  C   UNL     1      35.115 -24.257 -14.820  0.00  0.00    -0.045 C 
BRANCH  14  15
ATOM     15  C   UNL     1      36.230 -25.271 -14.553  0.00  0.00    +0.119 C 
BRANCH  15  16
ATOM     16  O   UNL     1      35.777 -26.557 -14.983  0.00  0.00    -0.384 OA
ATOM     17  H   UNL     1      36.213 -27.246 -14.459  0.00  0.00    +0.210 HD
ENDBRANCH  15  16
BRANCH  15  18
ATOM     18  C   UNL     1      36.627 -25.358 -13.081  0.00  0.00    +0.164 C 
BRANCH  18  19
ATOM     19  O   UNL     1      36.868 -26.723 -12.750  0.00  0.00    -0.380 OA
ATOM     20  H   UNL     1      37.523 -27.093 -13.361  0.00  0.00    +0.211 HD
ENDBRANCH  18  19
ENDBRANCH  15  18
ENDBRANCH  14  15
ENDBRANCH   1  14
TORSDOF 6
ENDMDL
MODEL 8
REMARK VINA RESULT:      -7.5      9.745     11.396
REMARK  Name = 65859
REMARK  6 active torsions:
REMARK  status: ('A' for Active; 'I' for Inactive)
REMARK    1  A    between atoms: N_1  and  C_14
REMARK    2  A    between atoms: N_2  and  C_8
REMARK    3  A    between atoms: C_14  and  C_15
REMARK    4  A    between atoms: C_15  and  O_16
REMARK    5  A    between atoms: C_15  and  C_18
REMARK    6  A    between atoms: C_18  and  O_19
REMARK                            x       y       z     vdW  Elec       q    Type
REMARK                         _______ _______ _______ _____ _____    ______ ____
ROOT
ATOM      1  N   UNL     1      37.098 -24.156 -13.640  0.00  0.00    +0.391 N 
ATOM      2  N   UNL     1      34.381 -23.821 -14.456  0.00  0.00    -0.312 N 
ATOM      3  C   UNL     1      36.760 -24.037 -15.064  0.00  0.00    -0.055 C 
ATOM      4  C   UNL     1      36.018 -24.847 -12.926  0.00  0.00    -0.055 C 
ATOM      5  C   UNL     1      35.467 -23.241 -15.256  0.00  0.00    +0.068 C 
ATOM      6  C   UNL     1      34.699 -24.079 -13.048  0.00  0.00    +0.068 C 
ATOM      7  H   UNL     1      37.207 -23.221 -13.248  0.00  0.00    -0.079 HD
ENDROOT
BRANCH   2   8
ATOM      8  C   UNL     1      33.063 -23.534 -14.827  0.00  0.00    +0.048 C 
ATOM      9  C   UNL     1      32.040 -23.442 -13.862  0.00  0.00    +0.015 C 
ATOM     10  C   UNL     1      32.719 -23.328 -16.179  0.00  0.00    +0.015 C 
ATOM     11  C   UNL     1      30.726 -23.155 -14.234  0.00  0.00    +0.001 C 
ATOM     12  C   UNL     1      31.405 -23.040 -16.549  0.00  0.00    +0.001 C 
ATOM     13  C   UNL     1      30.409 -22.954 -15.576  0.00  0.00    +0.000 C 
ENDBRANCH   2   8
BRANCH   1  14
ATOM     14  C   UNL     1      38.363 -24.871 -13.473  0.00  0.00    -0.045 C 
BRANCH  14  15
ATOM     15  C   UNL     1      38.749 -25.660 -14.726  0.00  0.00    +0.119 C 
BRANCH  15  16
ATOM     16  O   UNL     1      38.460 -27.041 -14.492  0.00  0.00    -0.384 OA
ATOM     17  H   UNL     1      37.627 -27.276 -14.930  0.00  0.00    +0.210 HD
ENDBRANCH  15  16
BRANCH  15  18
ATOM     18  C   UNL     1      40.224 -25.523 -15.095  0.00  0.00    +0.164 C 
BRANCH  18  19
ATOM     19  O   UNL     1      40.867 -24.701 -14.125  0.00  0.00    -0.380 OA
ATOM     20  H   UNL     1      41.724 -24.405 -14.469  0.00  0.00    +0.211 HD
ENDBRANCH  18  19
ENDBRANCH  15  18
ENDBRANCH  14  15
ENDBRANCH   1  14
TORSDOF 6
ENDMDL
MODEL 9
REMARK VINA RESULT:      -7.4      9.342     10.833
REMARK  Name = 65859
REMARK  6 active torsions:
REMARK  status: ('A' for Active; 'I' for Inactive)
REMARK    1  A    between atoms: N_1  and  C_14
REMARK    2  A    between atoms: N_2  and  C_8
REMARK    3  A    between atoms: C_14  and  C_15
REMARK    4  A    between atoms: C_15  and  O_16
REMARK    5  A    between atoms: C_15  and  C_18
REMARK    6  A    between atoms: C_18  and  O_19
REMARK                            x       y       z     vdW  Elec       q    Type
REMARK                         _______ _______ _______ _____ _____    ______ ____
ROOT
ATOM      1  N   UNL     1      35.557 -23.888 -14.409  0.00  0.00    +0.391 N 
ATOM      2  N   UNL     1      32.757 -23.745 -14.956  0.00  0.00    -0.312 N 
ATOM      3  C   UNL     1      34.581 -24.006 -13.319  0.00  0.00    -0.055 C 
ATOM      4  C   UNL     1      35.047 -22.974 -15.439  0.00  0.00    -0.055 C 
ATOM      5  C   UNL     1      33.248 -24.554 -13.834  0.00  0.00    +0.068 C 
ATOM      6  C   UNL     1      33.729 -23.487 -16.024  0.00  0.00    +0.068 C 
ATOM      7  H   UNL     1      35.700 -24.807 -14.826  0.00  0.00    -0.079 HD
ENDROOT
BRANCH   2   8
ATOM      8  C   UNL     1      31.392 -23.798 -15.259  0.00  0.00    +0.048 C 
ATOM      9  C   UNL     1      30.557 -24.775 -14.679  0.00  0.00    +0.015 C 
ATOM     10  C   UNL     1      30.810 -22.876 -16.152  0.00  0.00    +0.015 C 
ATOM     11  C   UNL     1      29.196 -24.826 -14.980  0.00  0.00    +0.001 C 
ATOM     12  C   UNL     1      29.449 -22.928 -16.452  0.00  0.00    +0.001 C 
ATOM     13  C   UNL     1      28.643 -23.904 -15.866  0.00  0.00    +0.000 C 
ENDBRANCH   2   8
BRANCH   1  14
ATOM     14  C   UNL     1      36.843 -23.414 -13.896  0.00  0.00    -0.045 C 
BRANCH  14  15
ATOM     15  C   UNL     1      37.990 -24.361 -14.256  0.00  0.00    +0.119 C 
BRANCH  15  16
ATOM     16  O   UNL     1      38.545 -23.936 -15.504  0.00  0.00    -0.384 OA
ATOM     17  H   UNL     1      39.215 -24.574 -15.795  0.00  0.00    +0.210 HD
ENDBRANCH  15  16
BRANCH  15  18
ATOM     18  C   UNL     1      37.553 -25.818 -14.384  0.00  0.00    +0.164 C 
BRANCH  18  19
ATOM     19  O   UNL     1      37.010 -26.023 -15.686  0.00  0.00    -0.380 OA
ATOM     20  H   UNL     1      36.947 -25.173 -16.147  0.00  0.00    +0.211 HD
ENDBRANCH  18  19
ENDBRANCH  15  18
ENDBRANCH  14  15
ENDBRANCH   1  14
TORSDOF 6
ENDMDL
