MODEL 1
REMARK VINA RESULT:      -9.9      0.000      0.000
REMARK  Name = 12454
REMARK  6 active torsions:
REMARK  status: ('A' for Active; 'I' for Inactive)
REMARK    1  A    between atoms: C_3  and  C_17
REMARK    2  A    between atoms: C_17  and  C_18
REMARK    3  A    between atoms: C_18  and  N_19
REMARK    4  A    between atoms: N_20  and  C_27
REMARK    5  A    between atoms: C_27  and  C_28
REMARK    6  A    between atoms: C_28  and  O_29
REMARK                            x       y       z     vdW  Elec       q    Type
REMARK                         _______ _______ _______ _____ _____    ______ ____
ROOT
ATOM      1 CL   UNL     1      31.219  -4.629 -25.568  0.00  0.00    -0.082 Cl
ATOM      2  S   UNL     1      32.446  -7.457 -20.064  0.00  0.00    -0.087 S 
ATOM      3  C   UNL     1      33.279  -9.413 -23.784  0.00  0.00    -0.028 C 
ATOM      4  C   UNL     1      32.504  -8.886 -22.816  0.00  0.00    -0.003 C 
ATOM      5  C   UNL     1      32.180  -7.435 -22.859  0.00  0.00    +0.007 C 
ATOM      6  C   UNL     1      32.107  -9.739 -21.664  0.00  0.00    +0.006 C 
ATOM      7  C   UNL     1      32.120  -6.706 -21.656  0.00  0.00    +0.029 C 
ATOM      8  C   UNL     1      32.042  -9.172 -20.376  0.00  0.00    +0.029 C 
ATOM      9  C   UNL     1      31.885  -6.776 -24.065  0.00  0.00    +0.012 C 
ATOM     10  C   UNL     1      31.746 -11.089 -21.827  0.00  0.00    +0.000 C 
ATOM     11  C   UNL     1      31.811  -5.338 -21.681  0.00  0.00    +0.007 C 
ATOM     12  C   UNL     1      31.663  -9.964 -19.282  0.00  0.00    +0.006 C 
ATOM     13  C   UNL     1      31.571  -5.415 -24.078  0.00  0.00    +0.058 C 
ATOM     14  C   UNL     1      31.365 -11.866 -20.732  0.00  0.00    +0.000 C 
ATOM     15  C   UNL     1      31.540  -4.696 -22.889  0.00  0.00    +0.012 C 
ATOM     16  C   UNL     1      31.328 -11.305 -19.460  0.00  0.00    +0.001 C 
ENDROOT
BRANCH   3  17
ATOM     17  C   UNL     1      33.774 -10.825 -23.774  0.00  0.00    +0.003 C 
BRANCH  17  18
ATOM     18  C   UNL     1      33.318 -11.573 -25.027  0.00  0.00    -0.073 C 
BRANCH  18  19
ATOM     19  N   UNL     1      33.869 -12.926 -25.037  0.00  0.00    +0.384 N 
ATOM     20  N   UNL     1      33.719 -15.771 -24.543  0.00  0.00    +0.386 N 
ATOM     21  C   UNL     1      33.945 -13.469 -23.675  0.00  0.00    -0.101 C 
ATOM     22  C   UNL     1      33.071 -13.808 -25.897  0.00  0.00    -0.101 C 
ATOM     23  C   UNL     1      34.518 -14.890 -23.683  0.00  0.00    -0.101 C 
ATOM     24  C   UNL     1      33.647 -15.229 -25.906  0.00  0.00    -0.101 C 
ATOM     25  H   UNL     1      34.815 -12.878 -25.416  0.00  0.00    -0.080 HD
ATOM     26  H   UNL     1      32.773 -15.818 -24.165  0.00  0.00    -0.080 HD
BRANCH  20  27
ATOM     27  C   UNL     1      34.268 -17.125 -24.552  0.00  0.00    -0.045 C 
BRANCH  27  28
ATOM     28  C   UNL     1      34.784 -17.505 -23.173  0.00  0.00    +0.115 C 
BRANCH  28  29
ATOM     29  O   UNL     1      36.096 -18.035 -23.305  0.00  0.00    -0.384 OA
ATOM     30  H   UNL     1      36.588 -17.518 -23.963  0.00  0.00    +0.210 HD
ENDBRANCH  28  29
ENDBRANCH  27  28
ENDBRANCH  20  27
ENDBRANCH  18  19
ENDBRANCH  17  18
ENDBRANCH   3  17
TORSDOF 6
ENDMDL
MODEL 2
REMARK VINA RESULT:      -8.7     10.323     14.984
REMARK  Name = 12454
REMARK  6 active torsions:
REMARK  status: ('A' for Active; 'I' for Inactive)
REMARK    1  A    between atoms: C_3  and  C_17
REMARK    2  A    between atoms: C_17  and  C_18
REMARK    3  A    between atoms: C_18  and  N_19
REMARK    4  A    between atoms: N_20  and  C_27
REMARK    5  A    between atoms: C_27  and  C_28
REMARK    6  A    between atoms: C_28  and  O_29
REMARK                            x       y       z     vdW  Elec       q    Type
REMARK                         _______ _______ _______ _____ _____    ______ ____
ROOT
ATOM      1 CL   UNL     1      30.248 -23.763 -16.499  0.00  0.00    -0.082 Cl
ATOM      2  S   UNL     1      34.952 -23.973 -12.302  0.00  0.00    -0.087 S 
ATOM      3  C   UNL     1      35.532 -22.251 -16.182  0.00  0.00    -0.028 C 
ATOM      4  C   UNL     1      35.309 -23.239 -15.295  0.00  0.00    -0.003 C 
ATOM      5  C   UNL     1      33.913 -23.531 -14.872  0.00  0.00    +0.007 C 
ATOM      6  C   UNL     1      36.472 -23.918 -14.663  0.00  0.00    +0.006 C 
ATOM      7  C   UNL     1      33.657 -23.885 -13.534  0.00  0.00    +0.029 C 
ATOM      8  C   UNL     1      36.396 -24.299 -13.309  0.00  0.00    +0.029 C 
ATOM      9  C   UNL     1      32.843 -23.511 -15.784  0.00  0.00    +0.012 C 
ATOM     10  C   UNL     1      37.633 -24.236 -15.390  0.00  0.00    +0.000 C 
ATOM     11  C   UNL     1      32.346 -24.168 -13.123  0.00  0.00    +0.007 C 
ATOM     12  C   UNL     1      37.484 -24.946 -12.702  0.00  0.00    +0.006 C 
ATOM     13  C   UNL     1      31.543 -23.801 -15.367  0.00  0.00    +0.058 C 
ATOM     14  C   UNL     1      38.707 -24.886 -14.778  0.00  0.00    +0.000 C 
ATOM     15  C   UNL     1      31.294 -24.124 -14.037  0.00  0.00    +0.012 C 
ATOM     16  C   UNL     1      38.633 -25.236 -13.434  0.00  0.00    +0.001 C 
ENDROOT
BRANCH   3  17
ATOM     17  C   UNL     1      36.896 -21.784 -16.580  0.00  0.00    +0.003 C 
BRANCH  17  18
ATOM     18  C   UNL     1      37.123 -21.974 -18.080  0.00  0.00    -0.073 C 
BRANCH  18  19
ATOM     19  N   UNL     1      36.340 -21.000 -18.837  0.00  0.00    +0.384 N 
ATOM     20  N   UNL     1      35.161 -19.979 -21.272  0.00  0.00    +0.386 N 
ATOM     21  C   UNL     1      37.162 -20.364 -19.875  0.00  0.00    -0.101 C 
ATOM     22  C   UNL     1      35.159 -21.632 -19.436  0.00  0.00    -0.101 C 
ATOM     23  C   UNL     1      36.343 -19.345 -20.674  0.00  0.00    -0.101 C 
ATOM     24  C   UNL     1      34.339 -20.612 -20.234  0.00  0.00    -0.101 C 
ATOM     25  H   UNL     1      36.025 -20.277 -18.190  0.00  0.00    -0.080 HD
ATOM     26  H   UNL     1      35.477 -20.702 -21.918  0.00  0.00    -0.080 HD
BRANCH  20  27
ATOM     27  C   UNL     1      34.379 -19.006 -22.032  0.00  0.00    -0.045 C 
BRANCH  27  28
ATOM     28  C   UNL     1      34.844 -18.955 -23.479  0.00  0.00    +0.115 C 
BRANCH  28  29
ATOM     29  O   UNL     1      35.634 -17.789 -23.664  0.00  0.00    -0.384 OA
ATOM     30  H   UNL     1      35.791 -17.366 -22.805  0.00  0.00    +0.210 HD
ENDBRANCH  28  29
ENDBRANCH  27  28
ENDBRANCH  20  27
ENDBRANCH  18  19
ENDBRANCH  17  18
ENDBRANCH   3  17
TORSDOF 6
ENDMDL
MODEL 3
REMARK VINA RESULT:      -8.7     10.177     14.618
REMARK  Name = 12454
REMARK  6 active torsions:
REMARK  status: ('A' for Active; 'I' for Inactive)
REMARK    1  A    between atoms: C_3  and  C_17
REMARK    2  A    between atoms: C_17  and  C_18
REMARK    3  A    between atoms: C_18  and  N_19
REMARK    4  A    between atoms: N_20  and  C_27
REMARK    5  A    between atoms: C_27  and  C_28
REMARK    6  A    between atoms: C_28  and  O_29
REMARK                            x       y       z     vdW  Elec       q    Type
REMARK                         _______ _______ _______ _____ _____    ______ ____
ROOT
ATOM      1 CL   UNL     1      37.669 -22.477 -12.852  0.00  0.00    -0.082 Cl
ATOM      2  S   UNL     1      32.070 -25.261 -13.692  0.00  0.00    -0.087 S 
ATOM      3  C   UNL     1      34.023 -23.217 -16.912  0.00  0.00    -0.028 C 
ATOM      4  C   UNL     1      33.386 -23.328 -15.730  0.00  0.00    -0.003 C 
ATOM      5  C   UNL     1      34.181 -23.596 -14.502  0.00  0.00    +0.007 C 
ATOM      6  C   UNL     1      31.899 -23.314 -15.707  0.00  0.00    +0.006 C 
ATOM      7  C   UNL     1      33.658 -24.453 -13.515  0.00  0.00    +0.029 C 
ATOM      8  C   UNL     1      31.215 -24.151 -14.805  0.00  0.00    +0.029 C 
ATOM      9  C   UNL     1      35.424 -22.980 -14.273  0.00  0.00    +0.012 C 
ATOM     10  C   UNL     1      31.151 -22.451 -16.529  0.00  0.00    +0.000 C 
ATOM     11  C   UNL     1      34.394 -24.711 -12.349  0.00  0.00    +0.007 C 
ATOM     12  C   UNL     1      29.812 -24.143 -14.769  0.00  0.00    +0.006 C 
ATOM     13  C   UNL     1      36.147 -23.238 -13.107  0.00  0.00    +0.058 C 
ATOM     14  C   UNL     1      29.756 -22.446 -16.480  0.00  0.00    +0.000 C 
ATOM     15  C   UNL     1      35.635 -24.106 -12.149  0.00  0.00    +0.012 C 
ATOM     16  C   UNL     1      29.088 -23.295 -15.605  0.00  0.00    +0.001 C 
ENDROOT
BRANCH   3  17
ATOM     17  C   UNL     1      33.320 -23.077 -18.224  0.00  0.00    +0.003 C 
BRANCH  17  18
ATOM     18  C   UNL     1      34.320 -22.855 -19.359  0.00  0.00    -0.073 C 
BRANCH  18  19
ATOM     19  N   UNL     1      34.465 -21.426 -19.632  0.00  0.00    +0.384 N 
ATOM     20  N   UNL     1      34.741 -19.160 -21.406  0.00  0.00    +0.386 N 
ATOM     21  C   UNL     1      35.727 -21.155 -20.333  0.00  0.00    -0.101 C 
ATOM     22  C   UNL     1      33.328 -20.926 -20.414  0.00  0.00    -0.101 C 
ATOM     23  C   UNL     1      35.880 -19.659 -20.625  0.00  0.00    -0.101 C 
ATOM     24  C   UNL     1      33.481 -19.429 -20.704  0.00  0.00    -0.101 C 
ATOM     25  H   UNL     1      34.482 -20.934 -18.739  0.00  0.00    -0.080 HD
ATOM     26  H   UNL     1      34.724 -19.653 -22.299  0.00  0.00    -0.080 HD
BRANCH  20  27
ATOM     27  C   UNL     1      34.888 -17.732 -21.682  0.00  0.00    -0.045 C 
BRANCH  27  28
ATOM     28  C   UNL     1      34.989 -17.481 -23.179  0.00  0.00    +0.115 C 
BRANCH  28  29
ATOM     29  O   UNL     1      35.731 -16.288 -23.393  0.00  0.00    -0.384 OA
ATOM     30  H   UNL     1      35.445 -15.613 -22.758  0.00  0.00    +0.210 HD
ENDBRANCH  28  29
ENDBRANCH  27  28
ENDBRANCH  20  27
ENDBRANCH  18  19
ENDBRANCH  17  18
ENDBRANCH   3  17
TORSDOF 6
ENDMDL
MODEL 4
REMARK VINA RESULT:      -8.5     10.042     14.616
REMARK  Name = 12454
REMARK  6 active torsions:
REMARK  status: ('A' for Active; 'I' for Inactive)
REMARK    1  A    between atoms: C_3  and  C_17
REMARK    2  A    between atoms: C_17  and  C_18
REMARK    3  A    between atoms: C_18  and  N_19
REMARK    4  A    between atoms: N_20  and  C_27
REMARK    5  A    between atoms: C_27  and  C_28
REMARK    6  A    between atoms: C_28  and  O_29
REMARK                            x       y       z     vdW  Elec       q    Type
REMARK                         _______ _______ _______ _____ _____    ______ ____
ROOT
ATOM      1 CL   UNL     1      28.320 -24.380 -16.890  0.00  0.00    -0.082 Cl
ATOM      2  S   UNL     1      33.080 -23.460 -12.854  0.00  0.00    -0.087 S 
ATOM      3  C   UNL     1      33.588 -22.789 -17.055  0.00  0.00    -0.028 C 
ATOM      4  C   UNL     1      33.389 -23.517 -15.940  0.00  0.00    -0.003 C 
ATOM      5  C   UNL     1      32.003 -23.704 -15.435  0.00  0.00    +0.007 C 
ATOM      6  C   UNL     1      34.569 -24.000 -15.172  0.00  0.00    +0.006 C 
ATOM      7  C   UNL     1      31.768 -23.703 -14.047  0.00  0.00    +0.029 C 
ATOM      8  C   UNL     1      34.514 -24.021 -13.765  0.00  0.00    +0.029 C 
ATOM      9  C   UNL     1      30.921 -23.928 -16.304  0.00  0.00    +0.012 C 
ATOM     10  C   UNL     1      35.724 -24.484 -15.812  0.00  0.00    +0.000 C 
ATOM     11  C   UNL     1      30.466 -23.883 -13.557  0.00  0.00    +0.007 C 
ATOM     12  C   UNL     1      35.618 -24.479 -13.029  0.00  0.00    +0.006 C 
ATOM     13  C   UNL     1      29.630 -24.113 -15.806  0.00  0.00    +0.058 C 
ATOM     14  C   UNL     1      36.814 -24.944 -15.070  0.00  0.00    +0.000 C 
ATOM     15  C   UNL     1      29.402 -24.085 -14.435  0.00  0.00    +0.012 C 
ATOM     16  C   UNL     1      36.762 -24.937 -13.680  0.00  0.00    +0.001 C 
ENDROOT
BRANCH   3  17
ATOM     17  C   UNL     1      34.941 -22.427 -17.581  0.00  0.00    +0.003 C 
BRANCH  17  18
ATOM     18  C   UNL     1      34.933 -22.354 -19.107  0.00  0.00    -0.073 C 
BRANCH  18  19
ATOM     19  N   UNL     1      35.024 -20.964 -19.548  0.00  0.00    +0.384 N 
ATOM     20  N   UNL     1      35.258 -18.916 -21.575  0.00  0.00    +0.386 N 
ATOM     21  C   UNL     1      36.295 -20.718 -20.240  0.00  0.00    -0.101 C 
ATOM     22  C   UNL     1      33.892 -20.617 -20.416  0.00  0.00    -0.101 C 
ATOM     23  C   UNL     1      36.391 -19.262 -20.708  0.00  0.00    -0.101 C 
ATOM     24  C   UNL     1      33.988 -19.159 -20.882  0.00  0.00    -0.101 C 
ATOM     25  H   UNL     1      34.989 -20.368 -18.721  0.00  0.00    -0.080 HD
ATOM     26  H   UNL     1      35.293 -19.513 -22.402  0.00  0.00    -0.080 HD
BRANCH  20  27
ATOM     27  C   UNL     1      35.350 -17.526 -22.019  0.00  0.00    -0.045 C 
BRANCH  27  28
ATOM     28  C   UNL     1      34.329 -16.663 -21.295  0.00  0.00    +0.115 C 
BRANCH  28  29
ATOM     29  O   UNL     1      35.012 -15.829 -20.367  0.00  0.00    -0.384 OA
ATOM     30  H   UNL     1      35.001 -14.914 -20.687  0.00  0.00    +0.210 HD
ENDBRANCH  28  29
ENDBRANCH  27  28
ENDBRANCH  20  27
ENDBRANCH  18  19
ENDBRANCH  17  18
ENDBRANCH   3  17
TORSDOF 6
ENDMDL
MODEL 5
REMARK VINA RESULT:      -8.1     13.379     15.912
REMARK  Name = 12454
REMARK  6 active torsions:
REMARK  status: ('A' for Active; 'I' for Inactive)
REMARK    1  A    between atoms: C_3  and  C_17
REMARK    2  A    between atoms: C_17  and  C_18
REMARK    3  A    between atoms: C_18  and  N_19
REMARK    4  A    between atoms: N_20  and  C_27
REMARK    5  A    between atoms: C_27  and  C_28
REMARK    6  A    between atoms: C_28  and  O_29
REMARK                            x       y       z     vdW  Elec       q    Type
REMARK                         _______ _______ _______ _____ _____    ______ ____
ROOT
ATOM      1 CL   UNL     1      33.581 -21.185 -19.516  0.00  0.00    -0.082 Cl
ATOM      2  S   UNL     1      37.792 -23.413 -15.382  0.00  0.00    -0.087 S 
ATOM      3  C   UNL     1      33.661 -24.526 -15.141  0.00  0.00    -0.028 C 
ATOM      4  C   UNL     1      34.719 -23.694 -15.072  0.00  0.00    -0.003 C 
ATOM      5  C   UNL     1      35.173 -22.998 -16.305  0.00  0.00    +0.007 C 
ATOM      6  C   UNL     1      35.481 -23.600 -13.798  0.00  0.00    +0.006 C 
ATOM      7  C   UNL     1      36.552 -22.815 -16.525  0.00  0.00    +0.029 C 
ATOM      8  C   UNL     1      36.882 -23.458 -13.842  0.00  0.00    +0.029 C 
ATOM      9  C   UNL     1      34.263 -22.474 -17.240  0.00  0.00    +0.012 C 
ATOM     10  C   UNL     1      34.840 -23.598 -12.546  0.00  0.00    +0.000 C 
ATOM     11  C   UNL     1      36.994 -22.155 -17.681  0.00  0.00    +0.007 C 
ATOM     12  C   UNL     1      37.613 -23.362 -12.648  0.00  0.00    +0.006 C 
ATOM     13  C   UNL     1      34.714 -21.813 -18.384  0.00  0.00    +0.058 C 
ATOM     14  C   UNL     1      35.577 -23.496 -11.365  0.00  0.00    +0.000 C 
ATOM     15  C   UNL     1      36.078 -21.659 -18.607  0.00  0.00    +0.012 C 
ATOM     16  C   UNL     1      36.962 -23.382 -11.416  0.00  0.00    +0.001 C 
ENDROOT
BRANCH   3  17
ATOM     17  C   UNL     1      33.197 -25.375 -14.000  0.00  0.00    +0.003 C 
BRANCH  17  18
ATOM     18  C   UNL     1      31.791 -24.972 -13.556  0.00  0.00    -0.073 C 
BRANCH  18  19
ATOM     19  N   UNL     1      31.022 -24.476 -14.696  0.00  0.00    +0.384 N 
ATOM     20  N   UNL     1      28.602 -23.498 -15.939  0.00  0.00    +0.386 N 
ATOM     21  C   UNL     1      29.904 -25.377 -15.002  0.00  0.00    -0.101 C 
ATOM     22  C   UNL     1      30.531 -23.117 -14.442  0.00  0.00    -0.101 C 
ATOM     23  C   UNL     1      29.093 -24.858 -16.194  0.00  0.00    -0.101 C 
ATOM     24  C   UNL     1      29.721 -22.597 -15.636  0.00  0.00    -0.101 C 
ATOM     25  H   UNL     1      31.642 -24.448 -15.506  0.00  0.00    -0.080 HD
ATOM     26  H   UNL     1      27.983 -23.526 -15.129  0.00  0.00    -0.080 HD
BRANCH  20  27
ATOM     27  C   UNL     1      27.831 -23.002 -17.078  0.00  0.00    -0.045 C 
BRANCH  27  28
ATOM     28  C   UNL     1      26.773 -22.011 -16.620  0.00  0.00    +0.115 C 
BRANCH  28  29
ATOM     29  O   UNL     1      26.694 -20.957 -17.570  0.00  0.00    -0.384 OA
ATOM     30  H   UNL     1      26.042 -20.303 -17.273  0.00  0.00    +0.210 HD
ENDBRANCH  28  29
ENDBRANCH  27  28
ENDBRANCH  20  27
ENDBRANCH  18  19
ENDBRANCH  17  18
ENDBRANCH   3  17
TORSDOF 6
ENDMDL
MODEL 6
REMARK VINA RESULT:      -7.7      4.842      8.239
REMARK  Name = 12454
REMARK  6 active torsions:
REMARK  status: ('A' for Active; 'I' for Inactive)
REMARK    1  A    between atoms: C_3  and  C_17
REMARK    2  A    between atoms: C_17  and  C_18
REMARK    3  A    between atoms: C_18  and  N_19
REMARK    4  A    between atoms: N_20  and  C_27
REMARK    5  A    between atoms: C_27  and  C_28
REMARK    6  A    between atoms: C_28  and  O_29
REMARK                            x       y       z     vdW  Elec       q    Type
REMARK                         _______ _______ _______ _____ _____    ______ ____
ROOT
ATOM      1 CL   UNL     1      35.668 -10.690 -26.766  0.00  0.00    -0.082 Cl
ATOM      2  S   UNL     1      31.694 -12.430 -22.186  0.00  0.00    -0.087 S 
ATOM      3  C   UNL     1      31.970  -8.339 -23.432  0.00  0.00    -0.028 C 
ATOM      4  C   UNL     1      32.396  -9.486 -22.868  0.00  0.00    -0.003 C 
ATOM      5  C   UNL     1      33.052 -10.512 -23.722  0.00  0.00    +0.007 C 
ATOM      6  C   UNL     1      32.079  -9.750 -21.439  0.00  0.00    +0.006 C 
ATOM      7  C   UNL     1      32.801 -11.875 -23.479  0.00  0.00    +0.029 C 
ATOM      8  C   UNL     1      31.759 -11.060 -21.035  0.00  0.00    +0.029 C 
ATOM      9  C   UNL     1      33.956 -10.162 -24.741  0.00  0.00    +0.012 C 
ATOM     10  C   UNL     1      32.134  -8.736 -20.466  0.00  0.00    +0.000 C 
ATOM     11  C   UNL     1      33.418 -12.854 -24.273  0.00  0.00    +0.007 C 
ATOM     12  C   UNL     1      31.463 -11.324 -19.688  0.00  0.00    +0.006 C 
ATOM     13  C   UNL     1      34.569 -11.143 -25.521  0.00  0.00    +0.058 C 
ATOM     14  C   UNL     1      31.844  -9.011 -19.128  0.00  0.00    +0.000 C 
ATOM     15  C   UNL     1      34.296 -12.487 -25.291  0.00  0.00    +0.012 C 
ATOM     16  C   UNL     1      31.505 -10.303 -18.741  0.00  0.00    +0.001 C 
ENDROOT
BRANCH   3  17
ATOM     17  C   UNL     1      31.186  -7.296 -22.701  0.00  0.00    +0.003 C 
BRANCH  17  18
ATOM     18  C   UNL     1      31.897  -5.944 -22.748  0.00  0.00    -0.073 C 
BRANCH  18  19
ATOM     19  N   UNL     1      31.583  -5.249 -23.994  0.00  0.00    +0.384 N 
ATOM     20  N   UNL     1      32.050  -3.216 -25.996  0.00  0.00    +0.386 N 
ATOM     21  C   UNL     1      31.262  -3.839 -23.739  0.00  0.00    -0.101 C 
ATOM     22  C   UNL     1      32.695  -5.357 -24.946  0.00  0.00    -0.101 C 
ATOM     23  C   UNL     1      30.937  -3.107 -25.045  0.00  0.00    -0.101 C 
ATOM     24  C   UNL     1      32.368  -4.626 -26.253  0.00  0.00    -0.101 C 
ATOM     25  H   UNL     1      30.763  -5.695 -24.406  0.00  0.00    -0.080 HD
ATOM     26  H   UNL     1      32.870  -2.771 -25.584  0.00  0.00    -0.080 HD
BRANCH  20  27
ATOM     27  C   UNL     1      31.738  -2.519 -27.242  0.00  0.00    -0.045 C 
BRANCH  27  28
ATOM     28  C   UNL     1      32.119  -3.369 -28.444  0.00  0.00    +0.115 C 
BRANCH  28  29
ATOM     29  O   UNL     1      31.204  -3.104 -29.499  0.00  0.00    -0.384 OA
ATOM     30  H   UNL     1      31.527  -3.514 -30.317  0.00  0.00    +0.210 HD
ENDBRANCH  28  29
ENDBRANCH  27  28
ENDBRANCH  20  27
ENDBRANCH  18  19
ENDBRANCH  17  18
ENDBRANCH   3  17
TORSDOF 6
ENDMDL
MODEL 7
REMARK VINA RESULT:      -7.3      2.847      4.790
REMARK  Name = 12454
REMARK  6 active torsions:
REMARK  status: ('A' for Active; 'I' for Inactive)
REMARK    1  A    between atoms: C_3  and  C_17
REMARK    2  A    between atoms: C_17  and  C_18
REMARK    3  A    between atoms: C_18  and  N_19
REMARK    4  A    between atoms: N_20  and  C_27
REMARK    5  A    between atoms: C_27  and  C_28
REMARK    6  A    between atoms: C_28  and  O_29
REMARK                            x       y       z     vdW  Elec       q    Type
REMARK                         _______ _______ _______ _____ _____    ______ ____
ROOT
ATOM      1 CL   UNL     1      33.913 -13.587 -27.792  0.00  0.00    -0.082 Cl
ATOM      2  S   UNL     1      35.199  -8.645 -24.088  0.00  0.00    -0.087 S 
ATOM      3  C   UNL     1      32.546 -11.748 -22.786  0.00  0.00    -0.028 C 
ATOM      4  C   UNL     1      32.945 -10.705 -23.538  0.00  0.00    -0.003 C 
ATOM      5  C   UNL     1      33.757 -10.960 -24.758  0.00  0.00    +0.007 C 
ATOM      6  C   UNL     1      32.677  -9.323 -23.057  0.00  0.00    +0.006 C 
ATOM      7  C   UNL     1      34.796 -10.071 -25.093  0.00  0.00    +0.029 C 
ATOM      8  C   UNL     1      33.640  -8.318 -23.273  0.00  0.00    +0.029 C 
ATOM      9  C   UNL     1      33.489 -12.041 -25.615  0.00  0.00    +0.012 C 
ATOM     10  C   UNL     1      31.465  -8.975 -22.432  0.00  0.00    +0.000 C 
ATOM     11  C   UNL     1      35.567 -10.297 -26.243  0.00  0.00    +0.007 C 
ATOM     12  C   UNL     1      33.396  -7.009 -22.829  0.00  0.00    +0.006 C 
ATOM     13  C   UNL     1      34.257 -12.253 -26.761  0.00  0.00    +0.058 C 
ATOM     14  C   UNL     1      31.231  -7.669 -22.000  0.00  0.00    +0.000 C 
ATOM     15  C   UNL     1      35.298 -11.385 -27.072  0.00  0.00    +0.012 C 
ATOM     16  C   UNL     1      32.198  -6.688 -22.194  0.00  0.00    +0.001 C 
ENDROOT
BRANCH   3  17
ATOM     17  C   UNL     1      31.839 -11.606 -21.476  0.00  0.00    +0.003 C 
BRANCH  17  18
ATOM     18  C   UNL     1      31.868 -12.918 -20.693  0.00  0.00    -0.073 C 
BRANCH  18  19
ATOM     19  N   UNL     1      32.946 -13.775 -21.181  0.00  0.00    +0.384 N 
ATOM     20  N   UNL     1      34.096 -16.347 -21.833  0.00  0.00    +0.386 N 
ATOM     21  C   UNL     1      33.394 -14.698 -20.131  0.00  0.00    -0.101 C 
ATOM     22  C   UNL     1      32.521 -14.521 -22.372  0.00  0.00    -0.101 C 
ATOM     23  C   UNL     1      34.522 -15.602 -20.642  0.00  0.00    -0.101 C 
ATOM     24  C   UNL     1      33.651 -15.423 -22.883  0.00  0.00    -0.101 C 
ATOM     25  H   UNL     1      33.732 -13.178 -21.439  0.00  0.00    -0.080 HD
ATOM     26  H   UNL     1      33.310 -16.943 -21.575  0.00  0.00    -0.080 HD
BRANCH  20  27
ATOM     27  C   UNL     1      35.173 -17.206 -22.320  0.00  0.00    -0.045 C 
BRANCH  27  28
ATOM     28  C   UNL     1      35.105 -18.577 -21.666  0.00  0.00    +0.115 C 
BRANCH  28  29
ATOM     29  O   UNL     1      36.044 -18.622 -20.600  0.00  0.00    -0.384 OA
ATOM     30  H   UNL     1      36.868 -19.025 -20.914  0.00  0.00    +0.210 HD
ENDBRANCH  28  29
ENDBRANCH  27  28
ENDBRANCH  20  27
ENDBRANCH  18  19
ENDBRANCH  17  18
ENDBRANCH   3  17
TORSDOF 6
ENDMDL
MODEL 8
REMARK VINA RESULT:      -7.3      5.150      9.608
REMARK  Name = 12454
REMARK  6 active torsions:
REMARK  status: ('A' for Active; 'I' for Inactive)
REMARK    1  A    between atoms: C_3  and  C_17
REMARK    2  A    between atoms: C_17  and  C_18
REMARK    3  A    between atoms: C_18  and  N_19
REMARK    4  A    between atoms: N_20  and  C_27
REMARK    5  A    between atoms: C_27  and  C_28
REMARK    6  A    between atoms: C_28  and  O_29
REMARK                            x       y       z     vdW  Elec       q    Type
REMARK                         _______ _______ _______ _____ _____    ______ ____
ROOT
ATOM      1 CL   UNL     1      33.152 -20.489 -19.609  0.00  0.00    -0.082 Cl
ATOM      2  S   UNL     1      35.361 -17.079 -24.434  0.00  0.00    -0.087 S 
ATOM      3  C   UNL     1      33.530 -15.189 -21.052  0.00  0.00    -0.028 C 
ATOM      4  C   UNL     1      33.574 -15.947 -22.164  0.00  0.00    -0.003 C 
ATOM      5  C   UNL     1      33.918 -17.389 -22.046  0.00  0.00    +0.007 C 
ATOM      6  C   UNL     1      33.410 -15.292 -23.490  0.00  0.00    +0.006 C 
ATOM      7  C   UNL     1      34.716 -17.992 -23.036  0.00  0.00    +0.029 C 
ATOM      8  C   UNL     1      34.173 -15.748 -24.583  0.00  0.00    +0.029 C 
ATOM      9  C   UNL     1      33.430 -18.184 -20.993  0.00  0.00    +0.012 C 
ATOM     10  C   UNL     1      32.479 -14.260 -23.700  0.00  0.00    +0.000 C 
ATOM     11  C   UNL     1      35.044 -19.353 -22.939  0.00  0.00    +0.007 C 
ATOM     12  C   UNL     1      34.023 -15.144 -25.841  0.00  0.00    +0.006 C 
ATOM     13  C   UNL     1      33.756 -19.538 -20.909  0.00  0.00    +0.058 C 
ATOM     14  C   UNL     1      32.334 -13.670 -24.956  0.00  0.00    +0.000 C 
ATOM     15  C   UNL     1      34.566 -20.121 -21.878  0.00  0.00    +0.012 C 
ATOM     16  C   UNL     1      33.109 -14.108 -26.025  0.00  0.00    +0.001 C 
ENDROOT
BRANCH   3  17
ATOM     17  C   UNL     1      33.324 -13.708 -21.063  0.00  0.00    +0.003 C 
BRANCH  17  18
ATOM     18  C   UNL     1      32.037 -13.330 -20.330  0.00  0.00    -0.073 C 
BRANCH  18  19
ATOM     19  N   UNL     1      31.636 -11.969 -20.681  0.00  0.00    +0.384 N 
ATOM     20  N   UNL     1      32.191  -9.196 -21.284  0.00  0.00    +0.386 N 
ATOM     21  C   UNL     1      32.025 -11.023 -19.628  0.00  0.00    -0.101 C 
ATOM     22  C   UNL     1      32.215 -11.570 -21.969  0.00  0.00    -0.101 C 
ATOM     23  C   UNL     1      31.610  -9.594 -19.995  0.00  0.00    -0.101 C 
ATOM     24  C   UNL     1      31.798 -10.141 -22.336  0.00  0.00    -0.101 C 
ATOM     25  H   UNL     1      30.619 -11.952 -20.767  0.00  0.00    -0.080 HD
ATOM     26  H   UNL     1      33.207  -9.214 -21.197  0.00  0.00    -0.080 HD
BRANCH  20  27
ATOM     27  C   UNL     1      31.793  -7.834 -21.633  0.00  0.00    -0.045 C 
BRANCH  27  28
ATOM     28  C   UNL     1      32.286  -6.845 -20.590  0.00  0.00    +0.115 C 
BRANCH  28  29
ATOM     29  O   UNL     1      31.811  -5.549 -20.929  0.00  0.00    -0.384 OA
ATOM     30  H   UNL     1      30.939  -5.624 -21.346  0.00  0.00    +0.210 HD
ENDBRANCH  28  29
ENDBRANCH  27  28
ENDBRANCH  20  27
ENDBRANCH  18  19
ENDBRANCH  17  18
ENDBRANCH   3  17
TORSDOF 6
ENDMDL
MODEL 9
REMARK VINA RESULT:      -7.1      4.462      7.970
REMARK  Name = 12454
REMARK  6 active torsions:
REMARK  status: ('A' for Active; 'I' for Inactive)
REMARK    1  A    between atoms: C_3  and  C_17
REMARK    2  A    between atoms: C_17  and  C_18
REMARK    3  A    between atoms: C_18  and  N_19
REMARK    4  A    between atoms: N_20  and  C_27
REMARK    5  A    between atoms: C_27  and  C_28
REMARK    6  A    between atoms: C_28  and  O_29
REMARK                            x       y       z     vdW  Elec       q    Type
REMARK                         _______ _______ _______ _____ _____    ______ ____
ROOT
ATOM      1 CL   UNL     1      31.163 -11.213 -19.099  0.00  0.00    -0.082 Cl
ATOM      2  S   UNL     1      33.763 -15.098 -23.335  0.00  0.00    -0.087 S 
ATOM      3  C   UNL     1      34.114 -10.845 -23.732  0.00  0.00    -0.028 C 
ATOM      4  C   UNL     1      33.477 -12.032 -23.716  0.00  0.00    -0.003 C 
ATOM      5  C   UNL     1      32.970 -12.564 -22.423  0.00  0.00    +0.007 C 
ATOM      6  C   UNL     1      33.418 -12.837 -24.965  0.00  0.00    +0.006 C 
ATOM      7  C   UNL     1      33.048 -13.945 -22.166  0.00  0.00    +0.029 C 
ATOM      8  C   UNL     1      33.528 -14.239 -24.888  0.00  0.00    +0.029 C 
ATOM      9  C   UNL     1      32.369 -11.730 -21.463  0.00  0.00    +0.012 C 
ATOM     10  C   UNL     1      33.207 -12.244 -26.223  0.00  0.00    +0.000 C 
ATOM     11  C   UNL     1      32.568 -14.461 -20.953  0.00  0.00    +0.007 C 
ATOM     12  C   UNL     1      33.468 -15.011 -26.058  0.00  0.00    +0.006 C 
ATOM     13  C   UNL     1      31.889 -12.254 -20.261  0.00  0.00    +0.058 C 
ATOM     14  C   UNL     1      33.143 -13.022 -27.380  0.00  0.00    +0.000 C 
ATOM     15  C   UNL     1      31.993 -13.616 -20.004  0.00  0.00    +0.012 C 
ATOM     16  C   UNL     1      33.277 -14.404 -27.298  0.00  0.00    +0.001 C 
ENDROOT
BRANCH   3  17
ATOM     17  C   UNL     1      34.777 -10.275 -24.946  0.00  0.00    +0.003 C 
BRANCH  17  18
ATOM     18  C   UNL     1      34.715  -8.748 -24.936  0.00  0.00    -0.073 C 
BRANCH  18  19
ATOM     19  N   UNL     1      33.727  -8.288 -23.963  0.00  0.00    +0.384 N 
ATOM     20  N   UNL     1      32.513  -6.270 -22.284  0.00  0.00    +0.386 N 
ATOM     21  C   UNL     1      34.383  -7.821 -22.734  0.00  0.00    -0.101 C 
ATOM     22  C   UNL     1      32.891  -7.225 -24.532  0.00  0.00    -0.101 C 
ATOM     23  C   UNL     1      33.350  -7.333 -21.714  0.00  0.00    -0.101 C 
ATOM     24  C   UNL     1      31.856  -6.738 -23.511  0.00  0.00    -0.101 C 
ATOM     25  H   UNL     1      33.127  -9.077 -23.725  0.00  0.00    -0.080 HD
ATOM     26  H   UNL     1      33.114  -5.481 -22.522  0.00  0.00    -0.080 HD
BRANCH  20  27
ATOM     27  C   UNL     1      31.527  -5.807 -21.311  0.00  0.00    -0.045 C 
BRANCH  27  28
ATOM     28  C   UNL     1      30.294  -5.260 -22.013  0.00  0.00    +0.115 C 
BRANCH  28  29
ATOM     29  O   UNL     1      30.357  -3.840 -22.005  0.00  0.00    -0.384 OA
ATOM     30  H   UNL     1      29.816  -3.489 -22.730  0.00  0.00    +0.210 HD
ENDBRANCH  28  29
ENDBRANCH  27  28
ENDBRANCH  20  27
ENDBRANCH  18  19
ENDBRANCH  17  18
ENDBRANCH   3  17
TORSDOF 6
ENDMDL
