MODEL 1
REMARK VINA RESULT:      -8.4      0.000      0.000
REMARK  Name = 157385
REMARK  9 active torsions:
REMARK  status: ('A' for Active; 'I' for Inactive)
REMARK    1  A    between atoms: C_1  and  C_3
REMARK    2  A    between atoms: C_1  and  N_17
REMARK    3  A    between atoms: C_1  and  C_31
REMARK    4  A    between atoms: C_4  and  O_10
REMARK    5  A    between atoms: C_5  and  O_12
REMARK    6  A    between atoms: C_6  and  O_14
REMARK    7  A    between atoms: C_7  and  S_8
REMARK    8  A    between atoms: C_18  and  C_22
REMARK    9  A    between atoms: C_21  and  C_28
REMARK                            x       y       z     vdW  Elec       q    Type
REMARK                         _______ _______ _______ _____ _____    ______ ____
ROOT
ATOM      1  C   UNL     1      33.159 -11.802 -24.235  0.00  0.00    +0.116 C 
ENDROOT
BRANCH   1   3
ATOM      2  O   UNL     1      32.611  -9.490 -24.054  0.00  0.00    -0.341 OA
ATOM      3  C   UNL     1      33.141 -10.594 -23.304  0.00  0.00    +0.164 C 
ATOM      4  C   UNL     1      32.314 -10.847 -22.037  0.00  0.00    +0.168 C 
ATOM      5  C   UNL     1      32.228  -9.571 -21.197  0.00  0.00    +0.170 C 
ATOM      6  C   UNL     1      31.716  -8.410 -22.049  0.00  0.00    +0.177 C 
ATOM      7  C   UNL     1      32.535  -8.250 -23.339  0.00  0.00    +0.192 C 
BRANCH   7   8
ATOM      8  S   UNL     1      34.179  -7.477 -23.093  0.00  0.00    -0.109 S 
ATOM      9  C   UNL     1      34.361  -6.766 -24.742  0.00  0.00    +0.072 C 
ENDBRANCH   7   8
BRANCH   4  10
ATOM     10  O   UNL     1      30.999 -11.259 -22.419  0.00  0.00    -0.379 OA
ATOM     11  H   UNL     1      30.408 -11.208 -21.651  0.00  0.00    +0.211 HD
ENDBRANCH   4  10
BRANCH   5  12
ATOM     12  O   UNL     1      31.340  -9.773 -20.099  0.00  0.00    -0.379 OA
ATOM     13  H   UNL     1      30.596  -9.154 -20.167  0.00  0.00    +0.211 HD
ENDBRANCH   5  12
BRANCH   6  14
ATOM     14  O   UNL     1      31.709  -7.197 -21.303  0.00  0.00    -0.379 OA
ATOM     15  H   UNL     1      32.178  -7.330 -20.464  0.00  0.00    +0.211 HD
ENDBRANCH   6  14
ENDBRANCH   1   3
BRANCH   1  17
ATOM     16  O   UNL     1      32.149 -14.180 -22.909  0.00  0.00    -0.277 OA
ATOM     17  N   UNL     1      33.930 -12.876 -23.648  0.00  0.00    -0.304 N 
ATOM     18  C   UNL     1      33.354 -13.973 -23.035  0.00  0.00    +0.202 C 
ATOM     19  H   UNL     1      34.912 -12.822 -23.686  0.00  0.00    +0.149 HD
BRANCH  18  22
ATOM     20  N   UNL     1      33.983 -15.289 -21.170  0.00  0.00    +0.391 N 
ATOM     21  C   UNL     1      35.335 -17.257 -22.872  0.00  0.00    -0.004 C 
ATOM     22  C   UNL     1      34.376 -14.945 -22.535  0.00  0.00    +0.017 C 
ATOM     23  C   UNL     1      34.410 -16.175 -23.443  0.00  0.00    -0.013 C 
ATOM     24  C   UNL     1      34.947 -17.554 -21.418  0.00  0.00    -0.023 C 
ATOM     25  C   UNL     1      34.894 -16.274 -20.585  0.00  0.00    -0.081 C 
ATOM     26  H   UNL     1      33.040 -15.676 -21.183  0.00  0.00    -0.084 HD
ATOM     27  H   UNL     1      34.018 -14.442 -20.602  0.00  0.00    -0.084 HD
BRANCH  21  28
ATOM     28  C   UNL     1      35.291 -18.523 -23.722  0.00  0.00    -0.000 C 
ATOM     29  C   UNL     1      34.462 -18.321 -24.975  0.00  0.00    -0.000 C 
ENDBRANCH  21  28
ENDBRANCH  18  22
ENDBRANCH   1  17
BRANCH   1  31
ATOM     30 CL   UNL     1      35.260 -10.677 -25.635  0.00  0.00    -0.113 Cl
ATOM     31  C   UNL     1      33.646 -11.457 -25.656  0.00  0.00    +0.100 C 
ATOM     32  C   UNL     1      33.698 -12.676 -26.574  0.00  0.00    +0.019 C 
ENDBRANCH   1  31
TORSDOF 9
ENDMDL
MODEL 2
REMARK VINA RESULT:      -8.3     13.048     15.579
REMARK  Name = 157385
REMARK  9 active torsions:
REMARK  status: ('A' for Active; 'I' for Inactive)
REMARK    1  A    between atoms: C_1  and  C_3
REMARK    2  A    between atoms: C_1  and  N_17
REMARK    3  A    between atoms: C_1  and  C_31
REMARK    4  A    between atoms: C_4  and  O_10
REMARK    5  A    between atoms: C_5  and  O_12
REMARK    6  A    between atoms: C_6  and  O_14
REMARK    7  A    between atoms: C_7  and  S_8
REMARK    8  A    between atoms: C_18  and  C_22
REMARK    9  A    between atoms: C_21  and  C_28
REMARK                            x       y       z     vdW  Elec       q    Type
REMARK                         _______ _______ _______ _____ _____    ______ ____
ROOT
ATOM      1  C   UNL     1      35.150 -23.181 -15.492  0.00  0.00    +0.116 C 
ENDROOT
BRANCH   1   3
ATOM      2  O   UNL     1      37.269 -23.668 -14.516  0.00  0.00    -0.341 OA
ATOM      3  C   UNL     1      35.930 -24.173 -14.634  0.00  0.00    +0.164 C 
ATOM      4  C   UNL     1      35.293 -24.375 -13.254  0.00  0.00    +0.168 C 
ATOM      5  C   UNL     1      36.173 -25.283 -12.392  0.00  0.00    +0.170 C 
ATOM      6  C   UNL     1      37.601 -24.742 -12.342  0.00  0.00    +0.177 C 
ATOM      7  C   UNL     1      38.161 -24.488 -13.749  0.00  0.00    +0.192 C 
BRANCH   7   8
ATOM      8  S   UNL     1      38.662 -26.010 -14.643  0.00  0.00    -0.109 S 
ATOM      9  C   UNL     1      40.444 -25.720 -14.632  0.00  0.00    +0.072 C 
ENDBRANCH   7   8
BRANCH   4  10
ATOM     10  O   UNL     1      35.152 -23.102 -12.620  0.00  0.00    -0.379 OA
ATOM     11  H   UNL     1      35.986 -22.861 -12.187  0.00  0.00    +0.211 HD
ENDBRANCH   4  10
BRANCH   5  12
ATOM     12  O   UNL     1      35.650 -25.349 -11.067  0.00  0.00    -0.379 OA
ATOM     13  H   UNL     1      36.180 -24.785 -10.483  0.00  0.00    +0.211 HD
ENDBRANCH   5  12
BRANCH   6  14
ATOM     14  O   UNL     1      38.452 -25.620 -11.611  0.00  0.00    -0.379 OA
ATOM     15  H   UNL     1      38.848 -25.141 -10.867  0.00  0.00    +0.211 HD
ENDBRANCH   6  14
ENDBRANCH   1   3
BRANCH   1  17
ATOM     16  O   UNL     1      32.634 -22.472 -14.231  0.00  0.00    -0.277 OA
ATOM     17  N   UNL     1      33.837 -23.704 -15.796  0.00  0.00    -0.304 N 
ATOM     18  C   UNL     1      32.691 -23.301 -15.135  0.00  0.00    +0.202 C 
ATOM     19  H   UNL     1      33.755 -24.381 -16.507  0.00  0.00    +0.149 HD
BRANCH  18  22
ATOM     20  N   UNL     1      30.938 -24.786 -14.561  0.00  0.00    +0.391 N 
ATOM     21  C   UNL     1      29.127 -23.591 -16.533  0.00  0.00    -0.004 C 
ATOM     22  C   UNL     1      31.466 -23.980 -15.661  0.00  0.00    +0.017 C 
ATOM     23  C   UNL     1      30.454 -22.934 -16.133  0.00  0.00    -0.013 C 
ATOM     24  C   UNL     1      28.627 -24.483 -15.391  0.00  0.00    -0.023 C 
ATOM     25  C   UNL     1      29.704 -25.472 -14.947  0.00  0.00    -0.081 C 
ATOM     26  H   UNL     1      30.746 -24.177 -13.766  0.00  0.00    -0.084 HD
ATOM     27  H   UNL     1      31.634 -25.491 -14.316  0.00  0.00    -0.084 HD
BRANCH  21  28
ATOM     28  C   UNL     1      28.085 -22.540 -16.906  0.00  0.00    -0.000 C 
ATOM     29  C   UNL     1      27.124 -22.282 -15.762  0.00  0.00    -0.000 C 
ENDBRANCH  21  28
ENDBRANCH  18  22
ENDBRANCH   1  17
BRANCH   1  31
ATOM     30 CL   UNL     1      34.791 -22.390 -18.118  0.00  0.00    -0.113 Cl
ATOM     31  C   UNL     1      35.911 -22.764 -16.768  0.00  0.00    +0.100 C 
ATOM     32  C   UNL     1      36.830 -21.567 -16.540  0.00  0.00    +0.019 C 
ENDBRANCH   1  31
TORSDOF 9
ENDMDL
MODEL 3
REMARK VINA RESULT:      -8.1     10.398     14.275
REMARK  Name = 157385
REMARK  9 active torsions:
REMARK  status: ('A' for Active; 'I' for Inactive)
REMARK    1  A    between atoms: C_1  and  C_3
REMARK    2  A    between atoms: C_1  and  N_17
REMARK    3  A    between atoms: C_1  and  C_31
REMARK    4  A    between atoms: C_4  and  O_10
REMARK    5  A    between atoms: C_5  and  O_12
REMARK    6  A    between atoms: C_6  and  O_14
REMARK    7  A    between atoms: C_7  and  S_8
REMARK    8  A    between atoms: C_18  and  C_22
REMARK    9  A    between atoms: C_21  and  C_28
REMARK                            x       y       z     vdW  Elec       q    Type
REMARK                         _______ _______ _______ _____ _____    ______ ____
ROOT
ATOM      1  C   UNL     1      34.018 -23.973 -15.821  0.00  0.00    +0.116 C 
ENDROOT
BRANCH   1   3
ATOM      2  O   UNL     1      36.316 -24.575 -15.642  0.00  0.00    -0.341 OA
ATOM      3  C   UNL     1      35.127 -24.390 -14.860  0.00  0.00    +0.164 C 
ATOM      4  C   UNL     1      35.353 -23.358 -13.749  0.00  0.00    +0.168 C 
ATOM      5  C   UNL     1      36.549 -23.763 -12.884  0.00  0.00    +0.170 C 
ATOM      6  C   UNL     1      37.776 -24.007 -13.762  0.00  0.00    +0.177 C 
ATOM      7  C   UNL     1      37.471 -24.991 -14.901  0.00  0.00    +0.192 C 
BRANCH   7   8
ATOM      8  S   UNL     1      37.376 -26.744 -14.372  0.00  0.00    -0.109 S 
ATOM      9  C   UNL     1      36.693 -27.421 -15.901  0.00  0.00    +0.072 C 
ENDBRANCH   7   8
BRANCH   4  10
ATOM     10  O   UNL     1      35.603 -22.083 -14.346  0.00  0.00    -0.379 OA
ATOM     11  H   UNL     1      35.730 -21.419 -13.650  0.00  0.00    +0.211 HD
ENDBRANCH   4  10
BRANCH   5  12
ATOM     12  O   UNL     1      36.842 -22.729 -11.947  0.00  0.00    -0.379 OA
ATOM     13  H   UNL     1      37.370 -23.093 -11.219  0.00  0.00    +0.211 HD
ENDBRANCH   5  12
BRANCH   6  14
ATOM     14  O   UNL     1      38.876 -24.465 -12.981  0.00  0.00    -0.379 OA
ATOM     15  H   UNL     1      39.248 -25.264 -13.384  0.00  0.00    +0.211 HD
ENDBRANCH   6  14
ENDBRANCH   1   3
BRANCH   1  17
ATOM     16  O   UNL     1      33.758 -23.718 -18.702  0.00  0.00    -0.277 OA
ATOM     17  N   UNL     1      34.461 -22.873 -16.650  0.00  0.00    -0.304 N 
ATOM     18  C   UNL     1      34.291 -22.844 -18.022  0.00  0.00    +0.202 C 
ATOM     19  H   UNL     1      34.906 -22.109 -16.216  0.00  0.00    +0.149 HD
BRANCH  18  22
ATOM     20  N   UNL     1      36.172 -21.882 -19.090  0.00  0.00    +0.391 N 
ATOM     21  C   UNL     1      34.507 -19.944 -20.528  0.00  0.00    -0.004 C 
ATOM     22  C   UNL     1      34.817 -21.582 -18.631  0.00  0.00    +0.017 C 
ATOM     23  C   UNL     1      33.911 -21.146 -19.784  0.00  0.00    -0.013 C 
ATOM     24  C   UNL     1      35.950 -20.255 -20.942  0.00  0.00    -0.023 C 
ATOM     25  C   UNL     1      36.780 -20.723 -19.747  0.00  0.00    -0.081 C 
ATOM     26  H   UNL     1      36.136 -22.657 -19.751  0.00  0.00    -0.084 HD
ATOM     27  H   UNL     1      36.740 -22.125 -18.278  0.00  0.00    -0.084 HD
BRANCH  21  28
ATOM     28  C   UNL     1      33.656 -19.572 -21.740  0.00  0.00    -0.000 C 
ATOM     29  C   UNL     1      34.520 -19.192 -22.927  0.00  0.00    -0.000 C 
ENDBRANCH  21  28
ENDBRANCH  18  22
ENDBRANCH   1  17
BRANCH   1  31
ATOM     30 CL   UNL     1      31.390 -23.239 -16.266  0.00  0.00    -0.113 Cl
ATOM     31  C   UNL     1      32.691 -23.652 -15.104  0.00  0.00    +0.100 C 
ATOM     32  C   UNL     1      32.214 -24.794 -14.211  0.00  0.00    +0.019 C 
ENDBRANCH   1  31
TORSDOF 9
ENDMDL
MODEL 4
REMARK VINA RESULT:      -7.9     12.834     15.625
REMARK  Name = 157385
REMARK  9 active torsions:
REMARK  status: ('A' for Active; 'I' for Inactive)
REMARK    1  A    between atoms: C_1  and  C_3
REMARK    2  A    between atoms: C_1  and  N_17
REMARK    3  A    between atoms: C_1  and  C_31
REMARK    4  A    between atoms: C_4  and  O_10
REMARK    5  A    between atoms: C_5  and  O_12
REMARK    6  A    between atoms: C_6  and  O_14
REMARK    7  A    between atoms: C_7  and  S_8
REMARK    8  A    between atoms: C_18  and  C_22
REMARK    9  A    between atoms: C_21  and  C_28
REMARK                            x       y       z     vdW  Elec       q    Type
REMARK                         _______ _______ _______ _____ _____    ______ ____
ROOT
ATOM      1  C   UNL     1      35.254 -22.830 -15.597  0.00  0.00    +0.116 C 
ENDROOT
BRANCH   1   3
ATOM      2  O   UNL     1      35.152 -24.086 -13.575  0.00  0.00    -0.341 OA
ATOM      3  C   UNL     1      36.077 -23.561 -14.540  0.00  0.00    +0.164 C 
ATOM      4  C   UNL     1      36.938 -24.677 -15.142  0.00  0.00    +0.168 C 
ATOM      5  C   UNL     1      37.649 -25.455 -14.033  0.00  0.00    +0.170 C 
ATOM      6  C   UNL     1      36.637 -25.944 -12.998  0.00  0.00    +0.177 C 
ATOM      7  C   UNL     1      35.753 -24.798 -12.485  0.00  0.00    +0.192 C 
BRANCH   7   8
ATOM      8  S   UNL     1      36.587 -23.684 -11.290  0.00  0.00    -0.109 S 
ATOM      9  C   UNL     1      35.683 -24.193  -9.813  0.00  0.00    +0.072 C 
ENDBRANCH   7   8
BRANCH   4  10
ATOM     10  O   UNL     1      36.095 -25.563 -15.883  0.00  0.00    -0.379 OA
ATOM     11  H   UNL     1      36.372 -26.479 -15.729  0.00  0.00    +0.211 HD
ENDBRANCH   4  10
BRANCH   5  12
ATOM     12  O   UNL     1      38.331 -26.577 -14.588  0.00  0.00    -0.379 OA
ATOM     13  H   UNL     1      37.831 -26.916 -15.348  0.00  0.00    +0.211 HD
ENDBRANCH   5  12
BRANCH   6  14
ATOM     14  O   UNL     1      37.292 -26.598 -11.916  0.00  0.00    -0.379 OA
ATOM     15  H   UNL     1      37.716 -27.410 -12.238  0.00  0.00    +0.211 HD
ENDBRANCH   6  14
ENDBRANCH   1   3
BRANCH   1  17
ATOM     16  O   UNL     1      32.670 -22.191 -14.437  0.00  0.00    -0.277 OA
ATOM     17  N   UNL     1      33.999 -23.513 -15.817  0.00  0.00    -0.304 N 
ATOM     18  C   UNL     1      32.814 -23.132 -15.215  0.00  0.00    +0.202 C 
ATOM     19  H   UNL     1      33.988 -24.289 -16.424  0.00  0.00    +0.149 HD
BRANCH  18  22
ATOM     20  N   UNL     1      31.230 -24.709 -14.434  0.00  0.00    +0.391 N 
ATOM     21  C   UNL     1      29.292 -23.954 -16.500  0.00  0.00    -0.004 C 
ATOM     22  C   UNL     1      31.664 -23.992 -15.633  0.00  0.00    +0.017 C 
ATOM     23  C   UNL     1      30.545 -23.120 -16.207  0.00  0.00    -0.013 C 
ATOM     24  C   UNL     1      28.895 -24.748 -15.251  0.00  0.00    -0.023 C 
ATOM     25  C   UNL     1      30.072 -25.560 -14.712  0.00  0.00    -0.081 C 
ATOM     26  H   UNL     1      30.980 -24.032 -13.714  0.00  0.00    -0.084 HD
ATOM     27  H   UNL     1      31.998 -25.303 -14.121  0.00  0.00    -0.084 HD
BRANCH  21  28
ATOM     28  C   UNL     1      28.143 -23.069 -16.977  0.00  0.00    -0.000 C 
ATOM     29  C   UNL     1      27.444 -22.394 -15.813  0.00  0.00    -0.000 C 
ENDBRANCH  21  28
ENDBRANCH  18  22
ENDBRANCH   1  17
BRANCH   1  31
ATOM     30 CL   UNL     1      34.924 -22.250 -18.281  0.00  0.00    -0.113 Cl
ATOM     31  C   UNL     1      36.027 -22.612 -16.914  0.00  0.00    +0.100 C 
ATOM     32  C   UNL     1      37.067 -21.500 -16.809  0.00  0.00    +0.019 C 
ENDBRANCH   1  31
TORSDOF 9
ENDMDL
MODEL 5
REMARK VINA RESULT:      -7.8     12.782     15.122
REMARK  Name = 157385
REMARK  9 active torsions:
REMARK  status: ('A' for Active; 'I' for Inactive)
REMARK    1  A    between atoms: C_1  and  C_3
REMARK    2  A    between atoms: C_1  and  N_17
REMARK    3  A    between atoms: C_1  and  C_31
REMARK    4  A    between atoms: C_4  and  O_10
REMARK    5  A    between atoms: C_5  and  O_12
REMARK    6  A    between atoms: C_6  and  O_14
REMARK    7  A    between atoms: C_7  and  S_8
REMARK    8  A    between atoms: C_18  and  C_22
REMARK    9  A    between atoms: C_21  and  C_28
REMARK                            x       y       z     vdW  Elec       q    Type
REMARK                         _______ _______ _______ _____ _____    ______ ____
ROOT
ATOM      1  C   UNL     1      33.612 -23.730 -16.349  0.00  0.00    +0.116 C 
ENDROOT
BRANCH   1   3
ATOM      2  O   UNL     1      31.301 -24.262 -16.575  0.00  0.00    -0.341 OA
ATOM      3  C   UNL     1      32.237 -23.617 -15.698  0.00  0.00    +0.164 C 
ATOM      4  C   UNL     1      32.203 -24.243 -14.298  0.00  0.00    +0.168 C 
ATOM      5  C   UNL     1      30.779 -24.212 -13.738  0.00  0.00    +0.170 C 
ATOM      6  C   UNL     1      29.807 -24.854 -14.728  0.00  0.00    +0.177 C 
ATOM      7  C   UNL     1      29.938 -24.240 -16.129  0.00  0.00    +0.192 C 
BRANCH   7   8
ATOM      8  S   UNL     1      29.170 -22.583 -16.297  0.00  0.00    -0.109 S 
ATOM      9  C   UNL     1      27.773 -23.068 -17.333  0.00  0.00    +0.072 C 
ENDBRANCH   7   8
BRANCH   4  10
ATOM     10  O   UNL     1      32.653 -25.597 -14.387  0.00  0.00    -0.379 OA
ATOM     11  H   UNL     1      32.890 -25.800 -15.305  0.00  0.00    +0.211 HD
ENDBRANCH   4  10
BRANCH   5  12
ATOM     12  O   UNL     1      30.728 -24.923 -12.504  0.00  0.00    -0.379 OA
ATOM     13  H   UNL     1      31.406 -24.576 -11.902  0.00  0.00    +0.211 HD
ENDBRANCH   5  12
BRANCH   6  14
ATOM     14  O   UNL     1      28.467 -24.759 -14.258  0.00  0.00    -0.379 OA
ATOM     15  H   UNL     1      28.362 -25.308 -13.465  0.00  0.00    +0.211 HD
ENDBRANCH   6  14
ENDBRANCH   1   3
BRANCH   1  17
ATOM     16  O   UNL     1      35.507 -25.870 -15.841  0.00  0.00    -0.277 OA
ATOM     17  N   UNL     1      34.645 -23.767 -15.337  0.00  0.00    -0.304 N 
ATOM     18  C   UNL     1      35.503 -24.839 -15.173  0.00  0.00    +0.202 C 
ATOM     19  H   UNL     1      34.740 -22.993 -14.736  0.00  0.00    +0.149 HD
BRANCH  18  22
ATOM     20  N   UNL     1      35.998 -25.357 -12.916  0.00  0.00    +0.391 N 
ATOM     21  C   UNL     1      38.877 -25.011 -13.349  0.00  0.00    -0.004 C 
ATOM     22  C   UNL     1      36.491 -24.609 -14.072  0.00  0.00    +0.017 C 
ATOM     23  C   UNL     1      37.876 -25.089 -14.508  0.00  0.00    -0.013 C 
ATOM     24  C   UNL     1      38.311 -25.744 -12.127  0.00  0.00    -0.023 C 
ATOM     25  C   UNL     1      36.911 -25.241 -11.777  0.00  0.00    -0.081 C 
ATOM     26  H   UNL     1      35.907 -26.340 -13.170  0.00  0.00    -0.084 HD
ATOM     27  H   UNL     1      35.094 -24.969 -12.644  0.00  0.00    -0.084 HD
BRANCH  21  28
ATOM     28  C   UNL     1      40.233 -25.584 -13.753  0.00  0.00    -0.000 C 
ATOM     29  C   UNL     1      40.396 -25.609 -15.261  0.00  0.00    -0.000 C 
ENDBRANCH  21  28
ENDBRANCH  18  22
ENDBRANCH   1  17
BRANCH   1  31
ATOM     30 CL   UNL     1      35.601 -22.151 -17.442  0.00  0.00    -0.113 Cl
ATOM     31  C   UNL     1      33.873 -22.626 -17.394  0.00  0.00    +0.100 C 
ATOM     32  C   UNL     1      33.430 -23.028 -18.798  0.00  0.00    +0.019 C 
ENDBRANCH   1  31
TORSDOF 9
ENDMDL
MODEL 6
REMARK VINA RESULT:      -7.8     10.197     13.595
REMARK  Name = 157385
REMARK  9 active torsions:
REMARK  status: ('A' for Active; 'I' for Inactive)
REMARK    1  A    between atoms: C_1  and  C_3
REMARK    2  A    between atoms: C_1  and  N_17
REMARK    3  A    between atoms: C_1  and  C_31
REMARK    4  A    between atoms: C_4  and  O_10
REMARK    5  A    between atoms: C_5  and  O_12
REMARK    6  A    between atoms: C_6  and  O_14
REMARK    7  A    between atoms: C_7  and  S_8
REMARK    8  A    between atoms: C_18  and  C_22
REMARK    9  A    between atoms: C_21  and  C_28
REMARK                            x       y       z     vdW  Elec       q    Type
REMARK                         _______ _______ _______ _____ _____    ______ ____
ROOT
ATOM      1  C   UNL     1      33.414 -23.450 -16.469  0.00  0.00    +0.116 C 
ENDROOT
BRANCH   1   3
ATOM      2  O   UNL     1      35.258 -24.696 -15.618  0.00  0.00    -0.341 OA
ATOM      3  C   UNL     1      34.694 -23.376 -15.641  0.00  0.00    +0.164 C 
ATOM      4  C   UNL     1      35.693 -22.358 -16.203  0.00  0.00    +0.168 C 
ATOM      5  C   UNL     1      37.002 -22.407 -15.411  0.00  0.00    +0.170 C 
ATOM      6  C   UNL     1      37.537 -23.838 -15.362  0.00  0.00    +0.177 C 
ATOM      7  C   UNL     1      36.470 -24.824 -14.862  0.00  0.00    +0.192 C 
BRANCH   7   8
ATOM      8  S   UNL     1      36.181 -24.763 -13.052  0.00  0.00    -0.109 S 
ATOM      9  C   UNL     1      37.190 -26.189 -12.597  0.00  0.00    +0.072 C 
ENDBRANCH   7   8
BRANCH   4  10
ATOM     10  O   UNL     1      35.951 -22.673 -17.574  0.00  0.00    -0.379 OA
ATOM     11  H   UNL     1      36.900 -22.832 -17.697  0.00  0.00    +0.211 HD
ENDBRANCH   4  10
BRANCH   5  12
ATOM     12  O   UNL     1      37.973 -21.566 -16.028  0.00  0.00    -0.379 OA
ATOM     13  H   UNL     1      38.841 -21.722 -15.622  0.00  0.00    +0.211 HD
ENDBRANCH   5  12
BRANCH   6  14
ATOM     14  O   UNL     1      38.710 -23.914 -14.559  0.00  0.00    -0.379 OA
ATOM     15  H   UNL     1      39.433 -23.441 -14.997  0.00  0.00    +0.211 HD
ENDBRANCH   6  14
ENDBRANCH   1   3
BRANCH   1  17
ATOM     16  O   UNL     1      33.761 -24.304 -19.222  0.00  0.00    -0.277 OA
ATOM     17  N   UNL     1      33.527 -22.611 -17.641  0.00  0.00    -0.304 N 
ATOM     18  C   UNL     1      33.692 -23.115 -18.919  0.00  0.00    +0.202 C 
ATOM     19  H   UNL     1      33.487 -21.634 -17.525  0.00  0.00    +0.149 HD
BRANCH  18  22
ATOM     20  N   UNL     1      32.694 -21.086 -19.619  0.00  0.00    +0.391 N 
ATOM     21  C   UNL     1      35.182 -20.159 -20.862  0.00  0.00    -0.004 C 
ATOM     22  C   UNL     1      33.756 -22.034 -19.951  0.00  0.00    +0.017 C 
ATOM     23  C   UNL     1      35.135 -21.372 -19.925  0.00  0.00    -0.013 C 
ATOM     24  C   UNL     1      34.020 -19.211 -20.540  0.00  0.00    -0.023 C 
ATOM     25  C   UNL     1      32.683 -19.952 -20.545  0.00  0.00    -0.081 C 
ATOM     26  H   UNL     1      32.840 -20.740 -18.671  0.00  0.00    -0.084 HD
ATOM     27  H   UNL     1      31.798 -21.569 -19.693  0.00  0.00    -0.084 HD
BRANCH  21  28
ATOM     28  C   UNL     1      36.523 -19.438 -20.760  0.00  0.00    -0.000 C 
ATOM     29  C   UNL     1      36.705 -18.444 -21.891  0.00  0.00    -0.000 C 
ENDBRANCH  21  28
ENDBRANCH  18  22
ENDBRANCH   1  17
BRANCH   1  31
ATOM     30 CL   UNL     1      30.750 -22.749 -16.707  0.00  0.00    -0.113 Cl
ATOM     31  C   UNL     1      32.150 -23.122 -15.650  0.00  0.00    +0.100 C 
ATOM     32  C   UNL     1      31.761 -24.246 -14.692  0.00  0.00    +0.019 C 
ENDBRANCH   1  31
TORSDOF 9
ENDMDL
MODEL 7
REMARK VINA RESULT:      -7.8      3.227      7.498
REMARK  Name = 157385
REMARK  9 active torsions:
REMARK  status: ('A' for Active; 'I' for Inactive)
REMARK    1  A    between atoms: C_1  and  C_3
REMARK    2  A    between atoms: C_1  and  N_17
REMARK    3  A    between atoms: C_1  and  C_31
REMARK    4  A    between atoms: C_4  and  O_10
REMARK    5  A    between atoms: C_5  and  O_12
REMARK    6  A    between atoms: C_6  and  O_14
REMARK    7  A    between atoms: C_7  and  S_8
REMARK    8  A    between atoms: C_18  and  C_22
REMARK    9  A    between atoms: C_21  and  C_28
REMARK                            x       y       z     vdW  Elec       q    Type
REMARK                         _______ _______ _______ _____ _____    ______ ____
ROOT
ATOM      1  C   UNL     1      33.486 -13.980 -24.409  0.00  0.00    +0.116 C 
ENDROOT
BRANCH   1   3
ATOM      2  O   UNL     1      34.850 -15.932 -24.318  0.00  0.00    -0.341 OA
ATOM      3  C   UNL     1      33.742 -15.289 -23.669  0.00  0.00    +0.164 C 
ATOM      4  C   UNL     1      34.027 -15.069 -22.179  0.00  0.00    +0.168 C 
ATOM      5  C   UNL     1      34.393 -16.395 -21.508  0.00  0.00    +0.170 C 
ATOM      6  C   UNL     1      35.536 -17.073 -22.264  0.00  0.00    +0.177 C 
ATOM      7  C   UNL     1      35.226 -17.199 -23.763  0.00  0.00    +0.192 C 
BRANCH   7   8
ATOM      8  S   UNL     1      34.032 -18.530 -24.172  0.00  0.00    -0.109 S 
ATOM      9  C   UNL     1      35.228 -19.776 -24.695  0.00  0.00    +0.072 C 
ENDBRANCH   7   8
BRANCH   4  10
ATOM     10  O   UNL     1      35.115 -14.150 -22.048  0.00  0.00    -0.379 OA
ATOM     11  H   UNL     1      35.954 -14.621 -22.169  0.00  0.00    +0.211 HD
ENDBRANCH   4  10
BRANCH   5  12
ATOM     12  O   UNL     1      34.797 -16.161 -20.161  0.00  0.00    -0.379 OA
ATOM     13  H   UNL     1      35.491 -16.794 -19.917  0.00  0.00    +0.211 HD
ENDBRANCH   5  12
BRANCH   6  14
ATOM     14  O   UNL     1      35.832 -18.346 -21.701  0.00  0.00    -0.379 OA
ATOM     15  H   UNL     1      35.097 -18.955 -21.873  0.00  0.00    +0.211 HD
ENDBRANCH   6  14
ENDBRANCH   1   3
BRANCH   1  17
ATOM     16  O   UNL     1      33.865 -11.110 -24.186  0.00  0.00    -0.277 OA
ATOM     17  N   UNL     1      32.757 -13.060 -23.565  0.00  0.00    -0.304 N 
ATOM     18  C   UNL     1      33.012 -11.702 -23.528  0.00  0.00    +0.202 C 
ATOM     19  H   UNL     1      32.044 -13.419 -22.987  0.00  0.00    +0.149 HD
BRANCH  18  22
ATOM     20  N   UNL     1      31.893 -11.869 -21.449  0.00  0.00    +0.391 N 
ATOM     21  C   UNL     1      31.893  -8.960 -21.086  0.00  0.00    -0.004 C 
ATOM     22  C   UNL     1      32.099 -10.978 -22.590  0.00  0.00    +0.017 C 
ATOM     23  C   UNL     1      32.733  -9.652 -22.166  0.00  0.00    -0.013 C 
ATOM     24  C   UNL     1      31.633  -9.933 -19.930  0.00  0.00    -0.023 C 
ATOM     25  C   UNL     1      31.039 -11.247 -20.434  0.00  0.00    -0.081 C 
ATOM     26  H   UNL     1      32.797 -12.090 -21.032  0.00  0.00    -0.084 HD
ATOM     27  H   UNL     1      31.432 -12.716 -21.781  0.00  0.00    -0.084 HD
BRANCH  21  28
ATOM     28  C   UNL     1      32.576  -7.688 -20.590  0.00  0.00    -0.000 C 
ATOM     29  C   UNL     1      31.936  -6.448 -21.184  0.00  0.00    -0.000 C 
ENDBRANCH  21  28
ENDBRANCH  18  22
ENDBRANCH   1  17
BRANCH   1  31
ATOM     30 CL   UNL     1      33.421 -13.066 -27.018  0.00  0.00    -0.113 Cl
ATOM     31  C   UNL     1      32.789 -14.186 -25.769  0.00  0.00    +0.100 C 
ATOM     32  C   UNL     1      32.910 -15.619 -26.282  0.00  0.00    +0.019 C 
ENDBRANCH   1  31
TORSDOF 9
ENDMDL
MODEL 8
REMARK VINA RESULT:      -7.7     10.899     14.948
REMARK  Name = 157385
REMARK  9 active torsions:
REMARK  status: ('A' for Active; 'I' for Inactive)
REMARK    1  A    between atoms: C_1  and  C_3
REMARK    2  A    between atoms: C_1  and  N_17
REMARK    3  A    between atoms: C_1  and  C_31
REMARK    4  A    between atoms: C_4  and  O_10
REMARK    5  A    between atoms: C_5  and  O_12
REMARK    6  A    between atoms: C_6  and  O_14
REMARK    7  A    between atoms: C_7  and  S_8
REMARK    8  A    between atoms: C_18  and  C_22
REMARK    9  A    between atoms: C_21  and  C_28
REMARK                            x       y       z     vdW  Elec       q    Type
REMARK                         _______ _______ _______ _____ _____    ______ ____
ROOT
ATOM      1  C   UNL     1      34.539 -24.001 -15.527  0.00  0.00    +0.116 C 
ENDROOT
BRANCH   1   3
ATOM      2  O   UNL     1      35.276 -24.653 -13.357  0.00  0.00    -0.341 OA
ATOM      3  C   UNL     1      35.755 -24.362 -14.679  0.00  0.00    +0.164 C 
ATOM      4  C   UNL     1      36.536 -25.548 -15.256  0.00  0.00    +0.168 C 
ATOM      5  C   UNL     1      37.672 -25.945 -14.311  0.00  0.00    +0.170 C 
ATOM      6  C   UNL     1      37.127 -26.189 -12.904  0.00  0.00    +0.177 C 
ATOM      7  C   UNL     1      36.292 -25.000 -12.406  0.00  0.00    +0.192 C 
BRANCH   7   8
ATOM      8  S   UNL     1      37.287 -23.552 -11.879  0.00  0.00    -0.109 S 
ATOM      9  C   UNL     1      36.383 -23.178 -10.362  0.00  0.00    +0.072 C 
ENDBRANCH   7   8
BRANCH   4  10
ATOM     10  O   UNL     1      35.643 -26.652 -15.424  0.00  0.00    -0.379 OA
ATOM     11  H   UNL     1      35.239 -26.873 -14.570  0.00  0.00    +0.211 HD
ENDBRANCH   4  10
BRANCH   5  12
ATOM     12  O   UNL     1      38.301 -27.135 -14.782  0.00  0.00    -0.379 OA
ATOM     13  H   UNL     1      38.808 -27.539 -14.061  0.00  0.00    +0.211 HD
ENDBRANCH   5  12
BRANCH   6  14
ATOM     14  O   UNL     1      38.183 -26.479 -11.994  0.00  0.00    -0.379 OA
ATOM     15  H   UNL     1      37.833 -26.983 -11.242  0.00  0.00    +0.211 HD
ENDBRANCH   6  14
ENDBRANCH   1   3
BRANCH   1  17
ATOM     16  O   UNL     1      33.901 -23.769 -18.349  0.00  0.00    -0.277 OA
ATOM     17  N   UNL     1      34.853 -22.901 -16.411  0.00  0.00    -0.304 N 
ATOM     18  C   UNL     1      34.505 -22.883 -17.749  0.00  0.00    +0.202 C 
ATOM     19  H   UNL     1      35.340 -22.128 -16.043  0.00  0.00    +0.149 HD
BRANCH  18  22
ATOM     20  N   UNL     1      36.288 -21.848 -18.913  0.00  0.00    +0.391 N 
ATOM     21  C   UNL     1      34.458 -20.093 -20.386  0.00  0.00    -0.004 C 
ATOM     22  C   UNL     1      34.928 -21.619 -18.428  0.00  0.00    +0.017 C 
ATOM     23  C   UNL     1      33.965 -21.297 -19.573  0.00  0.00    -0.013 C 
ATOM     24  C   UNL     1      35.908 -20.326 -20.827  0.00  0.00    -0.023 C 
ATOM     25  C   UNL     1      36.799 -20.683 -19.638  0.00  0.00    -0.081 C 
ATOM     26  H   UNL     1      36.287 -22.654 -19.538  0.00  0.00    -0.084 HD
ATOM     27  H   UNL     1      36.892 -22.016 -18.108  0.00  0.00    -0.084 HD
BRANCH  21  28
ATOM     28  C   UNL     1      33.553 -19.834 -21.587  0.00  0.00    -0.000 C 
ATOM     29  C   UNL     1      34.305 -19.144 -22.709  0.00  0.00    -0.000 C 
ENDBRANCH  21  28
ENDBRANCH  18  22
ENDBRANCH   1  17
BRANCH   1  31
ATOM     30 CL   UNL     1      32.072 -22.752 -15.590  0.00  0.00    -0.113 Cl
ATOM     31  C   UNL     1      33.281 -23.714 -14.681  0.00  0.00    +0.100 C 
ATOM     32  C   UNL     1      32.616 -24.988 -14.167  0.00  0.00    +0.019 C 
ENDBRANCH   1  31
TORSDOF 9
ENDMDL
MODEL 9
REMARK VINA RESULT:      -7.2      3.213      7.428
REMARK  Name = 157385
REMARK  9 active torsions:
REMARK  status: ('A' for Active; 'I' for Inactive)
REMARK    1  A    between atoms: C_1  and  C_3
REMARK    2  A    between atoms: C_1  and  N_17
REMARK    3  A    between atoms: C_1  and  C_31
REMARK    4  A    between atoms: C_4  and  O_10
REMARK    5  A    between atoms: C_5  and  O_12
REMARK    6  A    between atoms: C_6  and  O_14
REMARK    7  A    between atoms: C_7  and  S_8
REMARK    8  A    between atoms: C_18  and  C_22
REMARK    9  A    between atoms: C_21  and  C_28
REMARK                            x       y       z     vdW  Elec       q    Type
REMARK                         _______ _______ _______ _____ _____    ______ ____
ROOT
ATOM      1  C   UNL     1      33.955 -13.600 -24.867  0.00  0.00    +0.116 C 
ENDROOT
BRANCH   1   3
ATOM      2  O   UNL     1      35.166 -15.241 -23.635  0.00  0.00    -0.341 OA
ATOM      3  C   UNL     1      33.836 -14.758 -23.880  0.00  0.00    +0.164 C 
ATOM      4  C   UNL     1      33.151 -14.341 -22.573  0.00  0.00    +0.168 C 
ATOM      5  C   UNL     1      33.164 -15.501 -21.574  0.00  0.00    +0.170 C 
ATOM      6  C   UNL     1      34.589 -16.022 -21.388  0.00  0.00    +0.177 C 
ATOM      7  C   UNL     1      35.251 -16.353 -22.734  0.00  0.00    +0.192 C 
BRANCH   7   8
ATOM      8  S   UNL     1      34.669 -17.919 -23.491  0.00  0.00    -0.109 S 
ATOM      9  C   UNL     1      36.079 -18.948 -23.031  0.00  0.00    +0.072 C 
ENDBRANCH   7   8
BRANCH   4  10
ATOM     10  O   UNL     1      33.853 -13.225 -22.019  0.00  0.00    -0.379 OA
ATOM     11  H   UNL     1      33.405 -12.929 -21.211  0.00  0.00    +0.211 HD
ENDBRANCH   4  10
BRANCH   5  12
ATOM     12  O   UNL     1      32.658 -15.062 -20.316  0.00  0.00    -0.379 OA
ATOM     13  H   UNL     1      31.689 -15.030 -20.350  0.00  0.00    +0.211 HD
ENDBRANCH   5  12
BRANCH   6  14
ATOM     14  O   UNL     1      34.606 -17.155 -20.525  0.00  0.00    -0.379 OA
ATOM     15  H   UNL     1      33.944 -17.798 -20.823  0.00  0.00    +0.211 HD
ENDBRANCH   6  14
ENDBRANCH   1   3
BRANCH   1  17
ATOM     16  O   UNL     1      34.990 -11.017 -25.693  0.00  0.00    -0.277 OA
ATOM     17  N   UNL     1      33.817 -12.337 -24.176  0.00  0.00    -0.304 N 
ATOM     18  C   UNL     1      34.350 -11.153 -24.653  0.00  0.00    +0.202 C 
ATOM     19  H   UNL     1      33.322 -12.319 -23.325  0.00  0.00    +0.149 HD
BRANCH  18  22
ATOM     20  N   UNL     1      34.996  -8.942 -24.107  0.00  0.00    +0.391 N 
ATOM     21  C   UNL     1      32.297  -8.258 -23.191  0.00  0.00    -0.004 C 
ATOM     22  C   UNL     1      34.041  -9.993 -23.760  0.00  0.00    +0.017 C 
ATOM     23  C   UNL     1      32.596  -9.540 -23.977  0.00  0.00    -0.013 C 
ATOM     24  C   UNL     1      33.349  -7.192 -23.519  0.00  0.00    -0.023 C 
ATOM     25  C   UNL     1      34.765  -7.730 -23.319  0.00  0.00    -0.081 C 
ATOM     26  H   UNL     1      34.899  -8.718 -25.097  0.00  0.00    -0.084 HD
ATOM     27  H   UNL     1      35.936  -9.282 -23.904  0.00  0.00    -0.084 HD
BRANCH  21  28
ATOM     28  C   UNL     1      30.888  -7.749 -23.485  0.00  0.00    -0.000 C 
ATOM     29  C   UNL     1      30.685  -6.343 -22.956  0.00  0.00    -0.000 C 
ENDBRANCH  21  28
ENDBRANCH  18  22
ENDBRANCH   1  17
BRANCH   1  31
ATOM     30 CL   UNL     1      33.631 -12.970 -27.539  0.00  0.00    -0.113 Cl
ATOM     31  C   UNL     1      32.971 -13.717 -26.049  0.00  0.00    +0.100 C 
ATOM     32  C   UNL     1      32.582 -15.162 -26.350  0.00  0.00    +0.019 C 
ENDBRANCH   1  31
TORSDOF 9
ENDMDL
