MODEL 1
REMARK VINA RESULT:     -12.9      0.000      0.000
REMARK  Name = 51049992
REMARK  10 active torsions:
REMARK  status: ('A' for Active; 'I' for Inactive)
REMARK    1  A    between atoms: C_1  and  C_7
REMARK    2  A    between atoms: C_6  and  C_23
REMARK    3  A    between atoms: C_7  and  N_8
REMARK    4  A    between atoms: C_23  and  O_24
REMARK    5  A    between atoms: O_24  and  C_25
REMARK    6  A    between atoms: C_26  and  C_31
REMARK    7  A    between atoms: C_31  and  C_32
REMARK    8  A    between atoms: C_31  and  C_35
REMARK    9  A    between atoms: C_35  and  C_37
REMARK   10  A    between atoms: C_37  and  O_38
REMARK                            x       y       z     vdW  Elec       q    Type
REMARK                         _______ _______ _______ _____ _____    ______ ____
ROOT
ATOM      1  C   UNL     1      33.655 -13.961 -23.415  0.00  0.00    -0.043 C 
ATOM      2  C   UNL     1      32.739 -14.139 -22.378  0.00  0.00    -0.007 C 
ATOM      3  C   UNL     1      33.780 -12.714 -24.028  0.00  0.00    -0.007 C 
ATOM      4  C   UNL     1      31.949 -13.070 -21.955  0.00  0.00    -0.001 C 
ATOM      5  C   UNL     1      32.991 -11.646 -23.604  0.00  0.00    -0.001 C 
ATOM      6  C   UNL     1      32.075 -11.824 -22.568  0.00  0.00    +0.021 C 
ENDROOT
BRANCH   1   7
ATOM      7  C   UNL     1      34.507 -15.114 -23.871  0.00  0.00    -0.050 C 
BRANCH   7   8
ATOM      8  N   UNL     1      34.267 -16.318 -23.075  0.00  0.00    +0.390 N 
ATOM      9  C   UNL     1      35.021 -18.680 -21.480  0.00  0.00    +0.033 C 
ATOM     10  C   UNL     1      34.498 -17.377 -20.848  0.00  0.00    -0.015 C 
ATOM     11  C   UNL     1      34.555 -18.774 -22.945  0.00  0.00    -0.015 C 
ATOM     12  C   UNL     1      34.852 -17.494 -23.733  0.00  0.00    -0.076 C 
ATOM     13  C   UNL     1      34.797 -16.149 -21.716  0.00  0.00    -0.076 C 
ATOM     14  C   UNL     1      34.609 -19.898 -20.679  0.00  0.00    -0.019 C 
ATOM     15  C   UNL     1      36.540 -18.791 -21.366  0.00  0.00    -0.023 C 
ATOM     16  C   UNL     1      35.752 -20.561 -20.208  0.00  0.00    -0.004 C 
ATOM     17  C   UNL     1      36.938 -19.853 -20.649  0.00  0.00    -0.005 C 
ATOM     18  C   UNL     1      33.342 -20.378 -20.392  0.00  0.00    -0.004 C 
ATOM     19  C   UNL     1      35.653 -21.712 -19.443  0.00  0.00    -0.000 C 
ATOM     20  C   UNL     1      33.231 -21.539 -19.621  0.00  0.00    -0.000 C 
ATOM     21  C   UNL     1      34.377 -22.200 -19.151  0.00  0.00    -0.000 C 
ATOM     22  H   UNL     1      33.261 -16.468 -23.002  0.00  0.00    -0.079 HD
ENDBRANCH   7   8
ENDBRANCH   1   7
BRANCH   6  23
ATOM     23  C   UNL     1      31.232 -10.681 -22.113  0.00  0.00    +0.232 C 
BRANCH  23  24
ATOM     24  O   UNL     1      32.060  -9.696 -21.504  0.00  0.00    -0.471 OA
BRANCH  24  25
ATOM     25  C   UNL     1      32.050  -8.447 -22.068  0.00  0.00    +0.139 C 
ATOM     26  C   UNL     1      32.026  -5.904 -23.215  0.00  0.00    -0.010 C 
ATOM     27  C   UNL     1      32.366  -7.330 -21.295  0.00  0.00    +0.037 C 
ATOM     28  C   UNL     1      31.721  -8.293 -23.415  0.00  0.00    +0.037 C 
ATOM     29  C   UNL     1      32.354  -6.059 -21.869  0.00  0.00    -0.000 C 
ATOM     30  C   UNL     1      31.709  -7.021 -23.988  0.00  0.00    -0.000 C 
BRANCH  26  31
ATOM     31  C   UNL     1      32.013  -4.545 -23.829  0.00  0.00    +0.097 C 
BRANCH  31  32
ATOM     32  C   UNL     1      32.398  -4.588 -25.267  0.00  0.00    -0.087 C 
ATOM     33  C   UNL     1      32.726  -4.622 -26.423  0.00  0.00    -0.090 C 
ATOM     34  C   UNL     1      33.125  -4.661 -27.828  0.00  0.00    +0.090 C 
ENDBRANCH  31  32
BRANCH  31  35
ATOM     35  C   UNL     1      30.641  -3.837 -23.668  0.00  0.00    +0.127 C 
BRANCH  35  37
ATOM     36  O   UNL     1      29.748  -1.924 -22.443  0.00  0.00    -0.250 OA
ATOM     37  C   UNL     1      30.705  -2.524 -22.912  0.00  0.00    +0.315 C 
BRANCH  37  38
ATOM     38  O   UNL     1      31.985  -2.081 -22.800  0.00  0.00    -0.480 OA
ATOM     39  H   UNL     1      32.626  -2.608 -22.367  0.00  0.00    +0.295 HD
ENDBRANCH  37  38
ENDBRANCH  35  37
ENDBRANCH  31  35
ENDBRANCH  26  31
ENDBRANCH  24  25
ENDBRANCH  23  24
ENDBRANCH   6  23
TORSDOF 10
ENDMDL
MODEL 2
REMARK VINA RESULT:     -12.8      1.544      2.248
REMARK  Name = 51049992
REMARK  10 active torsions:
REMARK  status: ('A' for Active; 'I' for Inactive)
REMARK    1  A    between atoms: C_1  and  C_7
REMARK    2  A    between atoms: C_6  and  C_23
REMARK    3  A    between atoms: C_7  and  N_8
REMARK    4  A    between atoms: C_23  and  O_24
REMARK    5  A    between atoms: O_24  and  C_25
REMARK    6  A    between atoms: C_26  and  C_31
REMARK    7  A    between atoms: C_31  and  C_32
REMARK    8  A    between atoms: C_31  and  C_35
REMARK    9  A    between atoms: C_35  and  C_37
REMARK   10  A    between atoms: C_37  and  O_38
REMARK                            x       y       z     vdW  Elec       q    Type
REMARK                         _______ _______ _______ _____ _____    ______ ____
ROOT
ATOM      1  C   UNL     1      33.588 -14.193 -23.558  0.00  0.00    -0.043 C 
ATOM      2  C   UNL     1      32.716 -14.323 -22.477  0.00  0.00    -0.007 C 
ATOM      3  C   UNL     1      33.796 -12.941 -24.137  0.00  0.00    -0.007 C 
ATOM      4  C   UNL     1      32.053 -13.203 -21.976  0.00  0.00    -0.001 C 
ATOM      5  C   UNL     1      33.133 -11.821 -23.637  0.00  0.00    -0.001 C 
ATOM      6  C   UNL     1      32.261 -11.952 -22.556  0.00  0.00    +0.021 C 
ENDROOT
BRANCH   1   7
ATOM      7  C   UNL     1      34.303 -15.402 -24.097  0.00  0.00    -0.050 C 
BRANCH   7   8
ATOM      8  N   UNL     1      34.132 -16.568 -23.231  0.00  0.00    +0.390 N 
ATOM      9  C   UNL     1      35.018 -18.781 -21.497  0.00  0.00    +0.033 C 
ATOM     10  C   UNL     1      34.415 -17.477 -20.944  0.00  0.00    -0.015 C 
ATOM     11  C   UNL     1      34.566 -18.991 -22.954  0.00  0.00    -0.015 C 
ATOM     12  C   UNL     1      34.789 -17.744 -23.816  0.00  0.00    -0.076 C 
ATOM     13  C   UNL     1      34.644 -16.287 -21.883  0.00  0.00    -0.076 C 
ATOM     14  C   UNL     1      34.677 -19.972 -20.625  0.00  0.00    -0.019 C 
ATOM     15  C   UNL     1      36.541 -18.793 -21.374  0.00  0.00    -0.023 C 
ATOM     16  C   UNL     1      35.855 -20.536 -20.113  0.00  0.00    -0.004 C 
ATOM     17  C   UNL     1      36.998 -19.784 -20.594  0.00  0.00    -0.005 C 
ATOM     18  C   UNL     1      33.439 -20.510 -20.311  0.00  0.00    -0.004 C 
ATOM     19  C   UNL     1      35.821 -21.643 -19.281  0.00  0.00    -0.000 C 
ATOM     20  C   UNL     1      33.395 -21.627 -19.473  0.00  0.00    -0.000 C 
ATOM     21  C   UNL     1      34.576 -22.189 -18.962  0.00  0.00    -0.000 C 
ATOM     22  H   UNL     1      33.137 -16.774 -23.150  0.00  0.00    -0.079 HD
ENDBRANCH   7   8
ENDBRANCH   1   7
BRANCH   6  23
ATOM     23  C   UNL     1      31.555 -10.754 -22.019  0.00  0.00    +0.232 C 
BRANCH  23  24
ATOM     24  O   UNL     1      32.491  -9.700 -21.825  0.00  0.00    -0.471 OA
BRANCH  24  25
ATOM     25  C   UNL     1      32.403  -8.632 -22.678  0.00  0.00    +0.139 C 
ATOM     26  C   UNL     1      32.224  -6.457 -24.417  0.00  0.00    -0.010 C 
ATOM     27  C   UNL     1      31.186  -8.320 -23.284  0.00  0.00    +0.037 C 
ATOM     28  C   UNL     1      33.531  -7.855 -22.942  0.00  0.00    +0.037 C 
ATOM     29  C   UNL     1      31.096  -7.233 -24.153  0.00  0.00    -0.000 C 
ATOM     30  C   UNL     1      33.442  -6.768 -23.812  0.00  0.00    -0.000 C 
BRANCH  26  31
ATOM     31  C   UNL     1      32.130  -5.294 -25.346  0.00  0.00    +0.097 C 
BRANCH  31  32
ATOM     32  C   UNL     1      31.838  -4.030 -24.616  0.00  0.00    -0.087 C 
ATOM     33  C   UNL     1      31.591  -3.017 -24.018  0.00  0.00    -0.090 C 
ATOM     34  C   UNL     1      31.287  -1.786 -23.293  0.00  0.00    +0.090 C 
ENDBRANCH  31  32
BRANCH  31  35
ATOM     35  C   UNL     1      33.407  -5.126 -26.212  0.00  0.00    +0.127 C 
BRANCH  35  37
ATOM     36  O   UNL     1      32.448  -4.193 -28.253  0.00  0.00    -0.250 OA
ATOM     37  C   UNL     1      33.263  -4.127 -27.344  0.00  0.00    +0.315 C 
BRANCH  37  38
ATOM     38  O   UNL     1      34.157  -3.111 -27.223  0.00  0.00    -0.480 OA
ATOM     39  H   UNL     1      34.049  -2.329 -27.725  0.00  0.00    +0.295 HD
ENDBRANCH  37  38
ENDBRANCH  35  37
ENDBRANCH  31  35
ENDBRANCH  26  31
ENDBRANCH  24  25
ENDBRANCH  23  24
ENDBRANCH   6  23
TORSDOF 10
ENDMDL
MODEL 3
REMARK VINA RESULT:     -12.6      4.006     13.879
REMARK  Name = 51049992
REMARK  10 active torsions:
REMARK  status: ('A' for Active; 'I' for Inactive)
REMARK    1  A    between atoms: C_1  and  C_7
REMARK    2  A    between atoms: C_6  and  C_23
REMARK    3  A    between atoms: C_7  and  N_8
REMARK    4  A    between atoms: C_23  and  O_24
REMARK    5  A    between atoms: O_24  and  C_25
REMARK    6  A    between atoms: C_26  and  C_31
REMARK    7  A    between atoms: C_31  and  C_32
REMARK    8  A    between atoms: C_31  and  C_35
REMARK    9  A    between atoms: C_35  and  C_37
REMARK   10  A    between atoms: C_37  and  O_38
REMARK                            x       y       z     vdW  Elec       q    Type
REMARK                         _______ _______ _______ _____ _____    ______ ____
ROOT
ATOM      1  C   UNL     1      32.257 -12.263 -21.664  0.00  0.00    -0.043 C 
ATOM      2  C   UNL     1      32.712 -12.380 -22.978  0.00  0.00    -0.007 C 
ATOM      3  C   UNL     1      32.328 -13.358 -20.802  0.00  0.00    -0.007 C 
ATOM      4  C   UNL     1      33.237 -13.590 -23.429  0.00  0.00    -0.001 C 
ATOM      5  C   UNL     1      32.853 -14.568 -21.254  0.00  0.00    -0.001 C 
ATOM      6  C   UNL     1      33.307 -14.684 -22.567  0.00  0.00    +0.021 C 
ENDROOT
BRANCH   1   7
ATOM      7  C   UNL     1      31.691 -10.956 -21.178  0.00  0.00    -0.050 C 
BRANCH   7   8
ATOM      8  N   UNL     1      31.998  -9.855 -22.091  0.00  0.00    +0.390 N 
ATOM      9  C   UNL     1      31.819  -7.108 -23.146  0.00  0.00    +0.033 C 
ATOM     10  C   UNL     1      33.017  -7.609 -22.318  0.00  0.00    -0.015 C 
ATOM     11  C   UNL     1      31.097  -8.302 -23.797  0.00  0.00    -0.015 C 
ATOM     12  C   UNL     1      30.783  -9.412 -22.789  0.00  0.00    -0.076 C 
ATOM     13  C   UNL     1      32.630  -8.746 -21.365  0.00  0.00    -0.076 C 
ATOM     14  C   UNL     1      32.237  -6.076 -24.172  0.00  0.00    -0.019 C 
ATOM     15  C   UNL     1      30.863  -6.268 -22.301  0.00  0.00    -0.023 C 
ATOM     16  C   UNL     1      31.591  -4.858 -23.907  0.00  0.00    -0.004 C 
ATOM     17  C   UNL     1      30.744  -5.006 -22.739  0.00  0.00    -0.005 C 
ATOM     18  C   UNL     1      33.108  -6.197 -25.243  0.00  0.00    -0.004 C 
ATOM     19  C   UNL     1      31.801  -3.744 -24.702  0.00  0.00    -0.000 C 
ATOM     20  C   UNL     1      33.326  -5.079 -26.051  0.00  0.00    -0.000 C 
ATOM     21  C   UNL     1      32.679  -3.862 -25.783  0.00  0.00    -0.000 C 
ATOM     22  H   UNL     1      32.659 -10.186 -22.793  0.00  0.00    -0.079 HD
ENDBRANCH   7   8
ENDBRANCH   1   7
BRANCH   6  23
ATOM     23  C   UNL     1      33.872 -15.978 -23.049  0.00  0.00    +0.232 C 
BRANCH  23  24
ATOM     24  O   UNL     1      34.993 -16.333 -22.248  0.00  0.00    -0.471 OA
BRANCH  24  25
ATOM     25  C   UNL     1      34.969 -17.573 -21.668  0.00  0.00    +0.139 C 
ATOM     26  C   UNL     1      34.921 -20.102 -20.490  0.00  0.00    -0.010 C 
ATOM     27  C   UNL     1      36.164 -18.239 -21.395  0.00  0.00    +0.037 C 
ATOM     28  C   UNL     1      33.750 -18.173 -21.352  0.00  0.00    +0.037 C 
ATOM     29  C   UNL     1      36.140 -19.503 -20.805  0.00  0.00    -0.000 C 
ATOM     30  C   UNL     1      33.726 -19.437 -20.763  0.00  0.00    -0.000 C 
BRANCH  26  31
ATOM     31  C   UNL     1      34.895 -21.453 -19.859  0.00  0.00    +0.097 C 
BRANCH  31  32
ATOM     32  C   UNL     1      35.862 -21.553 -18.732  0.00  0.00    -0.087 C 
ATOM     33  C   UNL     1      36.636 -21.620 -17.815  0.00  0.00    -0.090 C 
ATOM     34  C   UNL     1      37.578 -21.698 -16.701  0.00  0.00    +0.090 C 
ENDBRANCH  31  32
BRANCH  31  35
ATOM     35  C   UNL     1      33.473 -21.851 -19.377  0.00  0.00    +0.127 C 
BRANCH  35  37
ATOM     36  O   UNL     1      33.143 -23.058 -17.282  0.00  0.00    -0.250 OA
ATOM     37  C   UNL     1      33.444 -23.064 -18.467  0.00  0.00    +0.315 C 
BRANCH  37  38
ATOM     38  O   UNL     1      33.786 -24.194 -19.139  0.00  0.00    -0.480 OA
ATOM     39  H   UNL     1      33.430 -25.020 -18.880  0.00  0.00    +0.295 HD
ENDBRANCH  37  38
ENDBRANCH  35  37
ENDBRANCH  31  35
ENDBRANCH  26  31
ENDBRANCH  24  25
ENDBRANCH  23  24
ENDBRANCH   6  23
TORSDOF 10
ENDMDL
MODEL 4
REMARK VINA RESULT:     -12.4      4.864     13.836
REMARK  Name = 51049992
REMARK  10 active torsions:
REMARK  status: ('A' for Active; 'I' for Inactive)
REMARK    1  A    between atoms: C_1  and  C_7
REMARK    2  A    between atoms: C_6  and  C_23
REMARK    3  A    between atoms: C_7  and  N_8
REMARK    4  A    between atoms: C_23  and  O_24
REMARK    5  A    between atoms: O_24  and  C_25
REMARK    6  A    between atoms: C_26  and  C_31
REMARK    7  A    between atoms: C_31  and  C_32
REMARK    8  A    between atoms: C_31  and  C_35
REMARK    9  A    between atoms: C_35  and  C_37
REMARK   10  A    between atoms: C_37  and  O_38
REMARK                            x       y       z     vdW  Elec       q    Type
REMARK                         _______ _______ _______ _____ _____    ______ ____
ROOT
ATOM      1  C   UNL     1      33.938 -14.708 -23.394  0.00  0.00    -0.043 C 
ATOM      2  C   UNL     1      34.082 -14.574 -22.012  0.00  0.00    -0.007 C 
ATOM      3  C   UNL     1      34.308 -15.898 -24.021  0.00  0.00    -0.007 C 
ATOM      4  C   UNL     1      34.597 -15.630 -21.259  0.00  0.00    -0.001 C 
ATOM      5  C   UNL     1      34.822 -16.953 -23.268  0.00  0.00    -0.001 C 
ATOM      6  C   UNL     1      34.966 -16.819 -21.887  0.00  0.00    +0.021 C 
ENDROOT
BRANCH   1   7
ATOM      7  C   UNL     1      33.383 -13.569 -24.206  0.00  0.00    -0.050 C 
BRANCH   7   8
ATOM      8  N   UNL     1      33.266 -12.343 -23.415  0.00  0.00    +0.390 N 
ATOM      9  C   UNL     1      32.324  -9.616 -22.809  0.00  0.00    +0.033 C 
ATOM     10  C   UNL     1      31.738 -10.871 -22.137  0.00  0.00    -0.015 C 
ATOM     11  C   UNL     1      33.743  -9.915 -23.327  0.00  0.00    -0.015 C 
ATOM     12  C   UNL     1      33.799 -11.197 -24.164  0.00  0.00    -0.076 C 
ATOM     13  C   UNL     1      31.870 -12.118 -23.020  0.00  0.00    -0.076 C 
ATOM     14  C   UNL     1      32.304  -8.420 -21.881  0.00  0.00    -0.019 C 
ATOM     15  C   UNL     1      31.417  -9.099 -23.925  0.00  0.00    -0.023 C 
ATOM     16  C   UNL     1      31.499  -7.410 -22.429  0.00  0.00    -0.004 C 
ATOM     17  C   UNL     1      30.960  -7.858 -23.698  0.00  0.00    -0.005 C 
ATOM     18  C   UNL     1      32.938  -8.238 -20.662  0.00  0.00    -0.004 C 
ATOM     19  C   UNL     1      31.311  -6.204 -21.774  0.00  0.00    -0.000 C 
ATOM     20  C   UNL     1      32.756  -7.024 -19.994  0.00  0.00    -0.000 C 
ATOM     21  C   UNL     1      31.949  -6.016 -20.545  0.00  0.00    -0.000 C 
ATOM     22  H   UNL     1      33.819 -12.446 -22.565  0.00  0.00    -0.079 HD
ENDBRANCH   7   8
ENDBRANCH   1   7
BRANCH   6  23
ATOM     23  C   UNL     1      35.513 -17.949 -21.082  0.00  0.00    +0.232 C 
BRANCH  23  24
ATOM     24  O   UNL     1      35.020 -19.180 -21.598  0.00  0.00    -0.471 OA
BRANCH  24  25
ATOM     25  C   UNL     1      34.581 -20.101 -20.684  0.00  0.00    +0.139 C 
ATOM     26  C   UNL     1      33.687 -21.978 -18.825  0.00  0.00    -0.010 C 
ATOM     27  C   UNL     1      35.497 -20.923 -20.026  0.00  0.00    +0.037 C 
ATOM     28  C   UNL     1      33.218 -20.218 -20.412  0.00  0.00    +0.037 C 
ATOM     29  C   UNL     1      35.050 -21.861 -19.096  0.00  0.00    -0.000 C 
ATOM     30  C   UNL     1      32.771 -21.158 -19.482  0.00  0.00    -0.000 C 
BRANCH  26  31
ATOM     31  C   UNL     1      33.208 -22.982 -17.830  0.00  0.00    +0.097 C 
BRANCH  31  32
ATOM     32  C   UNL     1      34.167 -23.140 -16.703  0.00  0.00    -0.087 C 
ATOM     33  C   UNL     1      34.935 -23.252 -15.786  0.00  0.00    -0.090 C 
ATOM     34  C   UNL     1      35.872 -23.386 -14.672  0.00  0.00    +0.090 C 
ENDBRANCH  31  32
BRANCH  31  35
ATOM     35  C   UNL     1      31.795 -22.642 -17.283  0.00  0.00    +0.127 C 
BRANCH  35  37
ATOM     36  O   UNL     1      31.133 -24.517 -15.867  0.00  0.00    -0.250 OA
ATOM     37  C   UNL     1      31.449 -23.341 -15.983  0.00  0.00    +0.315 C 
BRANCH  37  38
ATOM     38  O   UNL     1      31.544 -22.492 -14.925  0.00  0.00    -0.480 OA
ATOM     39  H   UNL     1      30.770 -22.122 -14.551  0.00  0.00    +0.295 HD
ENDBRANCH  37  38
ENDBRANCH  35  37
ENDBRANCH  31  35
ENDBRANCH  26  31
ENDBRANCH  24  25
ENDBRANCH  23  24
ENDBRANCH   6  23
TORSDOF 10
ENDMDL
MODEL 5
REMARK VINA RESULT:     -12.3      5.903     14.871
REMARK  Name = 51049992
REMARK  10 active torsions:
REMARK  status: ('A' for Active; 'I' for Inactive)
REMARK    1  A    between atoms: C_1  and  C_7
REMARK    2  A    between atoms: C_6  and  C_23
REMARK    3  A    between atoms: C_7  and  N_8
REMARK    4  A    between atoms: C_23  and  O_24
REMARK    5  A    between atoms: O_24  and  C_25
REMARK    6  A    between atoms: C_26  and  C_31
REMARK    7  A    between atoms: C_31  and  C_32
REMARK    8  A    between atoms: C_31  and  C_35
REMARK    9  A    between atoms: C_35  and  C_37
REMARK   10  A    between atoms: C_37  and  O_38
REMARK                            x       y       z     vdW  Elec       q    Type
REMARK                         _______ _______ _______ _____ _____    ______ ____
ROOT
ATOM      1  C   UNL     1      35.151 -18.202 -22.877  0.00  0.00    -0.043 C 
ATOM      2  C   UNL     1      36.498 -18.220 -22.515  0.00  0.00    -0.007 C 
ATOM      3  C   UNL     1      34.234 -18.996 -22.187  0.00  0.00    -0.007 C 
ATOM      4  C   UNL     1      36.928 -19.030 -21.465  0.00  0.00    -0.001 C 
ATOM      5  C   UNL     1      34.663 -19.806 -21.137  0.00  0.00    -0.001 C 
ATOM      6  C   UNL     1      36.010 -19.824 -20.776  0.00  0.00    +0.021 C 
ENDROOT
BRANCH   1   7
ATOM      7  C   UNL     1      34.688 -17.327 -24.011  0.00  0.00    -0.050 C 
BRANCH   7   8
ATOM      8  N   UNL     1      33.988 -16.136 -23.529  0.00  0.00    +0.390 N 
ATOM      9  C   UNL     1      33.378 -13.256 -23.372  0.00  0.00    +0.033 C 
ATOM     10  C   UNL     1      32.491 -14.258 -24.133  0.00  0.00    -0.015 C 
ATOM     11  C   UNL     1      34.202 -13.995 -22.302  0.00  0.00    -0.015 C 
ATOM     12  C   UNL     1      34.928 -15.220 -22.870  0.00  0.00    -0.076 C 
ATOM     13  C   UNL     1      33.282 -15.473 -24.632  0.00  0.00    -0.076 C 
ATOM     14  C   UNL     1      32.566 -12.126 -22.776  0.00  0.00    -0.019 C 
ATOM     15  C   UNL     1      34.275 -12.464 -24.323  0.00  0.00    -0.023 C 
ATOM     16  C   UNL     1      32.976 -10.905 -23.332  0.00  0.00    -0.004 C 
ATOM     17  C   UNL     1      34.038 -11.143 -24.290  0.00  0.00    -0.005 C 
ATOM     18  C   UNL     1      31.556 -12.169 -21.828  0.00  0.00    -0.004 C 
ATOM     19  C   UNL     1      32.388  -9.708 -22.955  0.00  0.00    -0.000 C 
ATOM     20  C   UNL     1      30.957 -10.968 -21.441  0.00  0.00    -0.000 C 
ATOM     21  C   UNL     1      31.370  -9.747 -21.999  0.00  0.00    -0.000 C 
ATOM     22  H   UNL     1      33.293 -16.420 -22.839  0.00  0.00    -0.079 HD
ENDBRANCH   7   8
ENDBRANCH   1   7
BRANCH   6  23
ATOM     23  C   UNL     1      36.469 -20.688 -19.651  0.00  0.00    +0.232 C 
BRANCH  23  24
ATOM     24  O   UNL     1      35.346 -21.337 -19.065  0.00  0.00    -0.471 OA
BRANCH  24  25
ATOM     25  C   UNL     1      35.573 -22.042 -17.913  0.00  0.00    +0.139 C 
ATOM     26  C   UNL     1      36.034 -23.475 -15.564  0.00  0.00    -0.010 C 
ATOM     27  C   UNL     1      34.555 -22.816 -17.356  0.00  0.00    +0.037 C 
ATOM     28  C   UNL     1      36.822 -21.985 -17.294  0.00  0.00    +0.037 C 
ATOM     29  C   UNL     1      34.786 -23.533 -16.182  0.00  0.00    -0.000 C 
ATOM     30  C   UNL     1      37.052 -22.701 -16.119  0.00  0.00    -0.000 C 
BRANCH  26  31
ATOM     31  C   UNL     1      36.282 -24.241 -14.308  0.00  0.00    +0.097 C 
BRANCH  31  32
ATOM     32  C   UNL     1      37.676 -24.759 -14.246  0.00  0.00    -0.087 C 
ATOM     33  C   UNL     1      38.796 -25.193 -14.203  0.00  0.00    -0.090 C 
ATOM     34  C   UNL     1      40.158 -25.721 -14.148  0.00  0.00    +0.090 C 
ENDBRANCH  31  32
BRANCH  31  35
ATOM     35  C   UNL     1      35.968 -23.407 -13.036  0.00  0.00    +0.127 C 
BRANCH  35  37
ATOM     36  O   UNL     1      36.829 -24.187 -10.890  0.00  0.00    -0.250 OA
ATOM     37  C   UNL     1      35.962 -24.213 -11.752  0.00  0.00    +0.315 C 
BRANCH  37  38
ATOM     38  O   UNL     1      34.844 -24.980 -11.656  0.00  0.00    -0.480 OA
ATOM     39  H   UNL     1      34.797 -25.799 -12.107  0.00  0.00    +0.295 HD
ENDBRANCH  37  38
ENDBRANCH  35  37
ENDBRANCH  31  35
ENDBRANCH  26  31
ENDBRANCH  24  25
ENDBRANCH  23  24
ENDBRANCH   6  23
TORSDOF 10
ENDMDL
MODEL 6
REMARK VINA RESULT:     -12.1      5.970     14.451
REMARK  Name = 51049992
REMARK  10 active torsions:
REMARK  status: ('A' for Active; 'I' for Inactive)
REMARK    1  A    between atoms: C_1  and  C_7
REMARK    2  A    between atoms: C_6  and  C_23
REMARK    3  A    between atoms: C_7  and  N_8
REMARK    4  A    between atoms: C_23  and  O_24
REMARK    5  A    between atoms: O_24  and  C_25
REMARK    6  A    between atoms: C_26  and  C_31
REMARK    7  A    between atoms: C_31  and  C_32
REMARK    8  A    between atoms: C_31  and  C_35
REMARK    9  A    between atoms: C_35  and  C_37
REMARK   10  A    between atoms: C_37  and  O_38
REMARK                            x       y       z     vdW  Elec       q    Type
REMARK                         _______ _______ _______ _____ _____    ______ ____
ROOT
ATOM      1  C   UNL     1      35.122 -18.166 -22.947  0.00  0.00    -0.043 C 
ATOM      2  C   UNL     1      34.149 -18.967 -22.348  0.00  0.00    -0.007 C 
ATOM      3  C   UNL     1      36.440 -18.213 -22.492  0.00  0.00    -0.007 C 
ATOM      4  C   UNL     1      34.495 -19.814 -21.295  0.00  0.00    -0.001 C 
ATOM      5  C   UNL     1      36.785 -19.059 -21.439  0.00  0.00    -0.001 C 
ATOM      6  C   UNL     1      35.813 -19.860 -20.841  0.00  0.00    +0.021 C 
ENDROOT
BRANCH   1   7
ATOM      7  C   UNL     1      34.749 -17.253 -24.083  0.00  0.00    -0.050 C 
BRANCH   7   8
ATOM      8  N   UNL     1      34.028 -16.068 -23.616  0.00  0.00    +0.390 N 
ATOM      9  C   UNL     1      33.388 -13.194 -23.474  0.00  0.00    +0.033 C 
ATOM     10  C   UNL     1      32.524 -14.206 -24.250  0.00  0.00    -0.015 C 
ATOM     11  C   UNL     1      34.200 -13.924 -22.388  0.00  0.00    -0.015 C 
ATOM     12  C   UNL     1      34.948 -15.141 -22.941  0.00  0.00    -0.076 C 
ATOM     13  C   UNL     1      33.336 -15.413 -24.733  0.00  0.00    -0.076 C 
ATOM     14  C   UNL     1      32.554 -12.071 -22.893  0.00  0.00    -0.019 C 
ATOM     15  C   UNL     1      34.293 -12.394 -24.409  0.00  0.00    -0.023 C 
ATOM     16  C   UNL     1      32.962 -10.847 -23.444  0.00  0.00    -0.004 C 
ATOM     17  C   UNL     1      34.043 -11.076 -24.382  0.00  0.00    -0.005 C 
ATOM     18  C   UNL     1      31.527 -12.124 -21.964  0.00  0.00    -0.004 C 
ATOM     19  C   UNL     1      32.355  -9.656 -23.079  0.00  0.00    -0.000 C 
ATOM     20  C   UNL     1      30.910 -10.928 -21.589  0.00  0.00    -0.000 C 
ATOM     21  C   UNL     1      31.320  -9.704 -22.142  0.00  0.00    -0.000 C 
ATOM     22  H   UNL     1      33.324 -16.358 -22.938  0.00  0.00    -0.079 HD
ENDBRANCH   7   8
ENDBRANCH   1   7
BRANCH   6  23
ATOM     23  C   UNL     1      36.182 -20.768 -19.717  0.00  0.00    +0.232 C 
BRANCH  23  24
ATOM     24  O   UNL     1      35.290 -21.876 -19.691  0.00  0.00    -0.471 OA
BRANCH  24  25
ATOM     25  C   UNL     1      34.869 -22.300 -18.458  0.00  0.00    +0.139 C 
ATOM     26  C   UNL     1      34.010 -23.165 -15.949  0.00  0.00    -0.010 C 
ATOM     27  C   UNL     1      35.755 -22.308 -17.382  0.00  0.00    +0.037 C 
ATOM     28  C   UNL     1      33.552 -22.725 -18.280  0.00  0.00    +0.037 C 
ATOM     29  C   UNL     1      35.326 -22.740 -16.127  0.00  0.00    -0.000 C 
ATOM     30  C   UNL     1      33.123 -23.159 -17.025  0.00  0.00    -0.000 C 
BRANCH  26  31
ATOM     31  C   UNL     1      33.550 -23.628 -14.608  0.00  0.00    +0.097 C 
BRANCH  31  32
ATOM     32  C   UNL     1      32.169 -24.181 -14.661  0.00  0.00    -0.087 C 
ATOM     33  C   UNL     1      31.059 -24.641 -14.695  0.00  0.00    -0.090 C 
ATOM     34  C   UNL     1      29.710 -25.203 -14.738  0.00  0.00    +0.090 C 
ENDBRANCH  31  32
BRANCH  31  35
ATOM     35  C   UNL     1      34.515 -24.670 -13.980  0.00  0.00    +0.127 C 
BRANCH  35  37
ATOM     36  O   UNL     1      34.941 -24.917 -11.589  0.00  0.00    -0.250 OA
ATOM     37  C   UNL     1      35.059 -24.272 -12.622  0.00  0.00    +0.315 C 
BRANCH  37  38
ATOM     38  O   UNL     1      35.725 -23.088 -12.684  0.00  0.00    -0.480 OA
ATOM     39  H   UNL     1      36.332 -22.929 -13.379  0.00  0.00    +0.295 HD
ENDBRANCH  37  38
ENDBRANCH  35  37
ENDBRANCH  31  35
ENDBRANCH  26  31
ENDBRANCH  24  25
ENDBRANCH  23  24
ENDBRANCH   6  23
TORSDOF 10
ENDMDL
MODEL 7
REMARK VINA RESULT:     -12.1      6.660     15.243
REMARK  Name = 51049992
REMARK  10 active torsions:
REMARK  status: ('A' for Active; 'I' for Inactive)
REMARK    1  A    between atoms: C_1  and  C_7
REMARK    2  A    between atoms: C_6  and  C_23
REMARK    3  A    between atoms: C_7  and  N_8
REMARK    4  A    between atoms: C_23  and  O_24
REMARK    5  A    between atoms: O_24  and  C_25
REMARK    6  A    between atoms: C_26  and  C_31
REMARK    7  A    between atoms: C_31  and  C_32
REMARK    8  A    between atoms: C_31  and  C_35
REMARK    9  A    between atoms: C_35  and  C_37
REMARK   10  A    between atoms: C_37  and  O_38
REMARK                            x       y       z     vdW  Elec       q    Type
REMARK                         _______ _______ _______ _____ _____    ______ ____
ROOT
ATOM      1  C   UNL     1      34.919 -19.436 -21.010  0.00  0.00    -0.043 C 
ATOM      2  C   UNL     1      35.902 -20.190 -20.368  0.00  0.00    -0.007 C 
ATOM      3  C   UNL     1      33.576 -19.797 -20.892  0.00  0.00    -0.007 C 
ATOM      4  C   UNL     1      35.542 -21.302 -19.608  0.00  0.00    -0.001 C 
ATOM      5  C   UNL     1      33.217 -20.909 -20.132  0.00  0.00    -0.001 C 
ATOM      6  C   UNL     1      34.200 -21.662 -19.490  0.00  0.00    +0.021 C 
ENDROOT
BRANCH   1   7
ATOM      7  C   UNL     1      35.307 -18.235 -21.830  0.00  0.00    -0.050 C 
BRANCH   7   8
ATOM      8  N   UNL     1      34.618 -17.024 -21.383  0.00  0.00    +0.390 N 
ATOM      9  C   UNL     1      33.113 -14.512 -21.715  0.00  0.00    +0.033 C 
ATOM     10  C   UNL     1      32.452 -15.828 -21.268  0.00  0.00    -0.015 C 
ATOM     11  C   UNL     1      34.619 -14.548 -21.398  0.00  0.00    -0.015 C 
ATOM     12  C   UNL     1      35.290 -15.828 -21.908  0.00  0.00    -0.076 C 
ATOM     13  C   UNL     1      33.205 -17.060 -21.783  0.00  0.00    -0.076 C 
ATOM     14  C   UNL     1      32.437 -13.305 -21.097  0.00  0.00    -0.019 C 
ATOM     15  C   UNL     1      32.857 -14.228 -23.195  0.00  0.00    -0.023 C 
ATOM     16  C   UNL     1      31.899 -12.495 -22.109  0.00  0.00    -0.004 C 
ATOM     17  C   UNL     1      32.174 -13.092 -23.402  0.00  0.00    -0.005 C 
ATOM     18  C   UNL     1      32.307 -12.953 -19.764  0.00  0.00    -0.004 C 
ATOM     19  C   UNL     1      31.224 -11.323 -21.811  0.00  0.00    -0.000 C 
ATOM     20  C   UNL     1      31.628 -11.772 -19.452  0.00  0.00    -0.000 C 
ATOM     21  C   UNL     1      31.091 -10.964 -20.467  0.00  0.00    -0.000 C 
ATOM     22  H   UNL     1      34.654 -16.983 -20.366  0.00  0.00    -0.079 HD
ENDBRANCH   7   8
ENDBRANCH   1   7
BRANCH   6  23
ATOM     23  C   UNL     1      33.815 -22.850 -18.675  0.00  0.00    +0.232 C 
BRANCH  23  24
ATOM     24  O   UNL     1      33.570 -22.444 -17.334  0.00  0.00    -0.471 OA
BRANCH  24  25
ATOM     25  C   UNL     1      34.332 -23.035 -16.361  0.00  0.00    +0.139 C 
ATOM     26  C   UNL     1      35.884 -24.236 -14.378  0.00  0.00    -0.010 C 
ATOM     27  C   UNL     1      33.747 -23.925 -15.460  0.00  0.00    +0.037 C 
ATOM     28  C   UNL     1      35.694 -22.746 -16.270  0.00  0.00    +0.037 C 
ATOM     29  C   UNL     1      34.523 -24.525 -14.468  0.00  0.00    -0.000 C 
ATOM     30  C   UNL     1      36.470 -23.345 -15.278  0.00  0.00    -0.000 C 
BRANCH  26  31
ATOM     31  C   UNL     1      36.715 -24.877 -13.318  0.00  0.00    +0.097 C 
BRANCH  31  32
ATOM     32  C   UNL     1      38.061 -25.255 -13.829  0.00  0.00    -0.087 C 
ATOM     33  C   UNL     1      39.155 -25.555 -14.226  0.00  0.00    -0.090 C 
ATOM     34  C   UNL     1      40.486 -25.916 -14.710  0.00  0.00    +0.090 C 
ENDBRANCH  31  32
BRANCH  31  35
ATOM     35  C   UNL     1      36.857 -23.983 -12.057  0.00  0.00    +0.127 C 
BRANCH  35  37
ATOM     36  O   UNL     1      34.892 -25.003 -11.030  0.00  0.00    -0.250 OA
ATOM     37  C   UNL     1      35.926 -24.359 -10.921  0.00  0.00    +0.315 C 
BRANCH  37  38
ATOM     38  O   UNL     1      36.389 -23.897  -9.730  0.00  0.00    -0.480 OA
ATOM     39  H   UNL     1      36.765 -23.041  -9.673  0.00  0.00    +0.295 HD
ENDBRANCH  37  38
ENDBRANCH  35  37
ENDBRANCH  31  35
ENDBRANCH  26  31
ENDBRANCH  24  25
ENDBRANCH  23  24
ENDBRANCH   6  23
TORSDOF 10
ENDMDL
MODEL 8
REMARK VINA RESULT:     -12.0      5.973     14.363
REMARK  Name = 51049992
REMARK  10 active torsions:
REMARK  status: ('A' for Active; 'I' for Inactive)
REMARK    1  A    between atoms: C_1  and  C_7
REMARK    2  A    between atoms: C_6  and  C_23
REMARK    3  A    between atoms: C_7  and  N_8
REMARK    4  A    between atoms: C_23  and  O_24
REMARK    5  A    between atoms: O_24  and  C_25
REMARK    6  A    between atoms: C_26  and  C_31
REMARK    7  A    between atoms: C_31  and  C_32
REMARK    8  A    between atoms: C_31  and  C_35
REMARK    9  A    between atoms: C_35  and  C_37
REMARK   10  A    between atoms: C_37  and  O_38
REMARK                            x       y       z     vdW  Elec       q    Type
REMARK                         _______ _______ _______ _____ _____    ______ ____
ROOT
ATOM      1  C   UNL     1      35.097 -18.191 -22.807  0.00  0.00    -0.043 C 
ATOM      2  C   UNL     1      36.412 -18.321 -22.359  0.00  0.00    -0.007 C 
ATOM      3  C   UNL     1      34.074 -18.905 -22.181  0.00  0.00    -0.007 C 
ATOM      4  C   UNL     1      36.704 -19.164 -21.288  0.00  0.00    -0.001 C 
ATOM      5  C   UNL     1      34.366 -19.748 -21.110  0.00  0.00    -0.001 C 
ATOM      6  C   UNL     1      35.681 -19.878 -20.663  0.00  0.00    +0.021 C 
ENDROOT
BRANCH   1   7
ATOM      7  C   UNL     1      34.782 -17.281 -23.963  0.00  0.00    -0.050 C 
BRANCH   7   8
ATOM      8  N   UNL     1      34.054 -16.086 -23.534  0.00  0.00    +0.390 N 
ATOM      9  C   UNL     1      33.406 -13.211 -23.473  0.00  0.00    +0.033 C 
ATOM     10  C   UNL     1      32.553 -14.244 -24.232  0.00  0.00    -0.015 C 
ATOM     11  C   UNL     1      34.208 -13.911 -22.360  0.00  0.00    -0.015 C 
ATOM     12  C   UNL     1      34.964 -15.140 -22.874  0.00  0.00    -0.076 C 
ATOM     13  C   UNL     1      33.373 -15.462 -24.675  0.00  0.00    -0.076 C 
ATOM     14  C   UNL     1      32.563 -12.076 -22.931  0.00  0.00    -0.019 C 
ATOM     15  C   UNL     1      34.320 -12.433 -24.419  0.00  0.00    -0.023 C 
ATOM     16  C   UNL     1      32.974 -10.865 -23.509  0.00  0.00    -0.004 C 
ATOM     17  C   UNL     1      34.066 -11.115 -24.429  0.00  0.00    -0.005 C 
ATOM     18  C   UNL     1      31.527 -12.107 -22.012  0.00  0.00    -0.004 C 
ATOM     19  C   UNL     1      32.362  -9.666 -23.181  0.00  0.00    -0.000 C 
ATOM     20  C   UNL     1      30.903 -10.903 -21.674  0.00  0.00    -0.000 C 
ATOM     21  C   UNL     1      31.317  -9.693 -22.254  0.00  0.00    -0.000 C 
ATOM     22  H   UNL     1      33.343 -16.361 -22.857  0.00  0.00    -0.079 HD
ENDBRANCH   7   8
ENDBRANCH   1   7
BRANCH   6  23
ATOM     23  C   UNL     1      35.993 -20.777 -19.515  0.00  0.00    +0.232 C 
BRANCH  23  24
ATOM     24  O   UNL     1      35.182 -21.943 -19.594  0.00  0.00    -0.471 OA
BRANCH  24  25
ATOM     25  C   UNL     1      34.670 -22.419 -18.416  0.00  0.00    +0.139 C 
ATOM     26  C   UNL     1      33.627 -23.392 -16.018  0.00  0.00    -0.010 C 
ATOM     27  C   UNL     1      35.498 -22.567 -17.303  0.00  0.00    +0.037 C 
ATOM     28  C   UNL     1      33.319 -22.759 -18.329  0.00  0.00    +0.037 C 
ATOM     29  C   UNL     1      34.977 -23.053 -16.104  0.00  0.00    -0.000 C 
ATOM     30  C   UNL     1      32.798 -23.246 -17.130  0.00  0.00    -0.000 C 
BRANCH  26  31
ATOM     31  C   UNL     1      33.069 -23.912 -14.736  0.00  0.00    +0.097 C 
BRANCH  31  32
ATOM     32  C   UNL     1      34.113 -24.007 -13.680  0.00  0.00    -0.087 C 
ATOM     33  C   UNL     1      34.944 -24.087 -12.815  0.00  0.00    -0.090 C 
ATOM     34  C   UNL     1      35.954 -24.181 -11.763  0.00  0.00    +0.090 C 
ENDBRANCH  31  32
BRANCH  31  35
ATOM     35  C   UNL     1      31.873 -23.063 -14.226  0.00  0.00    +0.127 C 
BRANCH  35  37
ATOM     36  O   UNL     1      29.678 -23.952 -14.816  0.00  0.00    -0.250 OA
ATOM     37  C   UNL     1      30.596 -23.853 -14.014  0.00  0.00    +0.315 C 
BRANCH  37  38
ATOM     38  O   UNL     1      30.592 -24.469 -12.803  0.00  0.00    -0.480 OA
ATOM     39  H   UNL     1      30.565 -25.403 -12.752  0.00  0.00    +0.295 HD
ENDBRANCH  37  38
ENDBRANCH  35  37
ENDBRANCH  31  35
ENDBRANCH  26  31
ENDBRANCH  24  25
ENDBRANCH  23  24
ENDBRANCH   6  23
TORSDOF 10
ENDMDL
MODEL 9
REMARK VINA RESULT:     -11.9      4.973      9.139
REMARK  Name = 51049992
REMARK  10 active torsions:
REMARK  status: ('A' for Active; 'I' for Inactive)
REMARK    1  A    between atoms: C_1  and  C_7
REMARK    2  A    between atoms: C_6  and  C_23
REMARK    3  A    between atoms: C_7  and  N_8
REMARK    4  A    between atoms: C_23  and  O_24
REMARK    5  A    between atoms: O_24  and  C_25
REMARK    6  A    between atoms: C_26  and  C_31
REMARK    7  A    between atoms: C_31  and  C_32
REMARK    8  A    between atoms: C_31  and  C_35
REMARK    9  A    between atoms: C_35  and  C_37
REMARK   10  A    between atoms: C_37  and  O_38
REMARK                            x       y       z     vdW  Elec       q    Type
REMARK                         _______ _______ _______ _____ _____    ______ ____
ROOT
ATOM      1  C   UNL     1      33.857 -21.619 -19.209  0.00  0.00    -0.043 C 
ATOM      2  C   UNL     1      35.240 -21.634 -19.396  0.00  0.00    -0.007 C 
ATOM      3  C   UNL     1      33.074 -20.682 -19.884  0.00  0.00    -0.007 C 
ATOM      4  C   UNL     1      35.838 -20.714 -20.256  0.00  0.00    -0.001 C 
ATOM      5  C   UNL     1      33.672 -19.762 -20.745  0.00  0.00    -0.001 C 
ATOM      6  C   UNL     1      35.054 -19.778 -20.931  0.00  0.00    +0.021 C 
ENDROOT
BRANCH   1   7
ATOM      7  C   UNL     1      33.212 -22.611 -18.280  0.00  0.00    -0.050 C 
BRANCH   7   8
ATOM      8  N   UNL     1      33.956 -22.748 -17.028  0.00  0.00    +0.390 N 
ATOM      9  C   UNL     1      35.655 -24.119 -15.047  0.00  0.00    +0.033 C 
ATOM     10  C   UNL     1      36.189 -23.029 -15.995  0.00  0.00    -0.015 C 
ATOM     11  C   UNL     1      34.133 -23.964 -14.878  0.00  0.00    -0.015 C 
ATOM     12  C   UNL     1      33.407 -23.847 -16.222  0.00  0.00    -0.076 C 
ATOM     13  C   UNL     1      35.386 -22.948 -17.298  0.00  0.00    -0.076 C 
ATOM     14  C   UNL     1      36.374 -24.106 -13.714  0.00  0.00    -0.019 C 
ATOM     15  C   UNL     1      36.026 -25.519 -15.533  0.00  0.00    -0.023 C 
ATOM     16  C   UNL     1      37.033 -25.329 -13.520  0.00  0.00    -0.004 C 
ATOM     17  C   UNL     1      36.801 -26.188 -14.665  0.00  0.00    -0.005 C 
ATOM     18  C   UNL     1      36.441 -23.105 -12.757  0.00  0.00    -0.004 C 
ATOM     19  C   UNL     1      37.769 -25.577 -12.373  0.00  0.00    -0.000 C 
ATOM     20  C   UNL     1      37.181 -23.346 -11.596  0.00  0.00    -0.000 C 
ATOM     21  C   UNL     1      37.839 -24.571 -11.406  0.00  0.00    -0.000 C 
ATOM     22  H   UNL     1      33.856 -21.887 -16.491  0.00  0.00    -0.079 HD
ENDBRANCH   7   8
ENDBRANCH   1   7
BRANCH   6  23
ATOM     23  C   UNL     1      35.693 -18.796 -21.854  0.00  0.00    +0.232 C 
BRANCH  23  24
ATOM     24  O   UNL     1      35.479 -17.478 -21.364  0.00  0.00    -0.471 OA
BRANCH  24  25
ATOM     25  C   UNL     1      34.865 -16.596 -22.213  0.00  0.00    +0.139 C 
ATOM     26  C   UNL     1      33.618 -14.798 -23.943  0.00  0.00    -0.010 C 
ATOM     27  C   UNL     1      34.869 -16.833 -23.588  0.00  0.00    +0.037 C 
ATOM     28  C   UNL     1      34.238 -15.459 -21.704  0.00  0.00    +0.037 C 
ATOM     29  C   UNL     1      34.245 -15.934 -24.453  0.00  0.00    -0.000 C 
ATOM     30  C   UNL     1      33.614 -14.559 -22.569  0.00  0.00    -0.000 C 
BRANCH  26  31
ATOM     31  C   UNL     1      32.950 -13.836 -24.867  0.00  0.00    +0.097 C 
BRANCH  31  32
ATOM     32  C   UNL     1      33.669 -12.533 -24.919  0.00  0.00    -0.087 C 
ATOM     33  C   UNL     1      34.238 -11.475 -24.950  0.00  0.00    -0.090 C 
ATOM     34  C   UNL     1      34.927 -10.187 -24.991  0.00  0.00    +0.090 C 
ENDBRANCH  31  32
BRANCH  31  35
ATOM     35  C   UNL     1      32.788 -14.410 -26.301  0.00  0.00    +0.127 C 
BRANCH  35  37
ATOM     36  O   UNL     1      34.320 -13.358 -27.882  0.00  0.00    -0.250 OA
ATOM     37  C   UNL     1      33.200 -13.454 -27.403  0.00  0.00    +0.315 C 
BRANCH  37  38
ATOM     38  O   UNL     1      32.148 -12.701 -27.821  0.00  0.00    -0.480 OA
ATOM     39  H   UNL     1      31.845 -12.768 -28.704  0.00  0.00    +0.295 HD
ENDBRANCH  37  38
ENDBRANCH  35  37
ENDBRANCH  31  35
ENDBRANCH  26  31
ENDBRANCH  24  25
ENDBRANCH  23  24
ENDBRANCH   6  23
TORSDOF 10
ENDMDL
