MODEL 1
REMARK VINA RESULT:     -10.6      0.000      0.000
REMARK  Name = 72106
REMARK  7 active torsions:
REMARK  status: ('A' for Active; 'I' for Inactive)
REMARK    1  A    between atoms: C_2  and  C_8
REMARK    2  A    between atoms: C_8  and  O_9
REMARK    3  A    between atoms: O_9  and  C_10
REMARK    4  A    between atoms: C_10  and  C_11
REMARK    5  A    between atoms: C_11  and  N_13
REMARK    6  A    between atoms: N_19  and  C_21
REMARK    7  A    between atoms: C_23  and  C_30
REMARK                            x       y       z     vdW  Elec       q    Type
REMARK                         _______ _______ _______ _____ _____    ______ ____
ROOT
ATOM      1  N   UNL     1      34.981 -17.726 -24.042  0.00  0.00    -0.229 NA
ATOM      2  C   UNL     1      34.375 -15.598 -23.127  0.00  0.00    +0.107 C 
ATOM      3  C   UNL     1      34.917 -16.852 -23.012  0.00  0.00    +0.138 C 
ATOM      4  C   UNL     1      33.863 -15.180 -24.335  0.00  0.00    +0.011 C 
ATOM      5  C   UNL     1      33.910 -16.050 -25.418  0.00  0.00    +0.021 C 
ATOM      6  C   UNL     1      34.473 -17.301 -25.221  0.00  0.00    +0.100 C 
ATOM      7  N   UNL     1      35.440 -17.268 -21.762  0.00  0.00    -0.298 N 
ATOM      8  H   UNL     1      35.797 -16.530 -21.216  0.00  0.00    +0.154 HD
ENDROOT
BRANCH   7   9
ATOM      9  C   UNL     1      35.548 -18.527 -21.152  0.00  0.00    +0.049 C 
ATOM     10  C   UNL     1      34.399 -19.269 -20.861  0.00  0.00    +0.018 C 
ATOM     11  C   UNL     1      34.505 -20.522 -20.256  0.00  0.00    +0.073 C 
ATOM     12  C   UNL     1      36.804 -19.050 -20.832  0.00  0.00    +0.015 C 
ATOM     13  C   UNL     1      35.762 -21.038 -19.939  0.00  0.00    +0.004 C 
ATOM     14  C   UNL     1      36.912 -20.302 -20.228  0.00  0.00    +0.001 C 
BRANCH  11  18
ATOM     15  F   UNL     1      33.504 -22.648 -19.811  0.00  0.00    -0.166 F 
ATOM     16  F   UNL     1      32.665 -20.932 -18.786  0.00  0.00    -0.166 F 
ATOM     17  F   UNL     1      32.323 -21.194 -20.917  0.00  0.00    -0.166 F 
ATOM     18  C   UNL     1      33.277 -21.308 -19.947  0.00  0.00    +0.419 C 
ENDBRANCH  11  18
ENDBRANCH   7   9
BRANCH   2  20
ATOM     19  O   UNL     1      34.856 -14.888 -20.903  0.00  0.00    -0.245 OA
ATOM     20  C   UNL     1      34.321 -14.661 -21.977  0.00  0.00    +0.344 C 
BRANCH  20  21
ATOM     21  O   UNL     1      33.605 -13.548 -22.295  0.00  0.00    -0.448 OA
BRANCH  21  22
ATOM     22  C   UNL     1      32.368 -13.385 -21.614  0.00  0.00    +0.186 C 
BRANCH  22  23
ATOM     23  C   UNL     1      31.611 -12.227 -22.245  0.00  0.00    -0.029 C 
BRANCH  23  25
ATOM     24  O   UNL     1      32.296  -9.367 -19.251  0.00  0.00    -0.358 OA
ATOM     25  N   UNL     1      31.396 -11.159 -21.271  0.00  0.00    +0.393 N 
ATOM     26  C   UNL     1      32.214  -9.983 -21.597  0.00  0.00    -0.044 C 
ATOM     27  C   UNL     1      31.702 -11.624 -19.911  0.00  0.00    -0.044 C 
ATOM     28  C   UNL     1      31.982  -8.887 -20.560  0.00  0.00    +0.119 C 
ATOM     29  C   UNL     1      31.482 -10.490 -18.914  0.00  0.00    +0.119 C 
ATOM     30  H   UNL     1      30.413 -10.893 -21.310  0.00  0.00    -0.079 HD
ENDBRANCH  23  25
ENDBRANCH  22  23
ENDBRANCH  21  22
ENDBRANCH  20  21
ENDBRANCH   2  20
TORSDOF 7
ENDMDL
MODEL 2
REMARK VINA RESULT:     -10.2      1.354      1.933
REMARK  Name = 72106
REMARK  7 active torsions:
REMARK  status: ('A' for Active; 'I' for Inactive)
REMARK    1  A    between atoms: C_2  and  C_8
REMARK    2  A    between atoms: C_8  and  O_9
REMARK    3  A    between atoms: O_9  and  C_10
REMARK    4  A    between atoms: C_10  and  C_11
REMARK    5  A    between atoms: C_11  and  N_13
REMARK    6  A    between atoms: N_19  and  C_21
REMARK    7  A    between atoms: C_23  and  C_30
REMARK                            x       y       z     vdW  Elec       q    Type
REMARK                         _______ _______ _______ _____ _____    ______ ____
ROOT
ATOM      1  N   UNL     1      34.631 -17.861 -23.999  0.00  0.00    -0.229 NA
ATOM      2  C   UNL     1      34.187 -15.638 -23.230  0.00  0.00    +0.107 C 
ATOM      3  C   UNL     1      34.488 -16.957 -23.005  0.00  0.00    +0.138 C 
ATOM      4  C   UNL     1      34.016 -15.183 -24.518  0.00  0.00    +0.011 C 
ATOM      5  C   UNL     1      34.155 -16.084 -25.569  0.00  0.00    +0.021 C 
ATOM      6  C   UNL     1      34.459 -17.400 -25.258  0.00  0.00    +0.100 C 
ATOM      7  N   UNL     1      34.660 -17.409 -21.672  0.00  0.00    -0.298 N 
ATOM      8  H   UNL     1      35.004 -16.719 -21.060  0.00  0.00    +0.154 HD
ENDROOT
BRANCH   7   9
ATOM      9  C   UNL     1      34.436 -18.650 -21.057  0.00  0.00    +0.049 C 
ATOM     10  C   UNL     1      35.500 -19.359 -20.492  0.00  0.00    +0.018 C 
ATOM     11  C   UNL     1      35.277 -20.593 -19.879  0.00  0.00    +0.073 C 
ATOM     12  C   UNL     1      33.145 -19.186 -21.003  0.00  0.00    +0.015 C 
ATOM     13  C   UNL     1      33.987 -21.122 -19.828  0.00  0.00    +0.004 C 
ATOM     14  C   UNL     1      32.921 -20.419 -20.389  0.00  0.00    +0.001 C 
BRANCH  11  18
ATOM     15  F   UNL     1      37.314 -21.804 -20.201  0.00  0.00    -0.166 F 
ATOM     16  F   UNL     1      37.155 -20.608 -18.399  0.00  0.00    -0.166 F 
ATOM     17  F   UNL     1      36.009 -22.447 -18.584  0.00  0.00    -0.166 F 
ATOM     18  C   UNL     1      36.416 -21.345 -19.280  0.00  0.00    +0.419 C 
ENDBRANCH  11  18
ENDBRANCH   7   9
BRANCH   2  20
ATOM     19  O   UNL     1      34.572 -14.812 -21.027  0.00  0.00    -0.245 OA
ATOM     20  C   UNL     1      34.037 -14.669 -22.116  0.00  0.00    +0.344 C 
BRANCH  20  21
ATOM     21  O   UNL     1      33.237 -13.631 -22.484  0.00  0.00    -0.448 OA
BRANCH  21  22
ATOM     22  C   UNL     1      32.287 -13.202 -21.517  0.00  0.00    +0.186 C 
BRANCH  22  23
ATOM     23  C   UNL     1      31.479 -12.054 -22.101  0.00  0.00    -0.029 C 
BRANCH  23  25
ATOM     24  O   UNL     1      32.363  -9.218 -19.137  0.00  0.00    -0.358 OA
ATOM     25  N   UNL     1      31.335 -10.975 -21.126  0.00  0.00    +0.393 N 
ATOM     26  C   UNL     1      32.194  -9.837 -21.478  0.00  0.00    -0.044 C 
ATOM     27  C   UNL     1      31.655 -11.449 -19.773  0.00  0.00    -0.044 C 
ATOM     28  C   UNL     1      32.037  -8.729 -20.440  0.00  0.00    +0.119 C 
ATOM     29  C   UNL     1      31.510 -10.304 -18.775  0.00  0.00    +0.119 C 
ATOM     30  H   UNL     1      30.363 -10.667 -21.142  0.00  0.00    -0.079 HD
ENDBRANCH  23  25
ENDBRANCH  22  23
ENDBRANCH  21  22
ENDBRANCH  20  21
ENDBRANCH   2  20
TORSDOF 7
ENDMDL
MODEL 3
REMARK VINA RESULT:     -10.2      5.195      9.292
REMARK  Name = 72106
REMARK  7 active torsions:
REMARK  status: ('A' for Active; 'I' for Inactive)
REMARK    1  A    between atoms: C_2  and  C_8
REMARK    2  A    between atoms: C_8  and  O_9
REMARK    3  A    between atoms: O_9  and  C_10
REMARK    4  A    between atoms: C_10  and  C_11
REMARK    5  A    between atoms: C_11  and  N_13
REMARK    6  A    between atoms: N_19  and  C_21
REMARK    7  A    between atoms: C_23  and  C_30
REMARK                            x       y       z     vdW  Elec       q    Type
REMARK                         _______ _______ _______ _____ _____    ______ ____
ROOT
ATOM      1  N   UNL     1      33.104 -13.284 -25.567  0.00  0.00    -0.229 NA
ATOM      2  C   UNL     1      33.698 -14.743 -23.765  0.00  0.00    +0.107 C 
ATOM      3  C   UNL     1      33.368 -13.508 -24.261  0.00  0.00    +0.138 C 
ATOM      4  C   UNL     1      33.771 -15.826 -24.612  0.00  0.00    +0.011 C 
ATOM      5  C   UNL     1      33.507 -15.635 -25.964  0.00  0.00    +0.021 C 
ATOM      6  C   UNL     1      33.181 -14.356 -26.388  0.00  0.00    +0.100 C 
ATOM      7  N   UNL     1      33.297 -12.403 -23.376  0.00  0.00    -0.298 N 
ATOM      8  H   UNL     1      33.035 -12.646 -22.458  0.00  0.00    +0.154 HD
ENDROOT
BRANCH   7   9
ATOM      9  C   UNL     1      33.528 -11.030 -23.554  0.00  0.00    +0.049 C 
ATOM     10  C   UNL     1      32.647 -10.091 -23.006  0.00  0.00    +0.018 C 
ATOM     11  C   UNL     1      32.877  -8.727 -23.182  0.00  0.00    +0.073 C 
ATOM     12  C   UNL     1      34.640 -10.591 -24.278  0.00  0.00    +0.015 C 
ATOM     13  C   UNL     1      33.989  -8.294 -23.905  0.00  0.00    +0.004 C 
ATOM     14  C   UNL     1      34.871  -9.227 -24.453  0.00  0.00    +0.001 C 
BRANCH  11  18
ATOM     15  F   UNL     1      31.535  -8.034 -21.327  0.00  0.00    -0.166 F 
ATOM     16  F   UNL     1      32.453  -6.470 -22.516  0.00  0.00    -0.166 F 
ATOM     17  F   UNL     1      30.785  -7.607 -23.323  0.00  0.00    -0.166 F 
ATOM     18  C   UNL     1      31.935  -7.730 -22.598  0.00  0.00    +0.419 C 
ENDBRANCH  11  18
ENDBRANCH   7   9
BRANCH   2  20
ATOM     19  O   UNL     1      33.351 -14.415 -21.430  0.00  0.00    -0.245 OA
ATOM     20  C   UNL     1      33.982 -14.956 -22.324  0.00  0.00    +0.344 C 
BRANCH  20  21
ATOM     21  O   UNL     1      35.021 -15.820 -22.159  0.00  0.00    -0.448 OA
BRANCH  21  22
ATOM     22  C   UNL     1      34.895 -16.752 -21.093  0.00  0.00    +0.186 C 
BRANCH  22  23
ATOM     23  C   UNL     1      35.188 -18.146 -21.625  0.00  0.00    -0.029 C 
BRANCH  23  25
ATOM     24  O   UNL     1      34.316 -21.829 -19.811  0.00  0.00    -0.358 OA
ATOM     25  N   UNL     1      34.883 -19.158 -20.615  0.00  0.00    +0.393 N 
ATOM     26  C   UNL     1      35.931 -20.186 -20.574  0.00  0.00    -0.044 C 
ATOM     27  C   UNL     1      33.578 -19.780 -20.878  0.00  0.00    -0.044 C 
ATOM     28  C   UNL     1      35.584 -21.238 -19.524  0.00  0.00    +0.119 C 
ATOM     29  C   UNL     1      33.286 -20.840 -19.820  0.00  0.00    +0.119 C 
ATOM     30  H   UNL     1      34.845 -18.695 -19.708  0.00  0.00    -0.079 HD
ENDBRANCH  23  25
ENDBRANCH  22  23
ENDBRANCH  21  22
ENDBRANCH  20  21
ENDBRANCH   2  20
TORSDOF 7
ENDMDL
MODEL 4
REMARK VINA RESULT:     -10.1      6.889     10.254
REMARK  Name = 72106
REMARK  7 active torsions:
REMARK  status: ('A' for Active; 'I' for Inactive)
REMARK    1  A    between atoms: C_2  and  C_8
REMARK    2  A    between atoms: C_8  and  O_9
REMARK    3  A    between atoms: O_9  and  C_10
REMARK    4  A    between atoms: C_10  and  C_11
REMARK    5  A    between atoms: C_11  and  N_13
REMARK    6  A    between atoms: N_19  and  C_21
REMARK    7  A    between atoms: C_23  and  C_30
REMARK                            x       y       z     vdW  Elec       q    Type
REMARK                         _______ _______ _______ _____ _____    ______ ____
ROOT
ATOM      1  N   UNL     1      36.709 -22.901 -16.264  0.00  0.00    -0.229 NA
ATOM      2  C   UNL     1      34.563 -23.445 -15.355  0.00  0.00    +0.107 C 
ATOM      3  C   UNL     1      35.370 -23.035 -16.384  0.00  0.00    +0.138 C 
ATOM      4  C   UNL     1      35.114 -23.742 -14.128  0.00  0.00    +0.011 C 
ATOM      5  C   UNL     1      36.489 -23.616 -13.965  0.00  0.00    +0.021 C 
ATOM      6  C   UNL     1      37.235 -23.195 -15.054  0.00  0.00    +0.100 C 
ATOM      7  N   UNL     1      34.787 -22.733 -17.641  0.00  0.00    -0.298 N 
ATOM      8  H   UNL     1      33.973 -23.251 -17.836  0.00  0.00    +0.154 HD
ENDROOT
BRANCH   7   9
ATOM      9  C   UNL     1      35.147 -21.838 -18.661  0.00  0.00    +0.049 C 
ATOM     10  C   UNL     1      34.159 -21.206 -19.423  0.00  0.00    +0.018 C 
ATOM     11  C   UNL     1      34.516 -20.315 -20.436  0.00  0.00    +0.073 C 
ATOM     12  C   UNL     1      36.494 -21.571 -18.921  0.00  0.00    +0.015 C 
ATOM     13  C   UNL     1      35.863 -20.053 -20.691  0.00  0.00    +0.004 C 
ATOM     14  C   UNL     1      36.852 -20.681 -19.934  0.00  0.00    +0.001 C 
BRANCH  11  18
ATOM     15  F   UNL     1      33.786 -19.507 -22.566  0.00  0.00    -0.166 F 
ATOM     16  F   UNL     1      32.265 -20.306 -21.242  0.00  0.00    -0.166 F 
ATOM     17  F   UNL     1      33.181 -18.383 -20.805  0.00  0.00    -0.166 F 
ATOM     18  C   UNL     1      33.460 -19.645 -21.247  0.00  0.00    +0.419 C 
ENDBRANCH  11  18
ENDBRANCH   7   9
BRANCH   2  20
ATOM     19  O   UNL     1      32.473 -23.080 -16.442  0.00  0.00    -0.245 OA
ATOM     20  C   UNL     1      33.094 -23.584 -15.519  0.00  0.00    +0.344 C 
BRANCH  20  21
ATOM     21  O   UNL     1      32.565 -24.334 -14.514  0.00  0.00    -0.448 OA
BRANCH  21  22
ATOM     22  C   UNL     1      31.423 -23.791 -13.864  0.00  0.00    +0.186 C 
BRANCH  22  23
ATOM     23  C   UNL     1      30.252 -24.741 -14.059  0.00  0.00    -0.029 C 
BRANCH  23  25
ATOM     24  O   UNL     1      28.415 -22.612 -17.173  0.00  0.00    -0.358 OA
ATOM     25  N   UNL     1      29.232 -24.137 -14.914  0.00  0.00    +0.393 N 
ATOM     26  C   UNL     1      29.301 -24.685 -16.275  0.00  0.00    -0.044 C 
ATOM     27  C   UNL     1      29.383 -22.676 -14.951  0.00  0.00    -0.044 C 
ATOM     28  C   UNL     1      28.237 -24.029 -17.151  0.00  0.00    +0.119 C 
ATOM     29  C   UNL     1      28.316 -22.067 -15.857  0.00  0.00    +0.119 C 
ATOM     30  H   UNL     1      28.320 -24.360 -14.518  0.00  0.00    -0.079 HD
ENDBRANCH  23  25
ENDBRANCH  22  23
ENDBRANCH  21  22
ENDBRANCH  20  21
ENDBRANCH   2  20
TORSDOF 7
ENDMDL
MODEL 5
REMARK VINA RESULT:     -10.1      8.132     11.367
REMARK  Name = 72106
REMARK  7 active torsions:
REMARK  status: ('A' for Active; 'I' for Inactive)
REMARK    1  A    between atoms: C_2  and  C_8
REMARK    2  A    between atoms: C_8  and  O_9
REMARK    3  A    between atoms: O_9  and  C_10
REMARK    4  A    between atoms: C_10  and  C_11
REMARK    5  A    between atoms: C_11  and  N_13
REMARK    6  A    between atoms: N_19  and  C_21
REMARK    7  A    between atoms: C_23  and  C_30
REMARK                            x       y       z     vdW  Elec       q    Type
REMARK                         _______ _______ _______ _____ _____    ______ ____
ROOT
ATOM      1  N   UNL     1      33.434 -22.918 -18.125  0.00  0.00    -0.229 NA
ATOM      2  C   UNL     1      35.634 -22.424 -17.324  0.00  0.00    +0.107 C 
ATOM      3  C   UNL     1      34.389 -22.977 -17.171  0.00  0.00    +0.138 C 
ATOM      4  C   UNL     1      35.957 -21.772 -18.492  0.00  0.00    +0.011 C 
ATOM      5  C   UNL     1      35.000 -21.688 -19.498  0.00  0.00    +0.021 C 
ATOM      6  C   UNL     1      33.765 -22.272 -19.267  0.00  0.00    +0.100 C 
ATOM      7  N   UNL     1      34.072 -23.646 -15.962  0.00  0.00    -0.298 N 
ATOM      8  H   UNL     1      34.849 -24.066 -15.525  0.00  0.00    +0.154 HD
ENDROOT
BRANCH   7   9
ATOM      9  C   UNL     1      32.866 -23.826 -15.268  0.00  0.00    +0.049 C 
ATOM     10  C   UNL     1      31.685 -23.251 -15.746  0.00  0.00    +0.018 C 
ATOM     11  C   UNL     1      30.486 -23.431 -15.056  0.00  0.00    +0.073 C 
ATOM     12  C   UNL     1      32.836 -24.585 -14.093  0.00  0.00    +0.015 C 
ATOM     13  C   UNL     1      30.462 -24.189 -13.885  0.00  0.00    +0.004 C 
ATOM     14  C   UNL     1      31.638 -24.766 -13.404  0.00  0.00    +0.001 C 
BRANCH  11  18
ATOM     15  F   UNL     1      29.346 -22.306 -16.833  0.00  0.00    -0.166 F 
ATOM     16  F   UNL     1      28.178 -23.682 -15.630  0.00  0.00    -0.166 F 
ATOM     17  F   UNL     1      28.801 -21.773 -14.796  0.00  0.00    -0.166 F 
ATOM     18  C   UNL     1      29.230 -22.813 -15.570  0.00  0.00    +0.419 C 
ENDBRANCH  11  18
ENDBRANCH   7   9
BRANCH   2  20
ATOM     19  O   UNL     1      37.250 -21.533 -15.815  0.00  0.00    -0.245 OA
ATOM     20  C   UNL     1      36.663 -22.508 -16.257  0.00  0.00    +0.344 C 
BRANCH  20  21
ATOM     21  O   UNL     1      36.844 -23.798 -15.861  0.00  0.00    -0.448 OA
BRANCH  21  22
ATOM     22  C   UNL     1      38.151 -24.135 -15.414  0.00  0.00    +0.186 C 
BRANCH  22  23
ATOM     23  C   UNL     1      38.032 -25.027 -14.188  0.00  0.00    -0.029 C 
BRANCH  23  25
ATOM     24  O   UNL     1      36.430 -23.899 -10.476  0.00  0.00    -0.358 OA
ATOM     25  N   UNL     1      37.184 -24.402 -13.174  0.00  0.00    +0.393 N 
ATOM     26  C   UNL     1      37.972 -23.513 -12.311  0.00  0.00    -0.044 C 
ATOM     27  C   UNL     1      36.506 -25.422 -12.362  0.00  0.00    -0.044 C 
ATOM     28  C   UNL     1      37.068 -22.883 -11.254  0.00  0.00    +0.119 C 
ATOM     29  C   UNL     1      35.636 -24.748 -11.305  0.00  0.00    +0.119 C 
ATOM     30  H   UNL     1      36.478 -23.847 -13.656  0.00  0.00    -0.079 HD
ENDBRANCH  23  25
ENDBRANCH  22  23
ENDBRANCH  21  22
ENDBRANCH  20  21
ENDBRANCH   2  20
TORSDOF 7
ENDMDL
MODEL 6
REMARK VINA RESULT:     -10.1      6.834     10.611
REMARK  Name = 72106
REMARK  7 active torsions:
REMARK  status: ('A' for Active; 'I' for Inactive)
REMARK    1  A    between atoms: C_2  and  C_8
REMARK    2  A    between atoms: C_8  and  O_9
REMARK    3  A    between atoms: O_9  and  C_10
REMARK    4  A    between atoms: C_10  and  C_11
REMARK    5  A    between atoms: C_11  and  N_13
REMARK    6  A    between atoms: N_19  and  C_21
REMARK    7  A    between atoms: C_23  and  C_30
REMARK                            x       y       z     vdW  Elec       q    Type
REMARK                         _______ _______ _______ _____ _____    ______ ____
ROOT
ATOM      1  N   UNL     1      32.605 -21.486 -19.225  0.00  0.00    -0.229 NA
ATOM      2  C   UNL     1      34.998 -21.406 -19.221  0.00  0.00    +0.107 C 
ATOM      3  C   UNL     1      33.804 -21.878 -18.739  0.00  0.00    +0.138 C 
ATOM      4  C   UNL     1      35.010 -20.490 -20.248  0.00  0.00    +0.011 C 
ATOM      5  C   UNL     1      33.796 -20.061 -20.775  0.00  0.00    +0.021 C 
ATOM      6  C   UNL     1      32.633 -20.584 -20.233  0.00  0.00    +0.100 C 
ATOM      7  N   UNL     1      33.809 -22.821 -17.681  0.00  0.00    -0.298 N 
ATOM      8  H   UNL     1      34.602 -23.404 -17.672  0.00  0.00    +0.154 HD
ENDROOT
BRANCH   7   9
ATOM      9  C   UNL     1      32.902 -23.085 -16.643  0.00  0.00    +0.049 C 
ATOM     10  C   UNL     1      31.525 -22.985 -16.868  0.00  0.00    +0.018 C 
ATOM     11  C   UNL     1      30.623 -23.248 -15.837  0.00  0.00    +0.073 C 
ATOM     12  C   UNL     1      33.368 -23.451 -15.376  0.00  0.00    +0.015 C 
ATOM     13  C   UNL     1      31.094 -23.614 -14.575  0.00  0.00    +0.004 C 
ATOM     14  C   UNL     1      32.466 -23.715 -14.345  0.00  0.00    +0.001 C 
BRANCH  11  18
ATOM     15  F   UNL     1      28.440 -24.195 -15.595  0.00  0.00    -0.166 F 
ATOM     16  F   UNL     1      28.589 -22.033 -15.519  0.00  0.00    -0.166 F 
ATOM     17  F   UNL     1      28.850 -23.072 -17.411  0.00  0.00    -0.166 F 
ATOM     18  C   UNL     1      29.157 -23.140 -16.082  0.00  0.00    +0.419 C 
ENDBRANCH  11  18
ENDBRANCH   7   9
BRANCH   2  20
ATOM     19  O   UNL     1      37.356 -21.753 -19.267  0.00  0.00    -0.245 OA
ATOM     20  C   UNL     1      36.298 -21.858 -18.665  0.00  0.00    +0.344 C 
BRANCH  20  21
ATOM     21  O   UNL     1      36.134 -22.390 -17.423  0.00  0.00    -0.448 OA
BRANCH  21  22
ATOM     22  C   UNL     1      37.199 -22.176 -16.507  0.00  0.00    +0.186 C 
BRANCH  22  23
ATOM     23  C   UNL     1      36.943 -23.003 -15.257  0.00  0.00    -0.029 C 
BRANCH  23  25
ATOM     24  O   UNL     1      38.149 -26.938 -14.433  0.00  0.00    -0.358 OA
ATOM     25  N   UNL     1      37.441 -24.367 -15.428  0.00  0.00    +0.393 N 
ATOM     26  C   UNL     1      36.419 -25.348 -15.042  0.00  0.00    -0.044 C 
ATOM     27  C   UNL     1      38.664 -24.577 -14.641  0.00  0.00    -0.044 C 
ATOM     28  C   UNL     1      36.967 -26.762 -15.216  0.00  0.00    +0.119 C 
ATOM     29  C   UNL     1      39.160 -26.008 -14.825  0.00  0.00    +0.119 C 
ATOM     30  H   UNL     1      37.663 -24.498 -16.414  0.00  0.00    -0.079 HD
ENDBRANCH  23  25
ENDBRANCH  22  23
ENDBRANCH  21  22
ENDBRANCH  20  21
ENDBRANCH   2  20
TORSDOF 7
ENDMDL
MODEL 7
REMARK VINA RESULT:     -10.0      6.857     10.166
REMARK  Name = 72106
REMARK  7 active torsions:
REMARK  status: ('A' for Active; 'I' for Inactive)
REMARK    1  A    between atoms: C_2  and  C_8
REMARK    2  A    between atoms: C_8  and  O_9
REMARK    3  A    between atoms: O_9  and  C_10
REMARK    4  A    between atoms: C_10  and  C_11
REMARK    5  A    between atoms: C_11  and  N_13
REMARK    6  A    between atoms: N_19  and  C_21
REMARK    7  A    between atoms: C_23  and  C_30
REMARK                            x       y       z     vdW  Elec       q    Type
REMARK                         _______ _______ _______ _____ _____    ______ ____
ROOT
ATOM      1  N   UNL     1      36.568 -21.883 -17.712  0.00  0.00    -0.229 NA
ATOM      2  C   UNL     1      35.014 -23.063 -16.327  0.00  0.00    +0.107 C 
ATOM      3  C   UNL     1      35.345 -22.410 -17.485  0.00  0.00    +0.138 C 
ATOM      4  C   UNL     1      35.950 -23.207 -15.328  0.00  0.00    +0.011 C 
ATOM      5  C   UNL     1      37.221 -22.677 -15.523  0.00  0.00    +0.021 C 
ATOM      6  C   UNL     1      37.477 -22.030 -16.721  0.00  0.00    +0.100 C 
ATOM      7  N   UNL     1      34.369 -22.271 -18.504  0.00  0.00    -0.298 N 
ATOM      8  H   UNL     1      33.713 -23.005 -18.529  0.00  0.00    +0.154 HD
ENDROOT
BRANCH   7   9
ATOM      9  C   UNL     1      34.156 -21.289 -19.485  0.00  0.00    +0.049 C 
ATOM     10  C   UNL     1      35.232 -20.552 -19.988  0.00  0.00    +0.018 C 
ATOM     11  C   UNL     1      35.021 -19.577 -20.963  0.00  0.00    +0.073 C 
ATOM     12  C   UNL     1      32.867 -21.043 -19.966  0.00  0.00    +0.015 C 
ATOM     13  C   UNL     1      33.732 -19.336 -21.441  0.00  0.00    +0.004 C 
ATOM     14  C   UNL     1      32.655 -20.069 -20.942  0.00  0.00    +0.001 C 
BRANCH  11  18
ATOM     15  F   UNL     1      37.383 -19.203 -21.015  0.00  0.00    -0.166 F 
ATOM     16  F   UNL     1      36.290 -18.849 -22.854  0.00  0.00    -0.166 F 
ATOM     17  F   UNL     1      36.088 -17.465 -21.191  0.00  0.00    -0.166 F 
ATOM     18  C   UNL     1      36.172 -18.793 -21.495  0.00  0.00    +0.419 C 
ENDBRANCH  11  18
ENDBRANCH   7   9
BRANCH   2  20
ATOM     19  O   UNL     1      32.761 -23.554 -16.931  0.00  0.00    -0.245 OA
ATOM     20  C   UNL     1      33.660 -23.633 -16.109  0.00  0.00    +0.344 C 
BRANCH  20  21
ATOM     21  O   UNL     1      33.580 -24.235 -14.890  0.00  0.00    -0.448 OA
BRANCH  21  22
ATOM     22  C   UNL     1      32.577 -23.738 -14.014  0.00  0.00    +0.186 C 
BRANCH  22  23
ATOM     23  C   UNL     1      31.485 -24.787 -13.877  0.00  0.00    -0.029 C 
BRANCH  23  25
ATOM     24  O   UNL     1      28.740 -23.065 -16.544  0.00  0.00    -0.358 OA
ATOM     25  N   UNL     1      30.235 -24.312 -14.468  0.00  0.00    +0.393 N 
ATOM     26  C   UNL     1      29.965 -24.999 -15.738  0.00  0.00    -0.044 C 
ATOM     27  C   UNL     1      30.279 -22.859 -14.681  0.00  0.00    -0.044 C 
ATOM     28  C   UNL     1      28.664 -24.478 -16.342  0.00  0.00    +0.119 C 
ATOM     29  C   UNL     1      28.970 -22.388 -15.308  0.00  0.00    +0.119 C 
ATOM     30  H   UNL     1      29.481 -24.524 -13.816  0.00  0.00    -0.079 HD
ENDBRANCH  23  25
ENDBRANCH  22  23
ENDBRANCH  21  22
ENDBRANCH  20  21
ENDBRANCH   2  20
TORSDOF 7
ENDMDL
MODEL 8
REMARK VINA RESULT:     -10.0      5.158      9.357
REMARK  Name = 72106
REMARK  7 active torsions:
REMARK  status: ('A' for Active; 'I' for Inactive)
REMARK    1  A    between atoms: C_2  and  C_8
REMARK    2  A    between atoms: C_8  and  O_9
REMARK    3  A    between atoms: O_9  and  C_10
REMARK    4  A    between atoms: C_10  and  C_11
REMARK    5  A    between atoms: C_11  and  N_13
REMARK    6  A    between atoms: N_19  and  C_21
REMARK    7  A    between atoms: C_23  and  C_30
REMARK                            x       y       z     vdW  Elec       q    Type
REMARK                         _______ _______ _______ _____ _____    ______ ____
ROOT
ATOM      1  N   UNL     1      36.522 -20.249 -20.548  0.00  0.00    -0.229 NA
ATOM      2  C   UNL     1      34.626 -21.215 -19.452  0.00  0.00    +0.107 C 
ATOM      3  C   UNL     1      35.190 -20.448 -20.438  0.00  0.00    +0.138 C 
ATOM      4  C   UNL     1      35.429 -21.827 -18.515  0.00  0.00    +0.011 C 
ATOM      5  C   UNL     1      36.806 -21.646 -18.594  0.00  0.00    +0.021 C 
ATOM      6  C   UNL     1      37.297 -20.854 -19.620  0.00  0.00    +0.100 C 
ATOM      7  N   UNL     1      34.349 -19.825 -21.395  0.00  0.00    -0.298 N 
ATOM      8  H   UNL     1      33.520 -20.323 -21.579  0.00  0.00    +0.154 HD
ENDROOT
BRANCH   7   9
ATOM      9  C   UNL     1      34.471 -18.637 -22.132  0.00  0.00    +0.049 C 
ATOM     10  C   UNL     1      34.260 -17.400 -21.513  0.00  0.00    +0.018 C 
ATOM     11  C   UNL     1      34.381 -16.219 -22.245  0.00  0.00    +0.073 C 
ATOM     12  C   UNL     1      34.805 -18.680 -23.488  0.00  0.00    +0.015 C 
ATOM     13  C   UNL     1      34.716 -16.268 -23.598  0.00  0.00    +0.004 C 
ATOM     14  C   UNL     1      34.928 -17.499 -24.220  0.00  0.00    +0.001 C 
BRANCH  11  18
ATOM     15  F   UNL     1      34.376 -13.831 -22.398  0.00  0.00    -0.166 F 
ATOM     16  F   UNL     1      32.881 -14.738 -21.116  0.00  0.00    -0.166 F 
ATOM     17  F   UNL     1      34.966 -14.713 -20.500  0.00  0.00    -0.166 F 
ATOM     18  C   UNL     1      34.154 -14.903 -21.581  0.00  0.00    +0.419 C 
ENDBRANCH  11  18
ENDBRANCH   7   9
BRANCH   2  20
ATOM     19  O   UNL     1      32.346 -20.536 -19.601  0.00  0.00    -0.245 OA
ATOM     20  C   UNL     1      33.158 -21.415 -19.358  0.00  0.00    +0.344 C 
BRANCH  20  21
ATOM     21  O   UNL     1      32.868 -22.688 -18.972  0.00  0.00    -0.448 OA
BRANCH  21  22
ATOM     22  C   UNL     1      33.011 -22.967 -17.586  0.00  0.00    +0.186 C 
BRANCH  22  23
ATOM     23  C   UNL     1      31.650 -22.841 -16.919  0.00  0.00    -0.029 C 
BRANCH  23  25
ATOM     24  O   UNL     1      32.132 -25.034 -13.373  0.00  0.00    -0.358 OA
ATOM     25  N   UNL     1      31.736 -23.185 -15.501  0.00  0.00    +0.393 N 
ATOM     26  C   UNL     1      33.072 -23.698 -15.168  0.00  0.00    -0.044 C 
ATOM     27  C   UNL     1      30.713 -24.177 -15.143  0.00  0.00    -0.044 C 
ATOM     28  C   UNL     1      33.132 -24.063 -13.687  0.00  0.00    +0.119 C 
ATOM     29  C   UNL     1      30.827 -24.530 -13.663  0.00  0.00    +0.119 C 
ATOM     30  H   UNL     1      31.569 -22.336 -14.962  0.00  0.00    -0.079 HD
ENDBRANCH  23  25
ENDBRANCH  22  23
ENDBRANCH  21  22
ENDBRANCH  20  21
ENDBRANCH   2  20
TORSDOF 7
ENDMDL
MODEL 9
REMARK VINA RESULT:      -9.9      2.175      2.797
REMARK  Name = 72106
REMARK  7 active torsions:
REMARK  status: ('A' for Active; 'I' for Inactive)
REMARK    1  A    between atoms: C_2  and  C_8
REMARK    2  A    between atoms: C_8  and  O_9
REMARK    3  A    between atoms: O_9  and  C_10
REMARK    4  A    between atoms: C_10  and  C_11
REMARK    5  A    between atoms: C_11  and  N_13
REMARK    6  A    between atoms: N_19  and  C_21
REMARK    7  A    between atoms: C_23  and  C_30
REMARK                            x       y       z     vdW  Elec       q    Type
REMARK                         _______ _______ _______ _____ _____    ______ ____
ROOT
ATOM      1  N   UNL     1      34.618 -18.138 -24.077  0.00  0.00    -0.229 NA
ATOM      2  C   UNL     1      33.975 -15.908 -23.491  0.00  0.00    +0.107 C 
ATOM      3  C   UNL     1      34.351 -17.184 -23.158  0.00  0.00    +0.138 C 
ATOM      4  C   UNL     1      33.855 -15.551 -24.815  0.00  0.00    +0.011 C 
ATOM      5  C   UNL     1      34.120 -16.506 -25.791  0.00  0.00    +0.021 C 
ATOM      6  C   UNL     1      34.494 -17.773 -25.373  0.00  0.00    +0.100 C 
ATOM      7  N   UNL     1      34.471 -17.535 -21.790  0.00  0.00    -0.298 N 
ATOM      8  H   UNL     1      34.728 -16.784 -21.208  0.00  0.00    +0.154 HD
ENDROOT
BRANCH   7   9
ATOM      9  C   UNL     1      34.294 -18.747 -21.104  0.00  0.00    +0.049 C 
ATOM     10  C   UNL     1      35.394 -19.414 -20.557  0.00  0.00    +0.018 C 
ATOM     11  C   UNL     1      35.218 -20.618 -19.874  0.00  0.00    +0.073 C 
ATOM     12  C   UNL     1      33.016 -19.296 -20.962  0.00  0.00    +0.015 C 
ATOM     13  C   UNL     1      33.940 -21.160 -19.735  0.00  0.00    +0.004 C 
ATOM     14  C   UNL     1      32.839 -20.499 -20.279  0.00  0.00    +0.001 C 
BRANCH  11  18
ATOM     15  F   UNL     1      37.134 -20.552 -18.443  0.00  0.00    -0.166 F 
ATOM     16  F   UNL     1      36.065 -22.434 -18.570  0.00  0.00    -0.166 F 
ATOM     17  F   UNL     1      37.271 -21.758 -20.247  0.00  0.00    -0.166 F 
ATOM     18  C   UNL     1      36.395 -21.325 -19.293  0.00  0.00    +0.419 C 
ENDBRANCH  11  18
ENDBRANCH   7   9
BRANCH   2  20
ATOM     19  O   UNL     1      33.079 -15.121 -21.427  0.00  0.00    -0.245 OA
ATOM     20  C   UNL     1      33.690 -14.882 -22.456  0.00  0.00    +0.344 C 
BRANCH  20  21
ATOM     21  O   UNL     1      34.198 -13.673 -22.823  0.00  0.00    -0.448 OA
BRANCH  21  22
ATOM     22  C   UNL     1      33.246 -12.669 -23.148  0.00  0.00    +0.186 C 
BRANCH  22  23
ATOM     23  C   UNL     1      33.759 -11.878 -24.341  0.00  0.00    -0.029 C 
BRANCH  23  25
ATOM     24  O   UNL     1      33.743  -8.001 -22.734  0.00  0.00    -0.358 OA
ATOM     25  N   UNL     1      33.501 -10.450 -24.164  0.00  0.00    +0.393 N 
ATOM     26  C   UNL     1      34.758  -9.691 -24.150  0.00  0.00    -0.044 C 
ATOM     27  C   UNL     1      32.751 -10.206 -22.924  0.00  0.00    -0.044 C 
ATOM     28  C   UNL     1      34.464  -8.206 -23.950  0.00  0.00    +0.119 C 
ATOM     29  C   UNL     1      32.504  -8.710 -22.754  0.00  0.00    +0.119 C 
ATOM     30  H   UNL     1      32.938 -10.133 -24.952  0.00  0.00    -0.079 HD
ENDBRANCH  23  25
ENDBRANCH  22  23
ENDBRANCH  21  22
ENDBRANCH  20  21
ENDBRANCH   2  20
TORSDOF 7
ENDMDL
