MODEL 1
REMARK VINA RESULT:     -11.0      0.000      0.000
REMARK  Name = 31508
REMARK  2 active torsions:
REMARK  status: ('A' for Active; 'I' for Inactive)
REMARK    1  A    between atoms: N_2  and  C_19
REMARK    2  A    between atoms: C_6  and  C_13
REMARK                            x       y       z     vdW  Elec       q    Type
REMARK                         _______ _______ _______ _____ _____    ______ ____
ROOT
ATOM      1  O   UNL     1      34.962 -16.751 -25.921  0.00  0.00    -0.193 OA
ATOM      2  N   UNL     1      34.034 -15.372 -24.325  0.00  0.00    -0.208 N 
ATOM      3  N   UNL     1      34.869 -17.567 -23.819  0.00  0.00    -0.321 NA
ATOM      4  C   UNL     1      33.636 -15.191 -22.970  0.00  0.00    +0.065 C 
ATOM      5  C   UNL     1      33.866 -16.223 -22.056  0.00  0.00    +0.045 C 
ATOM      6  C   UNL     1      34.538 -17.432 -22.574  0.00  0.00    +0.147 C 
ATOM      7  C   UNL     1      33.008 -14.019 -22.518  0.00  0.00    +0.011 C 
ATOM      8  C   UNL     1      34.635 -16.574 -24.745  0.00  0.00    +0.272 C 
ATOM      9  C   UNL     1      33.454 -16.101 -20.723  0.00  0.00    +0.004 C 
ATOM     10  C   UNL     1      32.610 -13.893 -21.186  0.00  0.00    -0.021 C 
ATOM     11  C   UNL     1      32.828 -14.934 -20.291  0.00  0.00    -0.004 C 
ATOM     12  C   UNL     1      31.943 -12.641 -20.723  0.00  0.00    +0.031 C 
ENDROOT
BRANCH   6  13
ATOM     13  C   UNL     1      34.868 -18.553 -21.675  0.00  0.00    +0.031 C 
ATOM     14  C   UNL     1      33.859 -19.402 -21.231  0.00  0.00    +0.003 C 
ATOM     15  C   UNL     1      36.186 -18.753 -21.280  0.00  0.00    +0.003 C 
ATOM     16  C   UNL     1      34.172 -20.463 -20.381  0.00  0.00    +0.000 C 
ATOM     17  C   UNL     1      36.499 -19.814 -20.430  0.00  0.00    +0.000 C 
ATOM     18  C   UNL     1      35.492 -20.670 -19.981  0.00  0.00    +0.000 C 
ENDBRANCH   6  13
BRANCH   2  19
ATOM     19  C   UNL     1      33.797 -14.301 -25.290  0.00  0.00    +0.090 C 
ATOM     20  C   UNL     1      33.763 -12.951 -24.585  0.00  0.00    +0.023 C 
ATOM     21  C   UNL     1      32.509 -14.554 -26.063  0.00  0.00    +0.023 C 
ENDBRANCH   2  19
TORSDOF 2
ENDMDL
MODEL 2
REMARK VINA RESULT:     -10.6      8.354     11.465
REMARK  Name = 31508
REMARK  2 active torsions:
REMARK  status: ('A' for Active; 'I' for Inactive)
REMARK    1  A    between atoms: N_2  and  C_19
REMARK    2  A    between atoms: C_6  and  C_13
REMARK                            x       y       z     vdW  Elec       q    Type
REMARK                         _______ _______ _______ _____ _____    ______ ____
ROOT
ATOM      1  O   UNL     1      31.194 -24.771 -12.989  0.00  0.00    -0.193 OA
ATOM      2  N   UNL     1      31.927 -23.975 -15.023  0.00  0.00    -0.208 N 
ATOM      3  N   UNL     1      33.421 -24.473 -13.208  0.00  0.00    -0.321 NA
ATOM      4  C   UNL     1      33.021 -23.547 -15.829  0.00  0.00    +0.065 C 
ATOM      5  C   UNL     1      34.311 -23.590 -15.294  0.00  0.00    +0.045 C 
ATOM      6  C   UNL     1      34.442 -24.109 -13.918  0.00  0.00    +0.147 C 
ATOM      7  C   UNL     1      32.851 -23.068 -17.138  0.00  0.00    +0.011 C 
ATOM      8  C   UNL     1      32.136 -24.421 -13.704  0.00  0.00    +0.272 C 
ATOM      9  C   UNL     1      35.408 -23.141 -16.039  0.00  0.00    +0.004 C 
ATOM     10  C   UNL     1      33.947 -22.634 -17.886  0.00  0.00    -0.021 C 
ATOM     11  C   UNL     1      35.223 -22.666 -17.335  0.00  0.00    -0.004 C 
ATOM     12  C   UNL     1      33.748 -22.128 -19.276  0.00  0.00    +0.031 C 
ENDROOT
BRANCH   6  13
ATOM     13  C   UNL     1      35.769 -24.240 -13.286  0.00  0.00    +0.031 C 
ATOM     14  C   UNL     1      36.253 -23.214 -12.480  0.00  0.00    +0.003 C 
ATOM     15  C   UNL     1      36.522 -25.388 -13.500  0.00  0.00    +0.003 C 
ATOM     16  C   UNL     1      37.507 -23.339 -11.882  0.00  0.00    +0.000 C 
ATOM     17  C   UNL     1      37.776 -25.513 -12.902  0.00  0.00    +0.000 C 
ATOM     18  C   UNL     1      38.269 -24.489 -12.092  0.00  0.00    +0.000 C 
ENDBRANCH   6  13
BRANCH   2  19
ATOM     19  C   UNL     1      30.574 -23.932 -15.571  0.00  0.00    +0.090 C 
ATOM     20  C   UNL     1      29.778 -22.804 -14.927  0.00  0.00    +0.023 C 
ATOM     21  C   UNL     1      29.880 -25.275 -15.384  0.00  0.00    +0.023 C 
ENDBRANCH   2  19
TORSDOF 2
ENDMDL
MODEL 3
REMARK VINA RESULT:      -9.6      6.359     10.410
REMARK  Name = 31508
REMARK  2 active torsions:
REMARK  status: ('A' for Active; 'I' for Inactive)
REMARK    1  A    between atoms: N_2  and  C_19
REMARK    2  A    between atoms: C_6  and  C_13
REMARK                            x       y       z     vdW  Elec       q    Type
REMARK                         _______ _______ _______ _____ _____    ______ ____
ROOT
ATOM      1  O   UNL     1      30.032 -23.419 -16.657  0.00  0.00    -0.193 OA
ATOM      2  N   UNL     1      31.990 -23.847 -15.520  0.00  0.00    -0.208 N 
ATOM      3  N   UNL     1      31.936 -22.680 -17.619  0.00  0.00    -0.321 NA
ATOM      4  C   UNL     1      33.411 -23.752 -15.484  0.00  0.00    +0.065 C 
ATOM      5  C   UNL     1      34.071 -23.115 -16.537  0.00  0.00    +0.045 C 
ATOM      6  C   UNL     1      33.225 -22.558 -17.612  0.00  0.00    +0.147 C 
ATOM      7  C   UNL     1      34.176 -24.289 -14.436  0.00  0.00    +0.011 C 
ATOM      8  C   UNL     1      31.260 -23.322 -16.603  0.00  0.00    +0.272 C 
ATOM      9  C   UNL     1      35.469 -23.036 -16.560  0.00  0.00    +0.004 C 
ATOM     10  C   UNL     1      35.569 -24.197 -14.452  0.00  0.00    -0.021 C 
ATOM     11  C   UNL     1      36.215 -23.576 -15.514  0.00  0.00    -0.004 C 
ATOM     12  C   UNL     1      36.366 -24.774 -13.330  0.00  0.00    +0.031 C 
ENDROOT
BRANCH   6  13
ATOM     13  C   UNL     1      33.828 -21.824 -18.741  0.00  0.00    +0.031 C 
ATOM     14  C   UNL     1      33.038 -20.984 -19.518  0.00  0.00    +0.003 C 
ATOM     15  C   UNL     1      35.182 -21.978 -19.016  0.00  0.00    +0.003 C 
ATOM     16  C   UNL     1      33.609 -20.289 -20.585  0.00  0.00    +0.000 C 
ATOM     17  C   UNL     1      35.754 -21.283 -20.082  0.00  0.00    +0.000 C 
ATOM     18  C   UNL     1      34.967 -20.438 -20.866  0.00  0.00    +0.000 C 
ENDBRANCH   6  13
BRANCH   2  19
ATOM     19  C   UNL     1      31.288 -24.513 -14.425  0.00  0.00    +0.090 C 
ATOM     20  C   UNL     1      30.227 -25.458 -14.974  0.00  0.00    +0.023 C 
ATOM     21  C   UNL     1      30.678 -23.487 -13.479  0.00  0.00    +0.023 C 
ENDBRANCH   2  19
TORSDOF 2
ENDMDL
MODEL 4
REMARK VINA RESULT:      -9.6      3.959      6.568
REMARK  Name = 31508
REMARK  2 active torsions:
REMARK  status: ('A' for Active; 'I' for Inactive)
REMARK    1  A    between atoms: N_2  and  C_19
REMARK    2  A    between atoms: C_6  and  C_13
REMARK                            x       y       z     vdW  Elec       q    Type
REMARK                         _______ _______ _______ _____ _____    ______ ____
ROOT
ATOM      1  O   UNL     1      30.705 -11.540 -20.845  0.00  0.00    -0.193 OA
ATOM      2  N   UNL     1      32.032 -10.127 -22.091  0.00  0.00    -0.208 N 
ATOM      3  N   UNL     1      32.046 -12.512 -22.379  0.00  0.00    -0.321 NA
ATOM      4  C   UNL     1      33.034  -9.982 -23.093  0.00  0.00    +0.065 C 
ATOM      5  C   UNL     1      33.529 -11.127 -23.722  0.00  0.00    +0.045 C 
ATOM      6  C   UNL     1      32.944 -12.418 -23.308  0.00  0.00    +0.147 C 
ATOM      7  C   UNL     1      33.556  -8.732 -23.462  0.00  0.00    +0.011 C 
ATOM      8  C   UNL     1      31.555 -11.401 -21.728  0.00  0.00    +0.272 C 
ATOM      9  C   UNL     1      34.543 -11.032 -24.683  0.00  0.00    +0.004 C 
ATOM     10  C   UNL     1      34.557  -8.637 -24.431  0.00  0.00    -0.021 C 
ATOM     11  C   UNL     1      35.053  -9.785 -25.037  0.00  0.00    -0.004 C 
ATOM     12  C   UNL     1      35.101  -7.300 -24.812  0.00  0.00    +0.031 C 
ENDROOT
BRANCH   6  13
ATOM     13  C   UNL     1      33.366 -13.677 -23.951  0.00  0.00    +0.031 C 
ATOM     14  C   UNL     1      34.240 -14.532 -23.286  0.00  0.00    +0.003 C 
ATOM     15  C   UNL     1      32.886 -13.998 -25.215  0.00  0.00    +0.003 C 
ATOM     16  C   UNL     1      34.637 -15.723 -23.895  0.00  0.00    +0.000 C 
ATOM     17  C   UNL     1      33.283 -15.189 -25.824  0.00  0.00    +0.000 C 
ATOM     18  C   UNL     1      34.159 -16.052 -25.163  0.00  0.00    +0.000 C 
ENDBRANCH   6  13
BRANCH   2  19
ATOM     19  C   UNL     1      31.509  -8.937 -21.424  0.00  0.00    +0.090 C 
ATOM     20  C   UNL     1      31.317  -7.808 -22.429  0.00  0.00    +0.023 C 
ATOM     21  C   UNL     1      32.429  -8.514 -20.287  0.00  0.00    +0.023 C 
ENDBRANCH   2  19
TORSDOF 2
ENDMDL
MODEL 5
REMARK VINA RESULT:      -9.5      3.812      5.746
REMARK  Name = 31508
REMARK  2 active torsions:
REMARK  status: ('A' for Active; 'I' for Inactive)
REMARK    1  A    between atoms: N_2  and  C_19
REMARK    2  A    between atoms: C_6  and  C_13
REMARK                            x       y       z     vdW  Elec       q    Type
REMARK                         _______ _______ _______ _____ _____    ______ ____
ROOT
ATOM      1  O   UNL     1      34.724  -9.225 -25.218  0.00  0.00    -0.193 OA
ATOM      2  N   UNL     1      33.461  -9.556 -23.319  0.00  0.00    -0.208 N 
ATOM      3  N   UNL     1      34.165 -11.360 -24.741  0.00  0.00    -0.321 NA
ATOM      4  C   UNL     1      32.770 -10.469 -22.472  0.00  0.00    +0.065 C 
ATOM      5  C   UNL     1      32.791 -11.830 -22.788  0.00  0.00    +0.045 C 
ATOM      6  C   UNL     1      33.563 -12.222 -23.985  0.00  0.00    +0.147 C 
ATOM      7  C   UNL     1      32.055 -10.052 -21.338  0.00  0.00    +0.011 C 
ATOM      8  C   UNL     1      34.143 -10.009 -24.464  0.00  0.00    +0.272 C 
ATOM      9  C   UNL     1      32.091 -12.756 -22.005  0.00  0.00    +0.004 C 
ATOM     10  C   UNL     1      31.370 -10.978 -20.548  0.00  0.00    -0.021 C 
ATOM     11  C   UNL     1      31.384 -12.327 -20.885  0.00  0.00    -0.004 C 
ATOM     12  C   UNL     1      30.614 -10.518 -19.346  0.00  0.00    +0.031 C 
ENDROOT
BRANCH   6  13
ATOM     13  C   UNL     1      33.685 -13.641 -24.370  0.00  0.00    +0.031 C 
ATOM     14  C   UNL     1      33.135 -14.079 -25.571  0.00  0.00    +0.003 C 
ATOM     15  C   UNL     1      34.350 -14.527 -23.531  0.00  0.00    +0.003 C 
ATOM     16  C   UNL     1      33.252 -15.421 -25.935  0.00  0.00    +0.000 C 
ATOM     17  C   UNL     1      34.467 -15.868 -23.895  0.00  0.00    +0.000 C 
ATOM     18  C   UNL     1      33.918 -16.315 -25.098  0.00  0.00    +0.000 C 
ENDBRANCH   6  13
BRANCH   2  19
ATOM     19  C   UNL     1      33.445  -8.130 -22.999  0.00  0.00    +0.090 C 
ATOM     20  C   UNL     1      32.395  -7.412 -23.837  0.00  0.00    +0.023 C 
ATOM     21  C   UNL     1      34.826  -7.521 -23.203  0.00  0.00    +0.023 C 
ENDBRANCH   2  19
TORSDOF 2
ENDMDL
MODEL 6
REMARK VINA RESULT:      -9.3      2.203      3.724
REMARK  Name = 31508
REMARK  2 active torsions:
REMARK  status: ('A' for Active; 'I' for Inactive)
REMARK    1  A    between atoms: N_2  and  C_19
REMARK    2  A    between atoms: C_6  and  C_13
REMARK                            x       y       z     vdW  Elec       q    Type
REMARK                         _______ _______ _______ _____ _____    ______ ____
ROOT
ATOM      1  O   UNL     1      32.459 -13.304 -19.989  0.00  0.00    -0.193 OA
ATOM      2  N   UNL     1      32.596 -13.495 -22.281  0.00  0.00    -0.208 N 
ATOM      3  N   UNL     1      33.348 -15.219 -20.787  0.00  0.00    -0.321 NA
ATOM      4  C   UNL     1      33.005 -14.267 -23.406  0.00  0.00    +0.065 C 
ATOM      5  C   UNL     1      33.590 -15.517 -23.190  0.00  0.00    +0.045 C 
ATOM      6  C   UNL     1      33.717 -15.957 -21.785  0.00  0.00    +0.147 C 
ATOM      7  C   UNL     1      32.857 -13.812 -24.727  0.00  0.00    +0.011 C 
ATOM      8  C   UNL     1      32.788 -13.973 -20.971  0.00  0.00    +0.272 C 
ATOM      9  C   UNL     1      34.044 -16.290 -24.266  0.00  0.00    +0.004 C 
ATOM     10  C   UNL     1      33.296 -14.590 -25.800  0.00  0.00    -0.021 C 
ATOM     11  C   UNL     1      33.893 -15.824 -25.570  0.00  0.00    -0.004 C 
ATOM     12  C   UNL     1      33.132 -14.091 -27.197  0.00  0.00    +0.031 C 
ENDROOT
BRANCH   6  13
ATOM     13  C   UNL     1      34.276 -17.283 -21.459  0.00  0.00    +0.031 C 
ATOM     14  C   UNL     1      33.420 -18.333 -21.140  0.00  0.00    +0.003 C 
ATOM     15  C   UNL     1      35.653 -17.471 -21.475  0.00  0.00    +0.003 C 
ATOM     16  C   UNL     1      33.950 -19.586 -20.832  0.00  0.00    +0.000 C 
ATOM     17  C   UNL     1      36.183 -18.725 -21.168  0.00  0.00    +0.000 C 
ATOM     18  C   UNL     1      35.331 -19.783 -20.847  0.00  0.00    +0.000 C 
ENDBRANCH   6  13
BRANCH   2  19
ATOM     19  C   UNL     1      31.985 -12.185 -22.495  0.00  0.00    +0.090 C 
ATOM     20  C   UNL     1      33.053 -11.149 -22.818  0.00  0.00    +0.023 C 
ATOM     21  C   UNL     1      31.164 -11.774 -21.280  0.00  0.00    +0.023 C 
ENDBRANCH   2  19
TORSDOF 2
ENDMDL
MODEL 7
REMARK VINA RESULT:      -9.0      2.890      4.517
REMARK  Name = 31508
REMARK  2 active torsions:
REMARK  status: ('A' for Active; 'I' for Inactive)
REMARK    1  A    between atoms: N_2  and  C_19
REMARK    2  A    between atoms: C_6  and  C_13
REMARK                            x       y       z     vdW  Elec       q    Type
REMARK                         _______ _______ _______ _____ _____    ______ ____
ROOT
ATOM      1  O   UNL     1      34.133 -10.758 -25.950  0.00  0.00    -0.193 OA
ATOM      2  N   UNL     1      33.132 -10.742 -23.875  0.00  0.00    -0.208 N 
ATOM      3  N   UNL     1      34.060 -12.730 -24.853  0.00  0.00    -0.321 NA
ATOM      4  C   UNL     1      32.715 -11.478 -22.729  0.00  0.00    +0.065 C 
ATOM      5  C   UNL     1      32.984 -12.848 -22.674  0.00  0.00    +0.045 C 
ATOM      6  C   UNL     1      33.713 -13.429 -23.819  0.00  0.00    +0.147 C 
ATOM      7  C   UNL     1      32.031 -10.883 -21.657  0.00  0.00    +0.011 C 
ATOM      8  C   UNL     1      33.790 -11.381 -24.942  0.00  0.00    +0.272 C 
ATOM      9  C   UNL     1      32.556 -13.617 -21.584  0.00  0.00    +0.004 C 
ATOM     10  C   UNL     1      31.617 -11.646 -20.564  0.00  0.00    -0.021 C 
ATOM     11  C   UNL     1      31.875 -13.012 -20.530  0.00  0.00    -0.004 C 
ATOM     12  C   UNL     1      30.891 -10.997 -19.434  0.00  0.00    +0.031 C 
ENDROOT
BRANCH   6  13
ATOM     13  C   UNL     1      34.086 -14.856 -23.829  0.00  0.00    +0.031 C 
ATOM     14  C   UNL     1      34.793 -15.393 -22.757  0.00  0.00    +0.003 C 
ATOM     15  C   UNL     1      33.726 -15.654 -24.910  0.00  0.00    +0.003 C 
ATOM     16  C   UNL     1      35.144 -16.742 -22.767  0.00  0.00    +0.000 C 
ATOM     17  C   UNL     1      34.077 -17.004 -24.920  0.00  0.00    +0.000 C 
ATOM     18  C   UNL     1      34.785 -17.549 -23.848  0.00  0.00    +0.000 C 
ENDBRANCH   6  13
BRANCH   2  19
ATOM     19  C   UNL     1      32.854  -9.309 -23.945  0.00  0.00    +0.090 C 
ATOM     20  C   UNL     1      33.994  -8.518 -23.314  0.00  0.00    +0.023 C 
ATOM     21  C   UNL     1      31.524  -8.989 -23.276  0.00  0.00    +0.023 C 
ENDBRANCH   2  19
TORSDOF 2
ENDMDL
MODEL 8
REMARK VINA RESULT:      -8.7      4.380      8.745
REMARK  Name = 31508
REMARK  2 active torsions:
REMARK  status: ('A' for Active; 'I' for Inactive)
REMARK    1  A    between atoms: N_2  and  C_19
REMARK    2  A    between atoms: C_6  and  C_13
REMARK                            x       y       z     vdW  Elec       q    Type
REMARK                         _______ _______ _______ _____ _____    ______ ____
ROOT
ATOM      1  O   UNL     1      31.306 -12.748 -21.454  0.00  0.00    -0.193 OA
ATOM      2  N   UNL     1      32.832 -12.176 -23.083  0.00  0.00    -0.208 N 
ATOM      3  N   UNL     1      31.725 -10.544 -21.711  0.00  0.00    -0.321 NA
ATOM      4  C   UNL     1      33.516 -11.145 -23.789  0.00  0.00    +0.065 C 
ATOM      5  C   UNL     1      33.281  -9.815 -23.434  0.00  0.00    +0.045 C 
ATOM      6  C   UNL     1      32.342  -9.581 -22.318  0.00  0.00    +0.147 C 
ATOM      7  C   UNL     1      34.409 -11.414 -24.839  0.00  0.00    +0.011 C 
ATOM      8  C   UNL     1      31.923 -11.865 -22.055  0.00  0.00    +0.272 C 
ATOM      9  C   UNL     1      33.902  -8.769 -24.129  0.00  0.00    +0.004 C 
ATOM     10  C   UNL     1      35.039 -10.372 -25.522  0.00  0.00    -0.021 C 
ATOM     11  C   UNL     1      34.782  -9.052 -25.171  0.00  0.00    -0.004 C 
ATOM     12  C   UNL     1      35.984 -10.676 -26.637  0.00  0.00    +0.031 C 
ENDROOT
BRANCH   6  13
ATOM     13  C   UNL     1      32.069  -8.213 -21.838  0.00  0.00    +0.031 C 
ATOM     14  C   UNL     1      32.618  -7.780 -20.636  0.00  0.00    +0.003 C 
ATOM     15  C   UNL     1      31.264  -7.367 -22.594  0.00  0.00    +0.003 C 
ATOM     16  C   UNL     1      32.359  -6.486 -20.184  0.00  0.00    +0.000 C 
ATOM     17  C   UNL     1      31.005  -6.073 -22.142  0.00  0.00    +0.000 C 
ATOM     18  C   UNL     1      31.554  -5.632 -20.937  0.00  0.00    +0.000 C 
ENDBRANCH   6  13
BRANCH   2  19
ATOM     19  C   UNL     1      33.069 -13.571 -23.447  0.00  0.00    +0.090 C 
ATOM     20  C   UNL     1      34.386 -14.056 -22.857  0.00  0.00    +0.023 C 
ATOM     21  C   UNL     1      33.046 -13.740 -24.961  0.00  0.00    +0.023 C 
ENDBRANCH   2  19
TORSDOF 2
ENDMDL
MODEL 9
REMARK VINA RESULT:      -8.6      3.549      7.622
REMARK  Name = 31508
REMARK  2 active torsions:
REMARK  status: ('A' for Active; 'I' for Inactive)
REMARK    1  A    between atoms: N_2  and  C_19
REMARK    2  A    between atoms: C_6  and  C_13
REMARK                            x       y       z     vdW  Elec       q    Type
REMARK                         _______ _______ _______ _____ _____    ______ ____
ROOT
ATOM      1  O   UNL     1      34.292 -11.519 -26.094  0.00  0.00    -0.193 OA
ATOM      2  N   UNL     1      33.580 -12.717 -24.259  0.00  0.00    -0.208 N 
ATOM      3  N   UNL     1      33.318 -10.336 -24.437  0.00  0.00    -0.321 NA
ATOM      4  C   UNL     1      32.986 -12.704 -22.964  0.00  0.00    +0.065 C 
ATOM      5  C   UNL     1      32.569 -11.484 -22.427  0.00  0.00    +0.045 C 
ATOM      6  C   UNL     1      32.758 -10.286 -23.271  0.00  0.00    +0.147 C 
ATOM      7  C   UNL     1      32.818 -13.869 -22.200  0.00  0.00    +0.011 C 
ATOM      8  C   UNL     1      33.758 -11.523 -24.983  0.00  0.00    +0.272 C 
ATOM      9  C   UNL     1      32.018 -11.421 -21.141  0.00  0.00    +0.004 C 
ATOM     10  C   UNL     1      32.255 -13.808 -20.924  0.00  0.00    -0.021 C 
ATOM     11  C   UNL     1      31.860 -12.585 -20.393  0.00  0.00    -0.004 C 
ATOM     12  C   UNL     1      32.084 -15.057 -20.124  0.00  0.00    +0.031 C 
ENDROOT
BRANCH   6  13
ATOM     13  C   UNL     1      32.303  -8.961 -22.810  0.00  0.00    +0.031 C 
ATOM     14  C   UNL     1      32.892  -8.379 -21.691  0.00  0.00    +0.003 C 
ATOM     15  C   UNL     1      31.289  -8.304 -23.499  0.00  0.00    +0.003 C 
ATOM     16  C   UNL     1      32.461  -7.126 -21.257  0.00  0.00    +0.000 C 
ATOM     17  C   UNL     1      30.859  -7.050 -23.064  0.00  0.00    +0.000 C 
ATOM     18  C   UNL     1      31.446  -6.460 -21.944  0.00  0.00    +0.000 C 
ENDBRANCH   6  13
BRANCH   2  19
ATOM     19  C   UNL     1      34.022 -13.987 -24.831  0.00  0.00    +0.090 C 
ATOM     20  C   UNL     1      32.897 -14.626 -25.634  0.00  0.00    +0.023 C 
ATOM     21  C   UNL     1      34.519 -14.921 -23.736  0.00  0.00    +0.023 C 
ENDBRANCH   2  19
TORSDOF 2
ENDMDL
