MODEL 1
REMARK VINA RESULT:      -6.2      0.000      0.000
REMARK  Name = 443250
REMARK  5 active torsions:
REMARK  status: ('A' for Active; 'I' for Inactive)
REMARK    1  A    between atoms: C_1  and  O_2
REMARK    2  A    between atoms: C_1  and  C_5
REMARK    3  A    between atoms: C_1  and  C_8
REMARK    4  A    between atoms: C_5  and  O_6
REMARK    5  A    between atoms: C_8  and  S_9
REMARK                            x       y       z     vdW  Elec       q    Type
REMARK                         _______ _______ _______ _____ _____    ______ ____
ROOT
ATOM      1  C   UNL     1      38.759 -25.636 -14.329  0.00  0.00    +0.234 C 
ENDROOT
BRANCH   1   2
ATOM      2  O   UNL     1      38.433 -26.966 -14.705  0.00  0.00    -0.373 OA
ATOM      3  H   UNL     1      39.211 -27.391 -15.099  0.00  0.00    +0.211 HD
ENDBRANCH   1   2
BRANCH   1   5
ATOM      4  O   UNL     1      40.998 -24.675 -14.278  0.00  0.00    -0.248 OA
ATOM      5  C   UNL     1      40.146 -25.336 -14.854  0.00  0.00    +0.343 C 
BRANCH   5   6
ATOM      6  O   UNL     1      40.345 -25.932 -16.057  0.00  0.00    -0.478 OA
ATOM      7  H   UNL     1      41.204 -26.207 -16.308  0.00  0.00    +0.295 HD
ENDBRANCH   5   6
ENDBRANCH   1   5
BRANCH   1   8
ATOM      8  C   UNL     1      38.717 -25.535 -12.813  0.00  0.00    +0.199 C 
BRANCH   8   9
ATOM      9  S   UNL     1      37.919 -24.049 -12.284  0.00  0.00    +0.026 S 
ATOM     10  O   UNL     1      39.245 -23.290 -11.712  0.00  0.00    -0.069 OA
ATOM     11  O   UNL     1      37.042 -24.360 -11.170  0.00  0.00    -0.069 OA
ATOM     12  O   UNL     1      37.440 -23.337 -13.453  0.00  0.00    -0.069 OA
ENDBRANCH   8   9
ENDBRANCH   1   8
TORSDOF 5
ENDMDL
MODEL 2
REMARK VINA RESULT:      -5.9      2.212      4.644
REMARK  Name = 443250
REMARK  5 active torsions:
REMARK  status: ('A' for Active; 'I' for Inactive)
REMARK    1  A    between atoms: C_1  and  O_2
REMARK    2  A    between atoms: C_1  and  C_5
REMARK    3  A    between atoms: C_1  and  C_8
REMARK    4  A    between atoms: C_5  and  O_6
REMARK    5  A    between atoms: C_8  and  S_9
REMARK                            x       y       z     vdW  Elec       q    Type
REMARK                         _______ _______ _______ _____ _____    ______ ____
ROOT
ATOM      1  C   UNL     1      36.884 -24.571 -12.198  0.00  0.00    +0.234 C 
ENDROOT
BRANCH   1   2
ATOM      2  O   UNL     1      37.927 -24.353 -11.258  0.00  0.00    -0.373 OA
ATOM      3  H   UNL     1      37.551 -24.296 -10.366  0.00  0.00    +0.211 HD
ENDBRANCH   1   2
BRANCH   1   5
ATOM      4  O   UNL     1      35.296 -25.128 -10.436  0.00  0.00    -0.248 OA
ATOM      5  C   UNL     1      35.570 -24.503 -11.451  0.00  0.00    +0.343 C 
BRANCH   5   6
ATOM      6  O   UNL     1      34.725 -23.621 -12.041  0.00  0.00    -0.478 OA
ATOM      7  H   UNL     1      35.013 -22.750 -12.229  0.00  0.00    +0.295 HD
ENDBRANCH   5   6
ENDBRANCH   1   5
BRANCH   1   8
ATOM      8  C   UNL     1      37.079 -25.938 -12.834  0.00  0.00    +0.199 C 
BRANCH   8   9
ATOM      9  S   UNL     1      37.747 -25.804 -14.466  0.00  0.00    +0.026 S 
ATOM     10  O   UNL     1      38.637 -24.460 -14.219  0.00  0.00    -0.069 OA
ATOM     11  O   UNL     1      36.671 -25.490 -15.387  0.00  0.00    -0.069 OA
ATOM     12  O   UNL     1      38.642 -26.922 -14.695  0.00  0.00    -0.069 OA
ENDBRANCH   8   9
ENDBRANCH   1   8
TORSDOF 5
ENDMDL
MODEL 3
REMARK VINA RESULT:      -5.9      1.768      2.823
REMARK  Name = 443250
REMARK  5 active torsions:
REMARK  status: ('A' for Active; 'I' for Inactive)
REMARK    1  A    between atoms: C_1  and  O_2
REMARK    2  A    between atoms: C_1  and  C_5
REMARK    3  A    between atoms: C_1  and  C_8
REMARK    4  A    between atoms: C_5  and  O_6
REMARK    5  A    between atoms: C_8  and  S_9
REMARK                            x       y       z     vdW  Elec       q    Type
REMARK                         _______ _______ _______ _____ _____    ______ ____
ROOT
ATOM      1  C   UNL     1      36.888 -25.684 -13.719  0.00  0.00    +0.234 C 
ENDROOT
BRANCH   1   2
ATOM      2  O   UNL     1      36.851 -26.728 -12.756  0.00  0.00    -0.373 OA
ATOM      3  H   UNL     1      36.024 -27.225 -12.849  0.00  0.00    +0.211 HD
ENDBRANCH   1   2
BRANCH   1   5
ATOM      4  O   UNL     1      36.386 -26.885 -15.779  0.00  0.00    -0.248 OA
ATOM      5  C   UNL     1      37.193 -26.310 -15.063  0.00  0.00    +0.343 C 
BRANCH   5   6
ATOM      6  O   UNL     1      38.495 -26.124 -15.397  0.00  0.00    -0.478 OA
ATOM      7  H   UNL     1      38.789 -25.282 -15.682  0.00  0.00    +0.295 HD
ENDBRANCH   5   6
ENDBRANCH   1   5
BRANCH   1   8
ATOM      8  C   UNL     1      37.971 -24.694 -13.322  0.00  0.00    +0.199 C 
BRANCH   8   9
ATOM      9  S   UNL     1      37.434 -23.641 -12.007  0.00  0.00    +0.026 S 
ATOM     10  O   UNL     1      35.996 -23.219 -12.650  0.00  0.00    -0.069 OA
ATOM     11  O   UNL     1      38.290 -22.469 -11.966  0.00  0.00    -0.069 OA
ATOM     12  O   UNL     1      37.199 -24.452 -10.827  0.00  0.00    -0.069 OA
ENDBRANCH   8   9
ENDBRANCH   1   8
TORSDOF 5
ENDMDL
MODEL 4
REMARK VINA RESULT:      -5.9      2.266      2.889
REMARK  Name = 443250
REMARK  5 active torsions:
REMARK  status: ('A' for Active; 'I' for Inactive)
REMARK    1  A    between atoms: C_1  and  O_2
REMARK    2  A    between atoms: C_1  and  C_5
REMARK    3  A    between atoms: C_1  and  C_8
REMARK    4  A    between atoms: C_5  and  O_6
REMARK    5  A    between atoms: C_8  and  S_9
REMARK                            x       y       z     vdW  Elec       q    Type
REMARK                         _______ _______ _______ _____ _____    ______ ____
ROOT
ATOM      1  C   UNL     1      36.639 -25.554 -14.407  0.00  0.00    +0.234 C 
ENDROOT
BRANCH   1   2
ATOM      2  O   UNL     1      35.221 -25.541 -14.498  0.00  0.00    -0.373 OA
ATOM      3  H   UNL     1      34.946 -24.917 -15.187  0.00  0.00    +0.211 HD
ENDBRANCH   1   2
BRANCH   1   5
ATOM      4  O   UNL     1      36.602 -27.248 -16.158  0.00  0.00    -0.248 OA
ATOM      5  C   UNL     1      37.137 -26.759 -15.174  0.00  0.00    +0.343 C 
BRANCH   5   6
ATOM      6  O   UNL     1      38.296 -27.224 -14.641  0.00  0.00    -0.478 OA
ATOM      7  H   UNL     1      39.031 -26.651 -14.548  0.00  0.00    +0.295 HD
ENDBRANCH   5   6
ENDBRANCH   1   5
BRANCH   1   8
ATOM      8  C   UNL     1      37.031 -25.640 -12.941  0.00  0.00    +0.199 C 
BRANCH   8   9
ATOM      9  S   UNL     1      36.204 -24.411 -11.976  0.00  0.00    +0.026 S 
ATOM     10  O   UNL     1      37.355 -24.231 -10.834  0.00  0.00    -0.069 OA
ATOM     11  O   UNL     1      35.030 -25.007 -11.366  0.00  0.00    -0.069 OA
ATOM     12  O   UNL     1      36.121 -23.189 -12.752  0.00  0.00    -0.069 OA
ENDBRANCH   8   9
ENDBRANCH   1   8
TORSDOF 5
ENDMDL
MODEL 5
REMARK VINA RESULT:      -5.9      1.554      2.519
REMARK  Name = 443250
REMARK  5 active torsions:
REMARK  status: ('A' for Active; 'I' for Inactive)
REMARK    1  A    between atoms: C_1  and  O_2
REMARK    2  A    between atoms: C_1  and  C_5
REMARK    3  A    between atoms: C_1  and  C_8
REMARK    4  A    between atoms: C_5  and  O_6
REMARK    5  A    between atoms: C_8  and  S_9
REMARK                            x       y       z     vdW  Elec       q    Type
REMARK                         _______ _______ _______ _____ _____    ______ ____
ROOT
ATOM      1  C   UNL     1      38.644 -25.256 -13.742  0.00  0.00    +0.234 C 
ENDROOT
BRANCH   1   2
ATOM      2  O   UNL     1      38.598 -23.928 -14.244  0.00  0.00    -0.373 OA
ATOM      3  H   UNL     1      38.890 -23.922 -15.169  0.00  0.00    +0.211 HD
ENDBRANCH   1   2
BRANCH   1   5
ATOM      4  O   UNL     1      38.042 -27.348 -14.837  0.00  0.00    -0.248 OA
ATOM      5  C   UNL     1      37.892 -26.141 -14.712  0.00  0.00    +0.343 C 
BRANCH   5   6
ATOM      6  O   UNL     1      36.989 -25.419 -15.422  0.00  0.00    -0.478 OA
ATOM      7  H   UNL     1      36.847 -25.608 -16.328  0.00  0.00    +0.295 HD
ENDBRANCH   5   6
ENDBRANCH   1   5
BRANCH   1   8
ATOM      8  C   UNL     1      37.993 -25.279 -12.368  0.00  0.00    +0.199 C 
BRANCH   8   9
ATOM      9  S   UNL     1      37.295 -23.707 -11.956  0.00  0.00    +0.026 S 
ATOM     10  O   UNL     1      36.580 -24.155 -10.560  0.00  0.00    -0.069 OA
ATOM     11  O   UNL     1      36.264 -23.385 -12.926  0.00  0.00    -0.069 OA
ATOM     12  O   UNL     1      38.372 -22.784 -11.655  0.00  0.00    -0.069 OA
ENDBRANCH   8   9
ENDBRANCH   1   8
TORSDOF 5
ENDMDL
MODEL 6
REMARK VINA RESULT:      -5.7      2.600      3.404
REMARK  Name = 443250
REMARK  5 active torsions:
REMARK  status: ('A' for Active; 'I' for Inactive)
REMARK    1  A    between atoms: C_1  and  O_2
REMARK    2  A    between atoms: C_1  and  C_5
REMARK    3  A    between atoms: C_1  and  C_8
REMARK    4  A    between atoms: C_5  and  O_6
REMARK    5  A    between atoms: C_8  and  S_9
REMARK                            x       y       z     vdW  Elec       q    Type
REMARK                         _______ _______ _______ _____ _____    ______ ____
ROOT
ATOM      1  C   UNL     1      35.642 -24.660 -13.633  0.00  0.00    +0.234 C 
ENDROOT
BRANCH   1   2
ATOM      2  O   UNL     1      36.218 -25.821 -13.051  0.00  0.00    -0.373 OA
ATOM      3  H   UNL     1      35.726 -26.605 -13.339  0.00  0.00    +0.211 HD
ENDBRANCH   1   2
BRANCH   1   5
ATOM      4  O   UNL     1      35.046 -24.338 -15.973  0.00  0.00    -0.248 OA
ATOM      5  C   UNL     1      35.827 -24.756 -15.131  0.00  0.00    +0.343 C 
BRANCH   5   6
ATOM      6  O   UNL     1      37.010 -25.349 -15.433  0.00  0.00    -0.478 OA
ATOM      7  H   UNL     1      37.631 -24.906 -15.977  0.00  0.00    +0.295 HD
ENDBRANCH   5   6
ENDBRANCH   1   5
BRANCH   1   8
ATOM      8  C   UNL     1      36.347 -23.435 -13.074  0.00  0.00    +0.199 C 
BRANCH   8   9
ATOM      9  S   UNL     1      37.824 -23.877 -12.207  0.00  0.00    +0.026 S 
ATOM     10  O   UNL     1      38.304 -22.365 -11.826  0.00  0.00    -0.069 OA
ATOM     11  O   UNL     1      38.769 -24.443 -13.152  0.00  0.00    -0.069 OA
ATOM     12  O   UNL     1      37.457 -24.572 -10.988  0.00  0.00    -0.069 OA
ENDBRANCH   8   9
ENDBRANCH   1   8
TORSDOF 5
ENDMDL
MODEL 7
REMARK VINA RESULT:      -5.7      2.022      2.873
REMARK  Name = 443250
REMARK  5 active torsions:
REMARK  status: ('A' for Active; 'I' for Inactive)
REMARK    1  A    between atoms: C_1  and  O_2
REMARK    2  A    between atoms: C_1  and  C_5
REMARK    3  A    between atoms: C_1  and  C_8
REMARK    4  A    between atoms: C_5  and  O_6
REMARK    5  A    between atoms: C_8  and  S_9
REMARK                            x       y       z     vdW  Elec       q    Type
REMARK                         _______ _______ _______ _____ _____    ______ ____
ROOT
ATOM      1  C   UNL     1      39.011 -25.534 -14.086  0.00  0.00    +0.234 C 
ENDROOT
BRANCH   1   2
ATOM      2  O   UNL     1      39.325 -24.588 -13.073  0.00  0.00    -0.373 OA
ATOM      3  H   UNL     1      39.356 -23.699 -13.459  0.00  0.00    +0.211 HD
ENDBRANCH   1   2
BRANCH   1   5
ATOM      4  O   UNL     1      41.226 -26.548 -14.057  0.00  0.00    -0.248 OA
ATOM      5  C   UNL     1      40.314 -26.022 -14.679  0.00  0.00    +0.343 C 
BRANCH   5   6
ATOM      6  O   UNL     1      40.335 -25.829 -16.022  0.00  0.00    -0.478 OA
ATOM      7  H   UNL     1      39.575 -26.022 -16.535  0.00  0.00    +0.295 HD
ENDBRANCH   5   6
ENDBRANCH   1   5
BRANCH   1   8
ATOM      8  C   UNL     1      38.155 -24.850 -15.140  0.00  0.00    +0.199 C 
BRANCH   8   9
ATOM      9  S   UNL     1      36.482 -25.420 -15.084  0.00  0.00    +0.026 S 
ATOM     10  O   UNL     1      36.329 -25.465 -13.462  0.00  0.00    -0.069 OA
ATOM     11  O   UNL     1      36.433 -26.777 -15.597  0.00  0.00    -0.069 OA
ATOM     12  O   UNL     1      35.618 -24.378 -15.607  0.00  0.00    -0.069 OA
ENDBRANCH   8   9
ENDBRANCH   1   8
TORSDOF 5
ENDMDL
MODEL 8
REMARK VINA RESULT:      -5.6      1.888      2.341
REMARK  Name = 443250
REMARK  5 active torsions:
REMARK  status: ('A' for Active; 'I' for Inactive)
REMARK    1  A    between atoms: C_1  and  O_2
REMARK    2  A    between atoms: C_1  and  C_5
REMARK    3  A    between atoms: C_1  and  C_8
REMARK    4  A    between atoms: C_5  and  O_6
REMARK    5  A    between atoms: C_8  and  S_9
REMARK                            x       y       z     vdW  Elec       q    Type
REMARK                         _______ _______ _______ _____ _____    ______ ____
ROOT
ATOM      1  C   UNL     1      36.637 -24.979 -14.051  0.00  0.00    +0.234 C 
ENDROOT
BRANCH   1   2
ATOM      2  O   UNL     1      36.361 -26.038 -13.145  0.00  0.00    -0.373 OA
ATOM      3  H   UNL     1      35.551 -25.838 -12.650  0.00  0.00    +0.211 HD
ENDBRANCH   1   2
BRANCH   1   5
ATOM      4  O   UNL     1      39.009 -24.621 -14.477  0.00  0.00    -0.248 OA
ATOM      5  C   UNL     1      37.983 -25.254 -14.684  0.00  0.00    +0.343 C 
BRANCH   5   6
ATOM      6  O   UNL     1      37.919 -26.333 -15.504  0.00  0.00    -0.478 OA
ATOM      7  H   UNL     1      38.296 -26.293 -16.361  0.00  0.00    +0.295 HD
ENDBRANCH   5   6
ENDBRANCH   1   5
BRANCH   1   8
ATOM      8  C   UNL     1      36.654 -23.670 -13.278  0.00  0.00    +0.199 C 
BRANCH   8   9
ATOM      9  S   UNL     1      36.739 -23.949 -11.534  0.00  0.00    +0.026 S 
ATOM     10  O   UNL     1      37.139 -22.429 -11.098  0.00  0.00    -0.069 OA
ATOM     11  O   UNL     1      37.861 -24.826 -11.255  0.00  0.00    -0.069 OA
ATOM     12  O   UNL     1      35.405 -24.240 -11.045  0.00  0.00    -0.069 OA
ENDBRANCH   8   9
ENDBRANCH   1   8
TORSDOF 5
ENDMDL
MODEL 9
REMARK VINA RESULT:      -5.6      8.830     10.007
REMARK  Name = 443250
REMARK  5 active torsions:
REMARK  status: ('A' for Active; 'I' for Inactive)
REMARK    1  A    between atoms: C_1  and  O_2
REMARK    2  A    between atoms: C_1  and  C_5
REMARK    3  A    between atoms: C_1  and  C_8
REMARK    4  A    between atoms: C_5  and  O_6
REMARK    5  A    between atoms: C_8  and  S_9
REMARK                            x       y       z     vdW  Elec       q    Type
REMARK                         _______ _______ _______ _____ _____    ______ ____
ROOT
ATOM      1  C   UNL     1      30.361 -23.797 -14.928  0.00  0.00    +0.234 C 
ENDROOT
BRANCH   1   2
ATOM      2  O   UNL     1      31.298 -23.971 -15.981  0.00  0.00    -0.373 OA
ATOM      3  H   UNL     1      30.936 -24.586 -16.639  0.00  0.00    +0.211 HD
ENDBRANCH   1   2
BRANCH   1   5
ATOM      4  O   UNL     1      30.585 -24.278 -12.550  0.00  0.00    -0.248 OA
ATOM      5  C   UNL     1      30.902 -24.509 -13.708  0.00  0.00    +0.343 C 
BRANCH   5   6
ATOM      6  O   UNL     1      31.782 -25.478 -14.067  0.00  0.00    -0.478 OA
ATOM      7  H   UNL     1      32.678 -25.261 -14.229  0.00  0.00    +0.295 HD
ENDBRANCH   5   6
ENDBRANCH   1   5
BRANCH   1   8
ATOM      8  C   UNL     1      29.030 -24.391 -15.360  0.00  0.00    +0.199 C 
BRANCH   8   9
ATOM      9  S   UNL     1      28.277 -23.432 -16.641  0.00  0.00    +0.026 S 
ATOM     10  O   UNL     1      27.088 -22.773 -15.739  0.00  0.00    -0.069 OA
ATOM     11  O   UNL     1      27.684 -24.333 -17.612  0.00  0.00    -0.069 OA
ATOM     12  O   UNL     1      29.198 -22.384 -17.039  0.00  0.00    -0.069 OA
ENDBRANCH   8   9
ENDBRANCH   1   8
TORSDOF 5
ENDMDL
