MODEL 1
REMARK VINA RESULT:     -10.1      0.000      0.000
REMARK  Name = 11245700
REMARK  5 active torsions:
REMARK  status: ('A' for Active; 'I' for Inactive)
REMARK    1  A    between atoms: C_4  and  C_19
REMARK    2  A    between atoms: C_10  and  O_12
REMARK    3  A    between atoms: O_12  and  S_13
REMARK    4  A    between atoms: S_13  and  N_16
REMARK    5  A    between atoms: C_19  and  C_20
REMARK                            x       y       z     vdW  Elec       q    Type
REMARK                         _______ _______ _______ _____ _____    ______ ____
ROOT
ATOM      1  S   UNL     1      33.776 -22.496 -18.879  0.00  0.00    +0.024 S 
ATOM      2  O   UNL     1      32.606 -21.951 -18.222  0.00  0.00    -0.165 OA
ATOM      3  O   UNL     1      33.761 -23.737 -19.624  0.00  0.00    -0.165 OA
ATOM      4  C   UNL     1      34.607 -21.250 -19.779  0.00  0.00    +0.088 C 
ATOM      5  C   UNL     1      35.784 -20.938 -19.209  0.00  0.00    +0.016 C 
ATOM      6  C   UNL     1      35.046 -22.606 -17.693  0.00  0.00    +0.113 C 
ATOM      7  C   UNL     1      36.062 -21.706 -18.001  0.00  0.00    +0.019 C 
ATOM      8  C   UNL     1      35.070 -23.448 -16.600  0.00  0.00    +0.059 C 
ATOM      9  C   UNL     1      37.173 -21.635 -17.178  0.00  0.00    +0.005 C 
ATOM     10  C   UNL     1      36.188 -23.374 -15.773  0.00  0.00    +0.174 C 
ATOM     11  C   UNL     1      37.233 -22.474 -16.058  0.00  0.00    +0.040 C 
ENDROOT
BRANCH  10  12
ATOM     12  O   UNL     1      36.275 -24.178 -14.677  0.00  0.00    -0.349 OA
BRANCH  12  13
ATOM     13  S   UNL     1      36.906 -25.690 -14.713  0.00  0.00    +0.086 S 
ATOM     14  O   UNL     1      38.343 -25.581 -14.892  0.00  0.00    -0.046 OA
ATOM     15  O   UNL     1      36.104 -26.499 -15.613  0.00  0.00    -0.046 OA
BRANCH  13  16
ATOM     16  N   UNL     1      36.631 -26.267 -13.121  0.00  0.00    -0.194 NA
ATOM     17  H   UNL     1      35.890 -25.719 -12.684  0.00  0.00    +0.145 HD
ATOM     18  H   UNL     1      37.487 -26.178 -12.574  0.00  0.00    +0.145 HD
ENDBRANCH  13  16
ENDBRANCH  12  13
ENDBRANCH  10  12
BRANCH   4  19
ATOM     19  C   UNL     1      34.007 -20.672 -21.009  0.00  0.00    +0.045 C 
BRANCH  19  20
ATOM     20  C   UNL     1      34.730 -19.387 -21.435  0.00  0.00    +0.006 C 
ATOM     21  C   UNL     1      34.811 -19.328 -22.971  0.00  0.00    +0.000 C 
ATOM     22  C   UNL     1      34.029 -18.180 -20.794  0.00  0.00    +0.000 C 
ATOM     23  C   UNL     1      35.803 -18.283 -23.476  0.00  0.00    +0.000 C 
ATOM     24  C   UNL     1      34.611 -16.813 -21.153  0.00  0.00    +0.000 C 
ATOM     25  C   UNL     1      35.236 -16.878 -23.648  0.00  0.00    +0.000 C 
ATOM     26  C   UNL     1      34.271 -16.383 -22.576  0.00  0.00    +0.000 C 
ENDBRANCH  19  20
ENDBRANCH   4  19
TORSDOF 5
ENDMDL
MODEL 2
REMARK VINA RESULT:      -9.8      1.814      2.352
REMARK  Name = 11245700
REMARK  5 active torsions:
REMARK  status: ('A' for Active; 'I' for Inactive)
REMARK    1  A    between atoms: C_4  and  C_19
REMARK    2  A    between atoms: C_10  and  O_12
REMARK    3  A    between atoms: O_12  and  S_13
REMARK    4  A    between atoms: S_13  and  N_16
REMARK    5  A    between atoms: C_19  and  C_20
REMARK                            x       y       z     vdW  Elec       q    Type
REMARK                         _______ _______ _______ _____ _____    ______ ____
ROOT
ATOM      1  S   UNL     1      33.573 -23.339 -17.427  0.00  0.00    +0.024 S 
ATOM      2  O   UNL     1      32.459 -22.690 -16.768  0.00  0.00    -0.165 OA
ATOM      3  O   UNL     1      33.464 -24.623 -18.088  0.00  0.00    -0.165 OA
ATOM      4  C   UNL     1      34.435 -22.202 -18.435  0.00  0.00    +0.088 C 
ATOM      5  C   UNL     1      35.648 -21.920 -17.927  0.00  0.00    +0.016 C 
ATOM      6  C   UNL     1      34.878 -23.444 -16.280  0.00  0.00    +0.113 C 
ATOM      7  C   UNL     1      35.929 -22.623 -16.681  0.00  0.00    +0.019 C 
ATOM      8  C   UNL     1      34.898 -24.214 -15.136  0.00  0.00    +0.059 C 
ATOM      9  C   UNL     1      37.072 -22.561 -15.902  0.00  0.00    +0.005 C 
ATOM     10  C   UNL     1      36.050 -24.149 -14.353  0.00  0.00    +0.174 C 
ATOM     11  C   UNL     1      37.129 -23.329 -14.732  0.00  0.00    +0.040 C 
ENDROOT
BRANCH  10  12
ATOM     12  O   UNL     1      36.134 -24.885 -13.210  0.00  0.00    -0.349 OA
BRANCH  12  13
ATOM     13  S   UNL     1      36.566 -24.254 -11.760  0.00  0.00    +0.086 S 
ATOM     14  O   UNL     1      36.354 -22.818 -11.804  0.00  0.00    -0.046 OA
ATOM     15  O   UNL     1      37.856 -24.805 -11.387  0.00  0.00    -0.046 OA
BRANCH  13  16
ATOM     16  N   UNL     1      35.399 -24.910 -10.686  0.00  0.00    -0.194 NA
ATOM     17  H   UNL     1      34.605 -25.263 -11.220  0.00  0.00    +0.145 HD
ATOM     18  H   UNL     1      35.080 -24.184 -10.045  0.00  0.00    +0.145 HD
ENDBRANCH  13  16
ENDBRANCH  12  13
ENDBRANCH  10  12
BRANCH   4  19
ATOM     19  C   UNL     1      33.821 -21.671 -19.679  0.00  0.00    +0.045 C 
BRANCH  19  20
ATOM     20  C   UNL     1      34.419 -20.312 -20.065  0.00  0.00    +0.006 C 
ATOM     21  C   UNL     1      35.762 -20.526 -20.785  0.00  0.00    +0.000 C 
ATOM     22  C   UNL     1      33.386 -19.522 -20.881  0.00  0.00    +0.000 C 
ATOM     23  C   UNL     1      36.591 -19.248 -20.893  0.00  0.00    +0.000 C 
ATOM     24  C   UNL     1      33.845 -18.151 -21.375  0.00  0.00    +0.000 C 
ATOM     25  C   UNL     1      36.298 -18.386 -22.116  0.00  0.00    +0.000 C 
ATOM     26  C   UNL     1      34.837 -18.242 -22.530  0.00  0.00    +0.000 C 
ENDBRANCH  19  20
ENDBRANCH   4  19
TORSDOF 5
ENDMDL
MODEL 3
REMARK VINA RESULT:      -9.6      5.917      7.090
REMARK  Name = 11245700
REMARK  5 active torsions:
REMARK  status: ('A' for Active; 'I' for Inactive)
REMARK    1  A    between atoms: C_4  and  C_19
REMARK    2  A    between atoms: C_10  and  O_12
REMARK    3  A    between atoms: O_12  and  S_13
REMARK    4  A    between atoms: S_13  and  N_16
REMARK    5  A    between atoms: C_19  and  C_20
REMARK                            x       y       z     vdW  Elec       q    Type
REMARK                         _______ _______ _______ _____ _____    ______ ____
ROOT
ATOM      1  S   UNL     1      34.953 -23.860 -15.622  0.00  0.00    +0.024 S 
ATOM      2  O   UNL     1      34.320 -24.822 -16.500  0.00  0.00    -0.165 OA
ATOM      3  O   UNL     1      35.674 -22.701 -16.105  0.00  0.00    -0.165 OA
ATOM      4  C   UNL     1      33.872 -23.414 -14.323  0.00  0.00    +0.088 C 
ATOM      5  C   UNL     1      34.297 -23.903 -13.145  0.00  0.00    +0.016 C 
ATOM      6  C   UNL     1      36.013 -24.736 -14.554  0.00  0.00    +0.113 C 
ATOM      7  C   UNL     1      35.531 -24.672 -13.250  0.00  0.00    +0.019 C 
ATOM      8  C   UNL     1      37.165 -25.404 -14.916  0.00  0.00    +0.059 C 
ATOM      9  C   UNL     1      36.232 -25.308 -12.239  0.00  0.00    +0.005 C 
ATOM     10  C   UNL     1      37.868 -26.043 -13.897  0.00  0.00    +0.174 C 
ATOM     11  C   UNL     1      37.407 -25.996 -12.569  0.00  0.00    +0.040 C 
ENDROOT
BRANCH  10  12
ATOM     12  O   UNL     1      39.014 -26.721 -14.188  0.00  0.00    -0.349 OA
BRANCH  12  13
ATOM     13  S   UNL     1      40.458 -25.988 -14.439  0.00  0.00    +0.086 S 
ATOM     14  O   UNL     1      41.511 -26.899 -14.028  0.00  0.00    -0.046 OA
ATOM     15  O   UNL     1      40.387 -24.641 -13.901  0.00  0.00    -0.046 OA
BRANCH  13  16
ATOM     16  N   UNL     1      40.536 -25.853 -16.148  0.00  0.00    -0.194 NA
ATOM     17  H   UNL     1      41.030 -26.659 -16.530  0.00  0.00    +0.145 HD
ATOM     18  H   UNL     1      41.033 -24.999 -16.400  0.00  0.00    +0.145 HD
ENDBRANCH  13  16
ENDBRANCH  12  13
ENDBRANCH  10  12
BRANCH   4  19
ATOM     19  C   UNL     1      32.663 -22.593 -14.588  0.00  0.00    +0.045 C 
BRANCH  19  20
ATOM     20  C   UNL     1      31.550 -23.427 -15.236  0.00  0.00    +0.006 C 
ATOM     21  C   UNL     1      30.920 -24.353 -14.180  0.00  0.00    +0.000 C 
ATOM     22  C   UNL     1      30.551 -22.484 -15.922  0.00  0.00    +0.000 C 
ATOM     23  C   UNL     1      30.058 -25.455 -14.792  0.00  0.00    +0.000 C 
ATOM     24  C   UNL     1      29.354 -23.163 -16.588  0.00  0.00    +0.000 C 
ATOM     25  C   UNL     1      28.603 -25.077 -15.042  0.00  0.00    +0.000 C 
ATOM     26  C   UNL     1      28.332 -23.676 -15.580  0.00  0.00    +0.000 C 
ENDBRANCH  19  20
ENDBRANCH   4  19
TORSDOF 5
ENDMDL
MODEL 4
REMARK VINA RESULT:      -9.6      7.751     10.807
REMARK  Name = 11245700
REMARK  5 active torsions:
REMARK  status: ('A' for Active; 'I' for Inactive)
REMARK    1  A    between atoms: C_4  and  C_19
REMARK    2  A    between atoms: C_10  and  O_12
REMARK    3  A    between atoms: O_12  and  S_13
REMARK    4  A    between atoms: S_13  and  N_16
REMARK    5  A    between atoms: C_19  and  C_20
REMARK                            x       y       z     vdW  Elec       q    Type
REMARK                         _______ _______ _______ _____ _____    ______ ____
ROOT
ATOM      1  S   UNL     1      34.307 -15.896 -23.548  0.00  0.00    +0.024 S 
ATOM      2  O   UNL     1      35.585 -15.313 -23.899  0.00  0.00    -0.165 OA
ATOM      3  O   UNL     1      33.424 -16.513 -24.516  0.00  0.00    -0.165 OA
ATOM      4  C   UNL     1      34.463 -16.904 -22.130  0.00  0.00    +0.088 C 
ATOM      5  C   UNL     1      33.852 -16.351 -21.067  0.00  0.00    +0.016 C 
ATOM      6  C   UNL     1      33.391 -14.686 -22.693  0.00  0.00    +0.113 C 
ATOM      7  C   UNL     1      33.225 -15.068 -21.366  0.00  0.00    +0.019 C 
ATOM      8  C   UNL     1      32.893 -13.515 -23.224  0.00  0.00    +0.059 C 
ATOM      9  C   UNL     1      32.521 -14.241 -20.508  0.00  0.00    +0.005 C 
ATOM     10  C   UNL     1      32.185 -12.683 -22.359  0.00  0.00    +0.174 C 
ATOM     11  C   UNL     1      31.999 -13.042 -21.011  0.00  0.00    +0.040 C 
ENDROOT
BRANCH  10  12
ATOM     12  O   UNL     1      31.666 -11.511 -22.820  0.00  0.00    -0.349 OA
BRANCH  12  13
ATOM     13  S   UNL     1      32.359 -10.050 -22.552  0.00  0.00    +0.086 S 
ATOM     14  O   UNL     1      33.609  -9.995 -23.288  0.00  0.00    -0.046 OA
ATOM     15  O   UNL     1      32.323  -9.781 -21.126  0.00  0.00    -0.046 OA
BRANCH  13  16
ATOM     16  N   UNL     1      31.272  -8.957 -23.307  0.00  0.00    -0.194 NA
ATOM     17  H   UNL     1      30.392  -9.435 -23.505  0.00  0.00    +0.145 HD
ATOM     18  H   UNL     1      31.679  -8.621 -24.180  0.00  0.00    +0.145 HD
ENDBRANCH  13  16
ENDBRANCH  12  13
ENDBRANCH  10  12
BRANCH   4  19
ATOM     19  C   UNL     1      35.197 -18.194 -22.191  0.00  0.00    +0.045 C 
BRANCH  19  20
ATOM     20  C   UNL     1      34.912 -19.061 -20.958  0.00  0.00    +0.006 C 
ATOM     21  C   UNL     1      33.618 -19.864 -21.181  0.00  0.00    +0.000 C 
ATOM     22  C   UNL     1      36.145 -19.925 -20.655  0.00  0.00    +0.000 C 
ATOM     23  C   UNL     1      33.068 -20.478 -19.895  0.00  0.00    +0.000 C 
ATOM     24  C   UNL     1      36.007 -20.878 -19.469  0.00  0.00    +0.000 C 
ATOM     25  C   UNL     1      33.626 -21.852 -19.542  0.00  0.00    +0.000 C 
ATOM     26  C   UNL     1      35.117 -22.077 -19.777  0.00  0.00    +0.000 C 
ENDBRANCH  19  20
ENDBRANCH   4  19
TORSDOF 5
ENDMDL
MODEL 5
REMARK VINA RESULT:      -9.5      7.111     10.751
REMARK  Name = 11245700
REMARK  5 active torsions:
REMARK  status: ('A' for Active; 'I' for Inactive)
REMARK    1  A    between atoms: C_4  and  C_19
REMARK    2  A    between atoms: C_10  and  O_12
REMARK    3  A    between atoms: O_12  and  S_13
REMARK    4  A    between atoms: S_13  and  N_16
REMARK    5  A    between atoms: C_19  and  C_20
REMARK                            x       y       z     vdW  Elec       q    Type
REMARK                         _______ _______ _______ _____ _____    ______ ____
ROOT
ATOM      1  S   UNL     1      34.092 -16.093 -21.258  0.00  0.00    +0.024 S 
ATOM      2  O   UNL     1      32.931 -16.896 -20.929  0.00  0.00    -0.165 OA
ATOM      3  O   UNL     1      35.059 -15.659 -20.272  0.00  0.00    -0.165 OA
ATOM      4  C   UNL     1      34.898 -16.733 -22.670  0.00  0.00    +0.088 C 
ATOM      5  C   UNL     1      34.751 -15.917 -23.728  0.00  0.00    +0.016 C 
ATOM      6  C   UNL     1      33.533 -14.681 -22.110  0.00  0.00    +0.113 C 
ATOM      7  C   UNL     1      33.966 -14.724 -23.432  0.00  0.00    +0.019 C 
ATOM      8  C   UNL     1      32.775 -13.657 -21.582  0.00  0.00    +0.059 C 
ATOM      9  C   UNL     1      33.628 -13.689 -24.287  0.00  0.00    +0.005 C 
ATOM     10  C   UNL     1      32.435 -12.617 -22.445  0.00  0.00    +0.174 C 
ATOM     11  C   UNL     1      32.858 -12.631 -23.787  0.00  0.00    +0.040 C 
ENDROOT
BRANCH  10  12
ATOM     12  O   UNL     1      31.687 -11.574 -21.986  0.00  0.00    -0.349 OA
BRANCH  12  13
ATOM     13  S   UNL     1      32.030 -10.005 -22.312  0.00  0.00    +0.086 S 
ATOM     14  O   UNL     1      30.889  -9.420 -22.994  0.00  0.00    -0.046 OA
ATOM     15  O   UNL     1      33.359  -9.938 -22.892  0.00  0.00    -0.046 OA
BRANCH  13  16
ATOM     16  N   UNL     1      32.114  -9.292 -20.753  0.00  0.00    -0.194 NA
ATOM     17  H   UNL     1      33.002  -8.800 -20.652  0.00  0.00    +0.145 HD
ATOM     18  H   UNL     1      32.046 -10.019 -20.042  0.00  0.00    +0.145 HD
ENDBRANCH  13  16
ENDBRANCH  12  13
ENDBRANCH  10  12
BRANCH   4  19
ATOM     19  C   UNL     1      35.629 -18.024 -22.608  0.00  0.00    +0.045 C 
BRANCH  19  20
ATOM     20  C   UNL     1      35.318 -18.784 -21.313  0.00  0.00    +0.006 C 
ATOM     21  C   UNL     1      34.154 -19.761 -21.556  0.00  0.00    +0.000 C 
ATOM     22  C   UNL     1      36.602 -19.451 -20.799  0.00  0.00    +0.000 C 
ATOM     23  C   UNL     1      33.546 -20.300 -20.262  0.00  0.00    +0.000 C 
ATOM     24  C   UNL     1      36.450 -20.283 -19.526  0.00  0.00    +0.000 C 
ATOM     25  C   UNL     1      34.217 -21.548 -19.701  0.00  0.00    +0.000 C 
ATOM     26  C   UNL     1      35.739 -21.609 -19.771  0.00  0.00    +0.000 C 
ENDBRANCH  19  20
ENDBRANCH   4  19
TORSDOF 5
ENDMDL
MODEL 6
REMARK VINA RESULT:      -9.4      2.145      3.302
REMARK  Name = 11245700
REMARK  5 active torsions:
REMARK  status: ('A' for Active; 'I' for Inactive)
REMARK    1  A    between atoms: C_4  and  C_19
REMARK    2  A    between atoms: C_10  and  O_12
REMARK    3  A    between atoms: O_12  and  S_13
REMARK    4  A    between atoms: S_13  and  N_16
REMARK    5  A    between atoms: C_19  and  C_20
REMARK                            x       y       z     vdW  Elec       q    Type
REMARK                         _______ _______ _______ _____ _____    ______ ____
ROOT
ATOM      1  S   UNL     1      36.431 -20.682 -19.964  0.00  0.00    +0.024 S 
ATOM      2  O   UNL     1      37.155 -21.657 -20.754  0.00  0.00    -0.165 OA
ATOM      3  O   UNL     1      37.072 -19.799 -19.013  0.00  0.00    -0.165 OA
ATOM      4  C   UNL     1      35.309 -19.794 -20.967  0.00  0.00    +0.088 C 
ATOM      5  C   UNL     1      34.036 -20.117 -20.681  0.00  0.00    +0.016 C 
ATOM      6  C   UNL     1      35.154 -21.521 -19.129  0.00  0.00    +0.113 C 
ATOM      7  C   UNL     1      33.918 -21.115 -19.623  0.00  0.00    +0.019 C 
ATOM      8  C   UNL     1      35.311 -22.455 -18.126  0.00  0.00    +0.059 C 
ATOM      9  C   UNL     1      32.764 -21.664 -19.091  0.00  0.00    +0.005 C 
ATOM     10  C   UNL     1      34.148 -23.007 -17.593  0.00  0.00    +0.174 C 
ATOM     11  C   UNL     1      32.884 -22.616 -18.070  0.00  0.00    +0.040 C 
ENDROOT
BRANCH  10  12
ATOM     12  O   UNL     1      34.234 -23.935 -16.599  0.00  0.00    -0.349 OA
BRANCH  12  13
ATOM     13  S   UNL     1      35.262 -23.806 -15.329  0.00  0.00    +0.086 S 
ATOM     14  O   UNL     1      35.322 -22.411 -14.929  0.00  0.00    -0.046 OA
ATOM     15  O   UNL     1      36.472 -24.543 -15.643  0.00  0.00    -0.046 OA
BRANCH  13  16
ATOM     16  N   UNL     1      34.451 -24.661 -14.081  0.00  0.00    -0.194 NA
ATOM     17  H   UNL     1      34.912 -24.480 -13.189  0.00  0.00    +0.145 HD
ATOM     18  H   UNL     1      34.477 -25.660 -14.280  0.00  0.00    +0.145 HD
ENDBRANCH  13  16
ENDBRANCH  12  13
ENDBRANCH  10  12
BRANCH   4  19
ATOM     19  C   UNL     1      35.799 -18.824 -21.980  0.00  0.00    +0.045 C 
BRANCH  19  20
ATOM     20  C   UNL     1      34.797 -17.683 -22.194  0.00  0.00    +0.006 C 
ATOM     21  C   UNL     1      34.944 -16.650 -21.063  0.00  0.00    +0.000 C 
ATOM     22  C   UNL     1      34.988 -17.104 -23.603  0.00  0.00    +0.000 C 
ATOM     23  C   UNL     1      33.772 -15.672 -20.992  0.00  0.00    +0.000 C 
ATOM     24  C   UNL     1      34.083 -15.926 -23.961  0.00  0.00    +0.000 C 
ATOM     25  C   UNL     1      33.906 -14.434 -21.872  0.00  0.00    +0.000 C 
ATOM     26  C   UNL     1      34.495 -14.633 -23.265  0.00  0.00    +0.000 C 
ENDBRANCH  19  20
ENDBRANCH   4  19
TORSDOF 5
ENDMDL
MODEL 7
REMARK VINA RESULT:      -9.3      7.255     10.168
REMARK  Name = 11245700
REMARK  5 active torsions:
REMARK  status: ('A' for Active; 'I' for Inactive)
REMARK    1  A    between atoms: C_4  and  C_19
REMARK    2  A    between atoms: C_10  and  O_12
REMARK    3  A    between atoms: O_12  and  S_13
REMARK    4  A    between atoms: S_13  and  N_16
REMARK    5  A    between atoms: C_19  and  C_20
REMARK                            x       y       z     vdW  Elec       q    Type
REMARK                         _______ _______ _______ _____ _____    ______ ____
ROOT
ATOM      1  S   UNL     1      32.973 -12.803 -23.479  0.00  0.00    +0.024 S 
ATOM      2  O   UNL     1      32.168 -13.400 -24.525  0.00  0.00    -0.165 OA
ATOM      3  O   UNL     1      34.116 -11.956 -23.745  0.00  0.00    -0.165 OA
ATOM      4  C   UNL     1      31.952 -12.090 -22.253  0.00  0.00    +0.088 C 
ATOM      5  C   UNL     1      32.008 -12.786 -21.104  0.00  0.00    +0.016 C 
ATOM      6  C   UNL     1      33.497 -14.083 -22.420  0.00  0.00    +0.113 C 
ATOM      7  C   UNL     1      32.893 -13.943 -21.174  0.00  0.00    +0.019 C 
ATOM      8  C   UNL     1      34.376 -15.096 -22.739  0.00  0.00    +0.059 C 
ATOM      9  C   UNL     1      33.177 -14.863 -20.179  0.00  0.00    +0.005 C 
ATOM     10  C   UNL     1      34.660 -16.022 -21.737  0.00  0.00    +0.174 C 
ATOM     11  C   UNL     1      34.066 -15.907 -20.466  0.00  0.00    +0.040 C 
ENDROOT
BRANCH  10  12
ATOM     12  O   UNL     1      35.521 -17.048 -21.987  0.00  0.00    -0.349 OA
BRANCH  12  13
ATOM     13  S   UNL     1      35.108 -18.628 -21.843  0.00  0.00    +0.086 S 
ATOM     14  O   UNL     1      35.327 -19.276 -23.124  0.00  0.00    -0.046 OA
ATOM     15  O   UNL     1      33.818 -18.705 -21.182  0.00  0.00    -0.046 OA
BRANCH  13  16
ATOM     16  N   UNL     1      36.281 -19.241 -20.752  0.00  0.00    -0.194 NA
ATOM     17  H   UNL     1      35.903 -20.055 -20.268  0.00  0.00    +0.145 HD
ATOM     18  H   UNL     1      36.520 -18.522 -20.070  0.00  0.00    +0.145 HD
ENDBRANCH  13  16
ENDBRANCH  12  13
ENDBRANCH  10  12
BRANCH   4  19
ATOM     19  C   UNL     1      31.159 -10.867 -22.541  0.00  0.00    +0.045 C 
BRANCH  19  20
ATOM     20  C   UNL     1      31.992  -9.597 -22.328  0.00  0.00    +0.006 C 
ATOM     21  C   UNL     1      31.507  -8.496 -23.288  0.00  0.00    +0.000 C 
ATOM     22  C   UNL     1      31.940  -9.205 -20.844  0.00  0.00    +0.000 C 
ATOM     23  C   UNL     1      32.484  -7.328 -23.399  0.00  0.00    +0.000 C 
ATOM     24  C   UNL     1      32.696  -7.930 -20.472  0.00  0.00    +0.000 C 
ATOM     25  C   UNL     1      32.301  -6.227 -22.361  0.00  0.00    +0.000 C 
ATOM     26  C   UNL     1      31.981  -6.665 -20.935  0.00  0.00    +0.000 C 
ENDBRANCH  19  20
ENDBRANCH   4  19
TORSDOF 5
ENDMDL
MODEL 8
REMARK VINA RESULT:      -9.2      7.140     10.630
REMARK  Name = 11245700
REMARK  5 active torsions:
REMARK  status: ('A' for Active; 'I' for Inactive)
REMARK    1  A    between atoms: C_4  and  C_19
REMARK    2  A    between atoms: C_10  and  O_12
REMARK    3  A    between atoms: O_12  and  S_13
REMARK    4  A    between atoms: S_13  and  N_16
REMARK    5  A    between atoms: C_19  and  C_20
REMARK                            x       y       z     vdW  Elec       q    Type
REMARK                         _______ _______ _______ _____ _____    ______ ____
ROOT
ATOM      1  S   UNL     1      34.375 -16.330 -21.578  0.00  0.00    +0.024 S 
ATOM      2  O   UNL     1      33.095 -16.631 -20.970  0.00  0.00    -0.165 OA
ATOM      3  O   UNL     1      35.253 -15.284 -21.098  0.00  0.00    -0.165 OA
ATOM      4  C   UNL     1      35.273 -17.799 -21.872  0.00  0.00    +0.088 C 
ATOM      5  C   UNL     1      35.362 -18.064 -23.187  0.00  0.00    +0.016 C 
ATOM      6  C   UNL     1      34.102 -16.055 -23.275  0.00  0.00    +0.113 C 
ATOM      7  C   UNL     1      34.692 -17.071 -24.021  0.00  0.00    +0.019 C 
ATOM      8  C   UNL     1      33.410 -14.998 -23.829  0.00  0.00    +0.059 C 
ATOM      9  C   UNL     1      34.593 -17.042 -25.401  0.00  0.00    +0.005 C 
ATOM     10  C   UNL     1      33.310 -14.971 -25.219  0.00  0.00    +0.174 C 
ATOM     11  C   UNL     1      33.896 -15.984 -26.000  0.00  0.00    +0.040 C 
ENDROOT
BRANCH  10  12
ATOM     12  O   UNL     1      32.639 -13.955 -25.830  0.00  0.00    -0.349 OA
BRANCH  12  13
ATOM     13  S   UNL     1      33.324 -12.953 -26.931  0.00  0.00    +0.086 S 
ATOM     14  O   UNL     1      34.130 -13.753 -27.837  0.00  0.00    -0.046 OA
ATOM     15  O   UNL     1      33.899 -11.822 -26.226  0.00  0.00    -0.046 OA
BRANCH  13  16
ATOM     16  N   UNL     1      31.978 -12.372 -27.822  0.00  0.00    -0.194 NA
ATOM     17  H   UNL     1      31.115 -12.708 -27.393  0.00  0.00    +0.145 HD
ATOM     18  H   UNL     1      32.033 -12.710 -28.782  0.00  0.00    +0.145 HD
ENDBRANCH  13  16
ENDBRANCH  12  13
ENDBRANCH  10  12
BRANCH   4  19
ATOM     19  C   UNL     1      35.832 -18.588 -20.743  0.00  0.00    +0.045 C 
BRANCH  19  20
ATOM     20  C   UNL     1      35.175 -19.970 -20.645  0.00  0.00    +0.006 C 
ATOM     21  C   UNL     1      35.854 -20.785 -19.530  0.00  0.00    +0.000 C 
ATOM     22  C   UNL     1      33.660 -19.796 -20.464  0.00  0.00    +0.000 C 
ATOM     23  C   UNL     1      35.515 -22.273 -19.588  0.00  0.00    +0.000 C 
ATOM     24  C   UNL     1      32.860 -21.089 -20.313  0.00  0.00    +0.000 C 
ATOM     25  C   UNL     1      34.249 -22.681 -18.844  0.00  0.00    +0.000 C 
ATOM     26  C   UNL     1      33.050 -21.743 -18.949  0.00  0.00    +0.000 C 
ENDBRANCH  19  20
ENDBRANCH   4  19
TORSDOF 5
ENDMDL
MODEL 9
REMARK VINA RESULT:      -9.2     10.624     14.309
REMARK  Name = 11245700
REMARK  5 active torsions:
REMARK  status: ('A' for Active; 'I' for Inactive)
REMARK    1  A    between atoms: C_4  and  C_19
REMARK    2  A    between atoms: C_10  and  O_12
REMARK    3  A    between atoms: O_12  and  S_13
REMARK    4  A    between atoms: S_13  and  N_16
REMARK    5  A    between atoms: C_19  and  C_20
REMARK                            x       y       z     vdW  Elec       q    Type
REMARK                         _______ _______ _______ _____ _____    ______ ____
ROOT
ATOM      1  S   UNL     1      31.443 -11.013 -21.880  0.00  0.00    +0.024 S 
ATOM      2  O   UNL     1      30.088 -10.961 -22.389  0.00  0.00    -0.165 OA
ATOM      3  O   UNL     1      31.757 -11.216 -20.482  0.00  0.00    -0.165 OA
ATOM      4  C   UNL     1      32.435 -12.040 -22.888  0.00  0.00    +0.088 C 
ATOM      5  C   UNL     1      33.337 -11.321 -23.580  0.00  0.00    +0.016 C 
ATOM      6  C   UNL     1      32.259  -9.566 -22.402  0.00  0.00    +0.113 C 
ATOM      7  C   UNL     1      33.256  -9.889 -23.318  0.00  0.00    +0.019 C 
ATOM      8  C   UNL     1      31.983  -8.280 -21.988  0.00  0.00    +0.059 C 
ATOM      9  C   UNL     1      34.029  -8.876 -23.859  0.00  0.00    +0.005 C 
ATOM     10  C   UNL     1      32.762  -7.262 -22.534  0.00  0.00    +0.174 C 
ATOM     11  C   UNL     1      33.778  -7.556 -23.463  0.00  0.00    +0.040 C 
ENDROOT
BRANCH  10  12
ATOM     12  O   UNL     1      32.540  -5.969 -22.167  0.00  0.00    -0.349 OA
BRANCH  12  13
ATOM     13  S   UNL     1      31.206  -5.123 -22.603  0.00  0.00    +0.086 S 
ATOM     14  O   UNL     1      30.230  -5.225 -21.533  0.00  0.00    -0.046 OA
ATOM     15  O   UNL     1      30.858  -5.487 -23.965  0.00  0.00    -0.046 OA
BRANCH  13  16
ATOM     16  N   UNL     1      31.764  -3.500 -22.633  0.00  0.00    -0.194 NA
ATOM     17  H   UNL     1      32.702  -3.456 -22.236  0.00  0.00    +0.145 HD
ATOM     18  H   UNL     1      31.135  -2.914 -22.085  0.00  0.00    +0.145 HD
ENDBRANCH  13  16
ENDBRANCH  12  13
ENDBRANCH  10  12
BRANCH   4  19
ATOM     19  C   UNL     1      32.232 -13.511 -22.908  0.00  0.00    +0.045 C 
BRANCH  19  20
ATOM     20  C   UNL     1      33.508 -14.259 -22.502  0.00  0.00    +0.006 C 
ATOM     21  C   UNL     1      33.292 -14.944 -21.141  0.00  0.00    +0.000 C 
ATOM     22  C   UNL     1      33.909 -15.218 -23.633  0.00  0.00    +0.000 C 
ATOM     23  C   UNL     1      34.595 -15.412 -20.496  0.00  0.00    +0.000 C 
ATOM     24  C   UNL     1      35.150 -16.070 -23.366  0.00  0.00    +0.000 C 
ATOM     25  C   UNL     1      35.057 -16.807 -20.902  0.00  0.00    +0.000 C 
ATOM     26  C   UNL     1      34.889 -17.193 -22.368  0.00  0.00    +0.000 C 
ENDBRANCH  19  20
ENDBRANCH   4  19
TORSDOF 5
ENDMDL
