MODEL 1
REMARK VINA RESULT:      -9.6      0.000      0.000
REMARK  Name = 6918710
REMARK  2 active torsions:
REMARK  status: ('A' for Active; 'I' for Inactive)
REMARK    1  A    between atoms: N_1  and  C_18
REMARK    2  A    between atoms: C_5  and  C_12
REMARK                            x       y       z     vdW  Elec       q    Type
REMARK                         _______ _______ _______ _____ _____    ______ ____
ROOT
ATOM      1  N   UNL     1      33.803 -11.196 -25.087  0.00  0.00    -0.270 N 
ATOM      2  N   UNL     1      34.062 -13.195 -23.885  0.00  0.00    -0.338 NA
ATOM      3  N   UNL     1      33.233 -13.209 -26.149  0.00  0.00    -0.170 NA
ATOM      4  C   UNL     1      33.694 -12.602 -25.038  0.00  0.00    +0.145 C 
ATOM      5  C   UNL     1      33.946 -14.540 -23.872  0.00  0.00    +0.148 C 
ATOM      6  C   UNL     1      33.486 -15.278 -24.945  0.00  0.00    +0.055 C 
ATOM      7  C   UNL     1      33.142 -14.553 -26.068  0.00  0.00    +0.114 C 
ATOM      8  H   UNL     1      33.544 -10.732 -25.915  0.00  0.00    +0.159 HD
ENDROOT
BRANCH   5  12
ATOM      9  N   UNL     1      35.048 -16.706 -21.223  0.00  0.00    -0.110 N 
ATOM     10  N   UNL     1      34.773 -15.629 -20.454  0.00  0.00    -0.155 NA
ATOM     11  N   UNL     1      35.521 -17.854 -20.661  0.00  0.00    -0.156 NA
ATOM     12  C   UNL     1      34.331 -15.189 -22.655  0.00  0.00    +0.068 C 
ATOM     13  C   UNL     1      34.794 -16.479 -22.561  0.00  0.00    +0.098 C 
ATOM     14  C   UNL     1      34.341 -14.718 -21.330  0.00  0.00    +0.124 C 
ATOM     15  C   UNL     1      35.043 -17.534 -23.465  0.00  0.00    +0.020 C 
ATOM     16  C   UNL     1      35.510 -18.698 -22.997  0.00  0.00    +0.024 C 
ATOM     17  C   UNL     1      35.734 -18.791 -21.533  0.00  0.00    +0.120 C 
ENDBRANCH   5  12
BRANCH   1  18
ATOM     18  C   UNL     1      34.275 -10.417 -23.985  0.00  0.00    +0.079 C 
ATOM     19  C   UNL     1      34.750  -8.984 -24.146  0.00  0.00    +0.022 C 
ATOM     20  C   UNL     1      33.476  -9.264 -23.402  0.00  0.00    +0.022 C 
ENDBRANCH   1  18
TORSDOF 2
ENDMDL
MODEL 2
REMARK VINA RESULT:      -9.6      3.231      4.999
REMARK  Name = 6918710
REMARK  2 active torsions:
REMARK  status: ('A' for Active; 'I' for Inactive)
REMARK    1  A    between atoms: N_1  and  C_18
REMARK    2  A    between atoms: C_5  and  C_12
REMARK                            x       y       z     vdW  Elec       q    Type
REMARK                         _______ _______ _______ _____ _____    ______ ____
ROOT
ATOM      1  N   UNL     1      34.424 -15.172 -22.369  0.00  0.00    -0.270 N 
ATOM      2  N   UNL     1      34.196 -17.431 -21.777  0.00  0.00    -0.338 NA
ATOM      3  N   UNL     1      35.032 -16.799 -23.948  0.00  0.00    -0.170 NA
ATOM      4  C   UNL     1      34.557 -16.534 -22.716  0.00  0.00    +0.145 C 
ATOM      5  C   UNL     1      34.335 -18.725 -22.140  0.00  0.00    +0.148 C 
ATOM      6  C   UNL     1      34.809 -19.125 -23.373  0.00  0.00    +0.055 C 
ATOM      7  C   UNL     1      35.146 -18.110 -24.245  0.00  0.00    +0.114 C 
ATOM      8  H   UNL     1      34.681 -14.491 -23.032  0.00  0.00    +0.159 HD
ENDROOT
BRANCH   5  12
ATOM      9  N   UNL     1      34.056 -21.208 -19.557  0.00  0.00    -0.110 N 
ATOM     10  N   UNL     1      32.735 -21.082 -19.810  0.00  0.00    -0.155 NA
ATOM     11  N   UNL     1      34.498 -22.077 -18.604  0.00  0.00    -0.156 NA
ATOM     12  C   UNL     1      33.955 -19.694 -21.157  0.00  0.00    +0.068 C 
ATOM     13  C   UNL     1      34.827 -20.385 -20.351  0.00  0.00    +0.098 C 
ATOM     14  C   UNL     1      32.685 -20.164 -20.779  0.00  0.00    +0.124 C 
ATOM     15  C   UNL     1      36.228 -20.428 -20.178  0.00  0.00    +0.020 C 
ATOM     16  C   UNL     1      36.747 -21.255 -19.262  0.00  0.00    +0.024 C 
ATOM     17  C   UNL     1      35.789 -22.080 -18.484  0.00  0.00    +0.120 C 
ENDBRANCH   5  12
BRANCH   1  18
ATOM     18  C   UNL     1      33.934 -14.740 -21.099  0.00  0.00    +0.079 C 
ATOM     19  C   UNL     1      32.818 -13.720 -20.961  0.00  0.00    +0.022 C 
ATOM     20  C   UNL     1      32.570 -15.148 -20.571  0.00  0.00    +0.022 C 
ENDBRANCH   1  18
TORSDOF 2
ENDMDL
MODEL 3
REMARK VINA RESULT:      -9.6      2.734      4.001
REMARK  Name = 6918710
REMARK  2 active torsions:
REMARK  status: ('A' for Active; 'I' for Inactive)
REMARK    1  A    between atoms: N_1  and  C_18
REMARK    2  A    between atoms: C_5  and  C_12
REMARK                            x       y       z     vdW  Elec       q    Type
REMARK                         _______ _______ _______ _____ _____    ______ ____
ROOT
ATOM      1  N   UNL     1      33.402 -14.497 -23.151  0.00  0.00    -0.270 N 
ATOM      2  N   UNL     1      34.418 -16.528 -22.562  0.00  0.00    -0.338 NA
ATOM      3  N   UNL     1      33.938 -16.006 -24.866  0.00  0.00    -0.170 NA
ATOM      4  C   UNL     1      33.946 -15.738 -23.546  0.00  0.00    +0.145 C 
ATOM      5  C   UNL     1      34.932 -17.707 -22.973  0.00  0.00    +0.148 C 
ATOM      6  C   UNL     1      34.981 -18.099 -24.297  0.00  0.00    +0.055 C 
ATOM      7  C   UNL     1      34.465 -17.200 -25.207  0.00  0.00    +0.114 C 
ATOM      8  H   UNL     1      33.050 -13.895 -23.845  0.00  0.00    +0.159 HD
ENDROOT
BRANCH   5  12
ATOM      9  N   UNL     1      35.555 -20.068 -20.335  0.00  0.00    -0.110 N 
ATOM     10  N   UNL     1      36.824 -19.623 -20.463  0.00  0.00    -0.155 NA
ATOM     11  N   UNL     1      35.246 -21.025 -19.415  0.00  0.00    -0.156 NA
ATOM     12  C   UNL     1      35.439 -18.562 -21.942  0.00  0.00    +0.068 C 
ATOM     13  C   UNL     1      34.686 -19.450 -21.213  0.00  0.00    +0.098 C 
ATOM     14  C   UNL     1      36.743 -18.713 -21.438  0.00  0.00    +0.124 C 
ATOM     15  C   UNL     1      33.328 -19.834 -21.173  0.00  0.00    +0.020 C 
ATOM     16  C   UNL     1      32.939 -20.769 -20.298  0.00  0.00    +0.024 C 
ATOM     17  C   UNL     1      33.988 -21.341 -19.418  0.00  0.00    +0.120 C 
ENDBRANCH   5  12
BRANCH   1  18
ATOM     18  C   UNL     1      33.342 -14.076 -21.786  0.00  0.00    +0.079 C 
ATOM     19  C   UNL     1      32.269 -13.134 -21.271  0.00  0.00    +0.022 C 
ATOM     20  C   UNL     1      32.271 -14.568 -20.829  0.00  0.00    +0.022 C 
ENDBRANCH   1  18
TORSDOF 2
ENDMDL
MODEL 4
REMARK VINA RESULT:      -9.2      1.946      6.141
REMARK  Name = 6918710
REMARK  2 active torsions:
REMARK  status: ('A' for Active; 'I' for Inactive)
REMARK    1  A    between atoms: N_1  and  C_18
REMARK    2  A    between atoms: C_5  and  C_12
REMARK                            x       y       z     vdW  Elec       q    Type
REMARK                         _______ _______ _______ _____ _____    ______ ____
ROOT
ATOM      1  N   UNL     1      34.854 -17.123 -23.933  0.00  0.00    -0.270 N 
ATOM      2  N   UNL     1      33.928 -14.967 -23.901  0.00  0.00    -0.338 NA
ATOM      3  N   UNL     1      33.782 -16.348 -25.871  0.00  0.00    -0.170 NA
ATOM      4  C   UNL     1      34.154 -16.096 -24.601  0.00  0.00    +0.145 C 
ATOM      5  C   UNL     1      33.255 -14.005 -24.568  0.00  0.00    +0.148 C 
ATOM      6  C   UNL     1      32.821 -14.142 -25.872  0.00  0.00    +0.055 C 
ATOM      7  C   UNL     1      33.115 -15.346 -26.479  0.00  0.00    +0.114 C 
ATOM      8  H   UNL     1      35.034 -17.961 -24.416  0.00  0.00    +0.159 HD
ENDROOT
BRANCH   5  12
ATOM      9  N   UNL     1      33.094 -10.699 -23.168  0.00  0.00    -0.110 N 
ATOM     10  N   UNL     1      32.183 -11.271 -22.350  0.00  0.00    -0.155 NA
ATOM     11  N   UNL     1      33.409  -9.379 -23.037  0.00  0.00    -0.156 NA
ATOM     12  C   UNL     1      33.006 -12.797 -23.841  0.00  0.00    +0.068 C 
ATOM     13  C   UNL     1      33.615 -11.590 -24.084  0.00  0.00    +0.098 C 
ATOM     14  C   UNL     1      32.137 -12.539 -22.766  0.00  0.00    +0.124 C 
ATOM     15  C   UNL     1      34.579 -11.107 -24.995  0.00  0.00    +0.020 C 
ATOM     16  C   UNL     1      34.947  -9.821 -24.936  0.00  0.00    +0.024 C 
ATOM     17  C   UNL     1      34.298  -8.986 -23.895  0.00  0.00    +0.120 C 
ENDBRANCH   5  12
BRANCH   1  18
ATOM     18  C   UNL     1      35.313 -16.998 -22.585  0.00  0.00    +0.079 C 
ATOM     19  C   UNL     1      34.522 -17.529 -21.403  0.00  0.00    +0.022 C 
ATOM     20  C   UNL     1      35.817 -18.185 -21.783  0.00  0.00    +0.022 C 
ENDBRANCH   1  18
TORSDOF 2
ENDMDL
MODEL 5
REMARK VINA RESULT:      -9.0      2.141      5.994
REMARK  Name = 6918710
REMARK  2 active torsions:
REMARK  status: ('A' for Active; 'I' for Inactive)
REMARK    1  A    between atoms: N_1  and  C_18
REMARK    2  A    between atoms: C_5  and  C_12
REMARK                            x       y       z     vdW  Elec       q    Type
REMARK                         _______ _______ _______ _____ _____    ______ ____
ROOT
ATOM      1  N   UNL     1      34.526 -16.655 -23.596  0.00  0.00    -0.270 N 
ATOM      2  N   UNL     1      33.993 -14.394 -23.928  0.00  0.00    -0.338 NA
ATOM      3  N   UNL     1      33.600 -16.025 -25.658  0.00  0.00    -0.170 NA
ATOM      4  C   UNL     1      34.015 -15.642 -24.436  0.00  0.00    +0.145 C 
ATOM      5  C   UNL     1      33.498 -13.448 -24.756  0.00  0.00    +0.148 C 
ATOM      6  C   UNL     1      33.043 -13.714 -26.032  0.00  0.00    +0.055 C 
ATOM      7  C   UNL     1      33.118 -15.032 -26.433  0.00  0.00    +0.114 C 
ATOM      8  H   UNL     1      34.554 -17.578 -23.936  0.00  0.00    +0.159 HD
ENDROOT
BRANCH   5  12
ATOM      9  N   UNL     1      32.978 -10.358 -22.995  0.00  0.00    -0.110 N 
ATOM     10  N   UNL     1      33.857  -9.885 -23.905  0.00  0.00    -0.155 NA
ATOM     11  N   UNL     1      32.451  -9.533 -22.047  0.00  0.00    -0.156 NA
ATOM     12  C   UNL     1      33.468 -12.115 -24.235  0.00  0.00    +0.068 C 
ATOM     13  C   UNL     1      32.717 -11.704 -23.161  0.00  0.00    +0.098 C 
ATOM     14  C   UNL     1      34.147 -10.955 -24.650  0.00  0.00    +0.124 C 
ATOM     15  C   UNL     1      31.811 -12.313 -22.266  0.00  0.00    +0.020 C 
ATOM     16  C   UNL     1      31.247 -11.574 -21.304  0.00  0.00    +0.024 C 
ATOM     17  C   UNL     1      31.626 -10.139 -21.252  0.00  0.00    +0.120 C 
ENDBRANCH   5  12
BRANCH   1  18
ATOM     18  C   UNL     1      35.003 -16.398 -22.274  0.00  0.00    +0.079 C 
ATOM     19  C   UNL     1      34.122 -16.545 -21.047  0.00  0.00    +0.022 C 
ATOM     20  C   UNL     1      35.251 -17.508 -21.267  0.00  0.00    +0.022 C 
ENDBRANCH   1  18
TORSDOF 2
ENDMDL
MODEL 6
REMARK VINA RESULT:      -8.9      2.401      3.611
REMARK  Name = 6918710
REMARK  2 active torsions:
REMARK  status: ('A' for Active; 'I' for Inactive)
REMARK    1  A    between atoms: N_1  and  C_18
REMARK    2  A    between atoms: C_5  and  C_12
REMARK                            x       y       z     vdW  Elec       q    Type
REMARK                         _______ _______ _______ _____ _____    ______ ____
ROOT
ATOM      1  N   UNL     1      31.632 -10.255 -21.858  0.00  0.00    -0.270 N 
ATOM      2  N   UNL     1      32.678 -12.106 -22.850  0.00  0.00    -0.338 NA
ATOM      3  N   UNL     1      33.030  -9.881 -23.705  0.00  0.00    -0.170 NA
ATOM      4  C   UNL     1      32.489 -10.772 -22.854  0.00  0.00    +0.145 C 
ATOM      5  C   UNL     1      33.503 -12.570 -23.814  0.00  0.00    +0.148 C 
ATOM      6  C   UNL     1      34.118 -11.758 -24.747  0.00  0.00    +0.055 C 
ATOM      7  C   UNL     1      33.843 -10.410 -24.643  0.00  0.00    +0.114 C 
ATOM      8  H   UNL     1      31.474  -9.284 -21.832  0.00  0.00    +0.159 HD
ENDROOT
BRANCH   5  12
ATOM      9  N   UNL     1      34.168 -16.045 -23.181  0.00  0.00    -0.110 N 
ATOM     10  N   UNL     1      33.904 -16.163 -24.501  0.00  0.00    -0.155 NA
ATOM     11  N   UNL     1      34.495 -17.140 -22.439  0.00  0.00    -0.156 NA
ATOM     12  C   UNL     1      33.716 -13.985 -23.828  0.00  0.00    +0.068 C 
ATOM     13  C   UNL     1      34.065 -14.742 -22.736  0.00  0.00    +0.098 C 
ATOM     14  C   UNL     1      33.631 -14.913 -24.882  0.00  0.00    +0.124 C 
ATOM     15  C   UNL     1      34.320 -14.491 -21.371  0.00  0.00    +0.020 C 
ATOM     16  C   UNL     1      34.648 -15.513 -20.570  0.00  0.00    +0.024 C 
ATOM     17  C   UNL     1      34.719 -16.858 -21.194  0.00  0.00    +0.120 C 
ENDBRANCH   5  12
BRANCH   1  18
ATOM     18  C   UNL     1      30.986 -11.080 -20.887  0.00  0.00    +0.079 C 
ATOM     19  C   UNL     1      31.752 -11.808 -19.797  0.00  0.00    +0.022 C 
ATOM     20  C   UNL     1      30.847 -10.668 -19.431  0.00  0.00    +0.022 C 
ENDBRANCH   1  18
TORSDOF 2
ENDMDL
MODEL 7
REMARK VINA RESULT:      -8.8     10.629     13.030
REMARK  Name = 6918710
REMARK  2 active torsions:
REMARK  status: ('A' for Active; 'I' for Inactive)
REMARK    1  A    between atoms: N_1  and  C_18
REMARK    2  A    between atoms: C_5  and  C_12
REMARK                            x       y       z     vdW  Elec       q    Type
REMARK                         _______ _______ _______ _____ _____    ______ ____
ROOT
ATOM      1  N   UNL     1      30.562 -22.789 -16.910  0.00  0.00    -0.270 N 
ATOM      2  N   UNL     1      32.443 -23.348 -15.625  0.00  0.00    -0.338 NA
ATOM      3  N   UNL     1      32.671 -22.710 -17.938  0.00  0.00    -0.170 NA
ATOM      4  C   UNL     1      31.961 -22.958 -16.820  0.00  0.00    +0.145 C 
ATOM      5  C   UNL     1      33.785 -23.500 -15.572  0.00  0.00    +0.148 C 
ATOM      6  C   UNL     1      34.621 -23.278 -16.648  0.00  0.00    +0.055 C 
ATOM      7  C   UNL     1      34.003 -22.881 -17.816  0.00  0.00    +0.114 C 
ATOM      8  H   UNL     1      30.178 -22.503 -17.770  0.00  0.00    +0.159 HD
ENDROOT
BRANCH   5  12
ATOM      9  N   UNL     1      35.585 -24.879 -12.783  0.00  0.00    -0.110 N 
ATOM     10  N   UNL     1      34.658 -24.207 -12.066  0.00  0.00    -0.155 NA
ATOM     11  N   UNL     1      36.552 -25.606 -12.155  0.00  0.00    -0.156 NA
ATOM     12  C   UNL     1      34.318 -23.916 -14.309  0.00  0.00    +0.068 C 
ATOM     13  C   UNL     1      35.413 -24.729 -14.145  0.00  0.00    +0.098 C 
ATOM     14  C   UNL     1      33.897 -23.627 -12.999  0.00  0.00    +0.124 C 
ATOM     15  C   UNL     1      36.323 -25.387 -14.999  0.00  0.00    +0.020 C 
ATOM     16  C   UNL     1      37.305 -26.123 -14.465  0.00  0.00    +0.024 C 
ATOM     17  C   UNL     1      37.362 -26.190 -12.983  0.00  0.00    +0.120 C 
ENDBRANCH   5  12
BRANCH   1  18
ATOM     18  C   UNL     1      29.682 -23.016 -15.808  0.00  0.00    +0.079 C 
ATOM     19  C   UNL     1      28.278 -22.441 -15.756  0.00  0.00    +0.022 C 
ATOM     20  C   UNL     1      28.467 -23.922 -15.909  0.00  0.00    +0.022 C 
ENDBRANCH   1  18
TORSDOF 2
ENDMDL
MODEL 8
REMARK VINA RESULT:      -8.8      2.465      3.794
REMARK  Name = 6918710
REMARK  2 active torsions:
REMARK  status: ('A' for Active; 'I' for Inactive)
REMARK    1  A    between atoms: N_1  and  C_18
REMARK    2  A    between atoms: C_5  and  C_12
REMARK                            x       y       z     vdW  Elec       q    Type
REMARK                         _______ _______ _______ _____ _____    ______ ____
ROOT
ATOM      1  N   UNL     1      32.615  -8.577 -22.608  0.00  0.00    -0.270 N 
ATOM      2  N   UNL     1      32.760 -10.909 -22.821  0.00  0.00    -0.338 NA
ATOM      3  N   UNL     1      31.343  -9.905 -21.150  0.00  0.00    -0.170 NA
ATOM      4  C   UNL     1      32.220  -9.860 -22.171  0.00  0.00    +0.145 C 
ATOM      5  C   UNL     1      32.361 -12.122 -22.380  0.00  0.00    +0.148 C 
ATOM      6  C   UNL     1      31.468 -12.301 -21.341  0.00  0.00    +0.055 C 
ATOM      7  C   UNL     1      30.987 -11.146 -20.758  0.00  0.00    +0.114 C 
ATOM      8  H   UNL     1      32.237  -7.789 -22.154  0.00  0.00    +0.159 HD
ENDROOT
BRANCH   5  12
ATOM      9  N   UNL     1      33.968 -15.153 -23.452  0.00  0.00    -0.110 N 
ATOM     10  N   UNL     1      33.572 -14.733 -24.674  0.00  0.00    -0.155 NA
ATOM     11  N   UNL     1      34.658 -16.319 -23.311  0.00  0.00    -0.156 NA
ATOM     12  C   UNL     1      32.924 -13.251 -23.057  0.00  0.00    +0.068 C 
ATOM     13  C   UNL     1      33.596 -14.282 -22.447  0.00  0.00    +0.098 C 
ATOM     14  C   UNL     1      32.941 -13.583 -24.423  0.00  0.00    +0.124 C 
ATOM     15  C   UNL     1      33.955 -14.614 -21.123  0.00  0.00    +0.020 C 
ATOM     16  C   UNL     1      34.635 -15.745 -20.895  0.00  0.00    +0.024 C 
ATOM     17  C   UNL     1      34.965 -16.579 -22.078  0.00  0.00    +0.120 C 
ENDBRANCH   5  12
BRANCH   1  18
ATOM     18  C   UNL     1      33.539  -8.374 -23.679  0.00  0.00    +0.079 C 
ATOM     19  C   UNL     1      33.821  -7.001 -24.261  0.00  0.00    +0.022 C 
ATOM     20  C   UNL     1      34.887  -7.706 -23.475  0.00  0.00    +0.022 C 
ENDBRANCH   1  18
TORSDOF 2
ENDMDL
MODEL 9
REMARK VINA RESULT:      -8.7      2.011      6.397
REMARK  Name = 6918710
REMARK  2 active torsions:
REMARK  status: ('A' for Active; 'I' for Inactive)
REMARK    1  A    between atoms: N_1  and  C_18
REMARK    2  A    between atoms: C_5  and  C_12
REMARK                            x       y       z     vdW  Elec       q    Type
REMARK                         _______ _______ _______ _____ _____    ______ ____
ROOT
ATOM      1  N   UNL     1      34.902 -19.014 -22.558  0.00  0.00    -0.270 N 
ATOM      2  N   UNL     1      34.073 -16.826 -22.737  0.00  0.00    -0.338 NA
ATOM      3  N   UNL     1      34.996 -17.961 -24.653  0.00  0.00    -0.170 NA
ATOM      4  C   UNL     1      34.644 -17.878 -23.355  0.00  0.00    +0.145 C 
ATOM      5  C   UNL     1      33.839 -15.756 -23.527  0.00  0.00    +0.148 C 
ATOM      6  C   UNL     1      34.154 -15.717 -24.871  0.00  0.00    +0.055 C 
ATOM      7  C   UNL     1      34.735 -16.858 -25.385  0.00  0.00    +0.114 C 
ATOM      8  H   UNL     1      35.317 -19.800 -22.979  0.00  0.00    +0.159 HD
ENDROOT
BRANCH   5  12
ATOM      9  N   UNL     1      32.589 -12.565 -22.443  0.00  0.00    -0.110 N 
ATOM     10  N   UNL     1      32.067 -13.300 -21.436  0.00  0.00    -0.155 NA
ATOM     11  N   UNL     1      32.389 -11.218 -22.493  0.00  0.00    -0.156 NA
ATOM     12  C   UNL     1      33.233 -14.627 -22.889  0.00  0.00    +0.068 C 
ATOM     13  C   UNL     1      33.302 -13.333 -23.343  0.00  0.00    +0.098 C 
ATOM     14  C   UNL     1      32.462 -14.545 -21.716  0.00  0.00    +0.124 C 
ATOM     15  C   UNL     1      33.897 -12.675 -24.441  0.00  0.00    +0.020 C 
ATOM     16  C   UNL     1      33.749 -11.350 -24.567  0.00  0.00    +0.024 C 
ATOM     17  C   UNL     1      32.955 -10.662 -23.519  0.00  0.00    +0.120 C 
ENDBRANCH   5  12
BRANCH   1  18
ATOM     18  C   UNL     1      34.584 -19.072 -21.165  0.00  0.00    +0.079 C 
ATOM     19  C   UNL     1      33.350 -19.783 -20.640  0.00  0.00    +0.022 C 
ATOM     20  C   UNL     1      34.711 -20.349 -20.354  0.00  0.00    +0.022 C 
ENDBRANCH   1  18
TORSDOF 2
ENDMDL
