MODEL 1
REMARK VINA RESULT:      -9.3      0.000      0.000
REMARK  Name = 10161381
REMARK  11 active torsions:
REMARK  status: ('A' for Active; 'I' for Inactive)
REMARK    1  A    between atoms: C_2  and  C_10
REMARK    2  A    between atoms: C_5  and  C_23
REMARK    3  A    between atoms: N_9  and  C_12
REMARK    4  A    between atoms: C_12  and  C_13
REMARK    5  A    between atoms: C_23  and  C_24
REMARK    6  A    between atoms: C_24  and  C_25
REMARK    7  A    between atoms: C_25  and  N_26
REMARK    8  A    between atoms: N_26  and  C_29
REMARK    9  A    between atoms: C_29  and  C_30
REMARK   10  A    between atoms: C_30  and  C_31
REMARK   11  A    between atoms: C_31  and  O_32
REMARK                            x       y       z     vdW  Elec       q    Type
REMARK                         _______ _______ _______ _____ _____    ______ ____
ROOT
ATOM      1 CL   UNL     1      37.389 -22.164 -17.632  0.00  0.00    -0.082 Cl
ATOM      2  C   UNL     1      35.060 -21.712 -18.980  0.00  0.00    +0.064 C 
ATOM      3  C   UNL     1      34.273 -21.093 -19.934  0.00  0.00    +0.001 C 
ATOM      4  C   UNL     1      36.396 -21.401 -18.821  0.00  0.00    +0.062 C 
ATOM      5  C   UNL     1      34.847 -20.127 -20.761  0.00  0.00    -0.022 C 
ATOM      6  C   UNL     1      36.969 -20.435 -19.648  0.00  0.00    +0.011 C 
ATOM      7  C   UNL     1      36.194 -19.798 -20.617  0.00  0.00    -0.003 C 
ENDROOT
BRANCH   2  10
ATOM      8  O   UNL     1      33.655 -23.559 -18.640  0.00  0.00    -0.270 OA
ATOM      9  N   UNL     1      34.714 -22.694 -16.765  0.00  0.00    -0.301 N 
ATOM     10  C   UNL     1      34.405 -22.733 -18.123  0.00  0.00    +0.247 C 
ATOM     11  H   UNL     1      35.327 -21.993 -16.443  0.00  0.00    +0.150 HD
BRANCH   9  12
ATOM     12  C   UNL     1      34.183 -23.625 -15.819  0.00  0.00    +0.090 C 
BRANCH  12  13
ATOM     13  C   UNL     1      35.211 -23.943 -14.730  0.00  0.00    +0.018 C 
ATOM     14  C   UNL     1      37.229 -23.080 -13.464  0.00  0.00    +0.000 C 
ATOM     15  C   UNL     1      37.053 -25.532 -14.015  0.00  0.00    +0.000 C 
ATOM     16  C   UNL     1      35.531 -24.518 -12.282  0.00  0.00    +0.000 C 
ATOM     17  C   UNL     1      36.195 -22.762 -14.558  0.00  0.00    +0.002 C 
ATOM     18  C   UNL     1      36.019 -25.208 -15.108  0.00  0.00    +0.002 C 
ATOM     19  C   UNL     1      34.501 -24.197 -13.379  0.00  0.00    +0.002 C 
ATOM     20  C   UNL     1      38.014 -24.341 -13.859  0.00  0.00    +0.000 C 
ATOM     21  C   UNL     1      36.499 -23.333 -12.134  0.00  0.00    +0.000 C 
ATOM     22  C   UNL     1      36.324 -25.773 -12.684  0.00  0.00    +0.000 C 
ENDBRANCH  12  13
ENDBRANCH   9  12
ENDBRANCH   2  10
BRANCH   5  23
ATOM     23  C   UNL     1      34.019 -19.445 -21.797  0.00  0.00    +0.024 C 
BRANCH  23  24
ATOM     24  C   UNL     1      34.740 -19.351 -23.151  0.00  0.00    -0.019 C 
BRANCH  24  25
ATOM     25  C   UNL     1      34.583 -17.967 -23.778  0.00  0.00    -0.081 C 
BRANCH  25  26
ATOM     26  N   UNL     1      35.496 -17.020 -23.149  0.00  0.00    +0.384 N 
ATOM     27  H   UNL     1      36.372 -17.003 -23.671  0.00  0.00    -0.085 HD
ATOM     28  H   UNL     1      35.660 -17.316 -22.187  0.00  0.00    -0.085 HD
BRANCH  26  29
ATOM     29  C   UNL     1      34.925 -15.681 -23.134  0.00  0.00    -0.079 C 
BRANCH  29  30
ATOM     30  C   UNL     1      33.821 -15.587 -22.086  0.00  0.00    +0.008 C 
BRANCH  30  31
ATOM     31  C   UNL     1      34.387 -15.307 -20.700  0.00  0.00    +0.135 C 
BRANCH  31  32
ATOM     32  O   UNL     1      35.163 -16.424 -20.287  0.00  0.00    -0.382 OA
ATOM     33  H   UNL     1      34.579 -17.184 -20.136  0.00  0.00    +0.210 HD
ENDBRANCH  31  32
ENDBRANCH  30  31
ENDBRANCH  29  30
ENDBRANCH  26  29
ENDBRANCH  25  26
ENDBRANCH  24  25
ENDBRANCH  23  24
ENDBRANCH   5  23
TORSDOF 11
ENDMDL
MODEL 2
REMARK VINA RESULT:      -9.2      5.379     13.036
REMARK  Name = 10161381
REMARK  11 active torsions:
REMARK  status: ('A' for Active; 'I' for Inactive)
REMARK    1  A    between atoms: C_2  and  C_10
REMARK    2  A    between atoms: C_5  and  C_23
REMARK    3  A    between atoms: N_9  and  C_12
REMARK    4  A    between atoms: C_12  and  C_13
REMARK    5  A    between atoms: C_23  and  C_24
REMARK    6  A    between atoms: C_24  and  C_25
REMARK    7  A    between atoms: C_25  and  N_26
REMARK    8  A    between atoms: N_26  and  C_29
REMARK    9  A    between atoms: C_29  and  C_30
REMARK   10  A    between atoms: C_30  and  C_31
REMARK   11  A    between atoms: C_31  and  O_32
REMARK                            x       y       z     vdW  Elec       q    Type
REMARK                         _______ _______ _______ _____ _____    ______ ____
ROOT
ATOM      1 CL   UNL     1      31.936 -12.878 -21.428  0.00  0.00    -0.082 Cl
ATOM      2  C   UNL     1      33.693 -14.280 -22.975  0.00  0.00    +0.064 C 
ATOM      3  C   UNL     1      34.555 -15.327 -23.244  0.00  0.00    +0.001 C 
ATOM      4  C   UNL     1      33.012 -14.183 -21.778  0.00  0.00    +0.062 C 
ATOM      5  C   UNL     1      34.741 -16.315 -22.277  0.00  0.00    -0.022 C 
ATOM      6  C   UNL     1      33.198 -15.171 -20.812  0.00  0.00    +0.011 C 
ATOM      7  C   UNL     1      34.062 -16.237 -21.061  0.00  0.00    -0.003 C 
ENDROOT
BRANCH   2  10
ATOM      8  O   UNL     1      33.035 -13.575 -25.113  0.00  0.00    -0.270 OA
ATOM      9  N   UNL     1      33.935 -11.958 -23.711  0.00  0.00    -0.301 N 
ATOM     10  C   UNL     1      33.529 -13.252 -24.035  0.00  0.00    +0.247 C 
ATOM     11  H   UNL     1      34.320 -11.795 -22.820  0.00  0.00    +0.150 HD
BRANCH   9  12
ATOM     12  C   UNL     1      33.817 -10.858 -24.616  0.00  0.00    +0.090 C 
BRANCH  12  13
ATOM     13  C   UNL     1      33.355  -9.595 -23.883  0.00  0.00    +0.018 C 
ATOM     14  C   UNL     1      32.276  -8.698 -21.773  0.00  0.00    +0.000 C 
ATOM     15  C   UNL     1      31.820  -7.581 -23.984  0.00  0.00    +0.000 C 
ATOM     16  C   UNL     1      34.091  -7.372 -22.913  0.00  0.00    +0.000 C 
ATOM     17  C   UNL     1      32.741  -9.965 -22.512  0.00  0.00    +0.002 C 
ATOM     18  C   UNL     1      32.286  -8.850 -24.718  0.00  0.00    +0.002 C 
ATOM     19  C   UNL     1      34.551  -8.642 -23.649  0.00  0.00    +0.002 C 
ATOM     20  C   UNL     1      31.220  -7.974 -22.623  0.00  0.00    +0.000 C 
ATOM     21  C   UNL     1      33.481  -7.765 -21.557  0.00  0.00    +0.000 C 
ATOM     22  C   UNL     1      33.025  -6.655 -23.759  0.00  0.00    +0.000 C 
ENDBRANCH  12  13
ENDBRANCH   9  12
ENDBRANCH   2  10
BRANCH   5  23
ATOM     23  C   UNL     1      35.665 -17.455 -22.543  0.00  0.00    +0.024 C 
BRANCH  23  24
ATOM     24  C   UNL     1      35.086 -18.798 -22.071  0.00  0.00    -0.019 C 
BRANCH  24  25
ATOM     25  C   UNL     1      35.956 -19.438 -20.991  0.00  0.00    -0.081 C 
BRANCH  25  26
ATOM     26  N   UNL     1      35.245 -20.544 -20.359  0.00  0.00    +0.384 N 
ATOM     27  H   UNL     1      35.560 -20.635 -19.393  0.00  0.00    -0.085 HD
ATOM     28  H   UNL     1      35.443 -21.399 -20.880  0.00  0.00    -0.085 HD
BRANCH  26  29
ATOM     29  C   UNL     1      33.809 -20.313 -20.372  0.00  0.00    -0.079 C 
BRANCH  29  30
ATOM     30  C   UNL     1      33.100 -21.329 -19.481  0.00  0.00    +0.008 C 
BRANCH  30  31
ATOM     31  C   UNL     1      34.086 -22.298 -18.843  0.00  0.00    +0.135 C 
BRANCH  31  32
ATOM     32  O   UNL     1      34.046 -23.528 -19.551  0.00  0.00    -0.382 OA
ATOM     33  H   UNL     1      33.901 -23.354 -20.495  0.00  0.00    +0.210 HD
ENDBRANCH  31  32
ENDBRANCH  30  31
ENDBRANCH  29  30
ENDBRANCH  26  29
ENDBRANCH  25  26
ENDBRANCH  24  25
ENDBRANCH  23  24
ENDBRANCH   5  23
TORSDOF 11
ENDMDL
MODEL 3
REMARK VINA RESULT:      -9.2      6.486      9.852
REMARK  Name = 10161381
REMARK  11 active torsions:
REMARK  status: ('A' for Active; 'I' for Inactive)
REMARK    1  A    between atoms: C_2  and  C_10
REMARK    2  A    between atoms: C_5  and  C_23
REMARK    3  A    between atoms: N_9  and  C_12
REMARK    4  A    between atoms: C_12  and  C_13
REMARK    5  A    between atoms: C_23  and  C_24
REMARK    6  A    between atoms: C_24  and  C_25
REMARK    7  A    between atoms: C_25  and  N_26
REMARK    8  A    between atoms: N_26  and  C_29
REMARK    9  A    between atoms: C_29  and  C_30
REMARK   10  A    between atoms: C_30  and  C_31
REMARK   11  A    between atoms: C_31  and  O_32
REMARK                            x       y       z     vdW  Elec       q    Type
REMARK                         _______ _______ _______ _____ _____    ______ ____
ROOT
ATOM      1 CL   UNL     1      33.110 -15.040 -25.500  0.00  0.00    -0.082 Cl
ATOM      2  C   UNL     1      33.421 -13.017 -23.696  0.00  0.00    +0.064 C 
ATOM      3  C   UNL     1      33.691 -11.714 -23.319  0.00  0.00    +0.001 C 
ATOM      4  C   UNL     1      33.442 -13.415 -25.017  0.00  0.00    +0.062 C 
ATOM      5  C   UNL     1      33.994 -10.775 -24.305  0.00  0.00    -0.022 C 
ATOM      6  C   UNL     1      33.745 -12.476 -26.002  0.00  0.00    +0.011 C 
ATOM      7  C   UNL     1      34.022 -11.156 -25.646  0.00  0.00    -0.003 C 
ENDROOT
BRANCH   2  10
ATOM      8  O   UNL     1      31.936 -14.127 -22.260  0.00  0.00    -0.270 OA
ATOM      9  N   UNL     1      34.181 -14.685 -22.073  0.00  0.00    -0.301 N 
ATOM     10  C   UNL     1      33.104 -13.981 -22.611  0.00  0.00    +0.247 C 
ATOM     11  H   UNL     1      35.084 -14.500 -22.420  0.00  0.00    +0.150 HD
BRANCH   9  12
ATOM     12  C   UNL     1      34.033 -15.664 -21.042  0.00  0.00    +0.090 C 
BRANCH  12  13
ATOM     13  C   UNL     1      34.563 -17.025 -21.502  0.00  0.00    +0.018 C 
ATOM     14  C   UNL     1      36.273 -18.842 -21.061  0.00  0.00    +0.000 C 
ATOM     15  C   UNL     1      35.597 -18.306 -23.428  0.00  0.00    +0.000 C 
ATOM     16  C   UNL     1      33.974 -19.460 -21.885  0.00  0.00    +0.000 C 
ATOM     17  C   UNL     1      35.738 -17.475 -20.602  0.00  0.00    +0.002 C 
ATOM     18  C   UNL     1      35.064 -16.940 -22.963  0.00  0.00    +0.002 C 
ATOM     19  C   UNL     1      33.444 -18.091 -21.424  0.00  0.00    +0.002 C 
ATOM     20  C   UNL     1      36.760 -18.734 -22.515  0.00  0.00    +0.000 C 
ATOM     21  C   UNL     1      35.143 -19.882 -20.980  0.00  0.00    +0.000 C 
ATOM     22  C   UNL     1      34.472 -19.348 -23.337  0.00  0.00    +0.000 C 
ENDBRANCH  12  13
ENDBRANCH   9  12
ENDBRANCH   2  10
BRANCH   5  23
ATOM     23  C   UNL     1      34.290  -9.363 -23.925  0.00  0.00    +0.024 C 
BRANCH  23  24
ATOM     24  C   UNL     1      33.016  -8.568 -23.600  0.00  0.00    -0.019 C 
BRANCH  24  25
ATOM     25  C   UNL     1      32.934  -8.216 -22.115  0.00  0.00    -0.081 C 
BRANCH  25  26
ATOM     26  N   UNL     1      31.887  -8.997 -21.467  0.00  0.00    +0.384 N 
ATOM     27  H   UNL     1      31.839  -9.918 -21.904  0.00  0.00    -0.085 HD
ATOM     28  H   UNL     1      31.000  -8.505 -21.574  0.00  0.00    -0.085 HD
BRANCH  26  29
ATOM     29  C   UNL     1      32.163  -9.157 -20.047  0.00  0.00    -0.079 C 
BRANCH  29  30
ATOM     30  C   UNL     1      31.282 -10.253 -19.456  0.00  0.00    +0.008 C 
BRANCH  30  31
ATOM     31  C   UNL     1      31.476 -11.579 -20.179  0.00  0.00    +0.135 C 
BRANCH  31  32
ATOM     32  O   UNL     1      30.576 -11.640 -21.276  0.00  0.00    -0.382 OA
ATOM     33  H   UNL     1      30.838 -10.989 -21.947  0.00  0.00    +0.210 HD
ENDBRANCH  31  32
ENDBRANCH  30  31
ENDBRANCH  29  30
ENDBRANCH  26  29
ENDBRANCH  25  26
ENDBRANCH  24  25
ENDBRANCH  23  24
ENDBRANCH   5  23
TORSDOF 11
ENDMDL
MODEL 4
REMARK VINA RESULT:      -9.1      1.152      1.959
REMARK  Name = 10161381
REMARK  11 active torsions:
REMARK  status: ('A' for Active; 'I' for Inactive)
REMARK    1  A    between atoms: C_2  and  C_10
REMARK    2  A    between atoms: C_5  and  C_23
REMARK    3  A    between atoms: N_9  and  C_12
REMARK    4  A    between atoms: C_12  and  C_13
REMARK    5  A    between atoms: C_23  and  C_24
REMARK    6  A    between atoms: C_24  and  C_25
REMARK    7  A    between atoms: C_25  and  N_26
REMARK    8  A    between atoms: N_26  and  C_29
REMARK    9  A    between atoms: C_29  and  C_30
REMARK   10  A    between atoms: C_30  and  C_31
REMARK   11  A    between atoms: C_31  and  O_32
REMARK                            x       y       z     vdW  Elec       q    Type
REMARK                         _______ _______ _______ _____ _____    ______ ____
ROOT
ATOM      1 CL   UNL     1      37.380 -22.362 -17.232  0.00  0.00    -0.082 Cl
ATOM      2  C   UNL     1      34.961 -22.020 -18.447  0.00  0.00    +0.064 C 
ATOM      3  C   UNL     1      34.102 -21.466 -19.378  0.00  0.00    +0.001 C 
ATOM      4  C   UNL     1      36.298 -21.680 -18.393  0.00  0.00    +0.062 C 
ATOM      5  C   UNL     1      34.602 -20.537 -20.290  0.00  0.00    -0.022 C 
ATOM      6  C   UNL     1      36.797 -20.751 -19.305  0.00  0.00    +0.011 C 
ATOM      7  C   UNL     1      35.950 -20.179 -20.253  0.00  0.00    -0.003 C 
ENDROOT
BRANCH   2  10
ATOM      8  O   UNL     1      33.653 -23.895 -17.925  0.00  0.00    -0.270 OA
ATOM      9  N   UNL     1      34.737 -22.854 -16.156  0.00  0.00    -0.301 N 
ATOM     10  C   UNL     1      34.382 -23.004 -17.496  0.00  0.00    +0.247 C 
ATOM     11  H   UNL     1      35.328 -22.107 -15.908  0.00  0.00    +0.150 HD
BRANCH   9  12
ATOM     12  C   UNL     1      34.281 -23.737 -15.128  0.00  0.00    +0.090 C 
BRANCH  12  13
ATOM     13  C   UNL     1      35.423 -24.101 -14.176  0.00  0.00    +0.018 C 
ATOM     14  C   UNL     1      36.011 -24.810 -11.815  0.00  0.00    +0.000 C 
ATOM     15  C   UNL     1      37.557 -23.278 -13.084  0.00  0.00    +0.000 C 
ATOM     16  C   UNL     1      37.348 -25.697 -13.758  0.00  0.00    +0.000 C 
ATOM     17  C   UNL     1      34.865 -24.443 -12.774  0.00  0.00    +0.002 C 
ATOM     18  C   UNL     1      36.408 -22.915 -14.040  0.00  0.00    +0.002 C 
ATOM     19  C   UNL     1      36.199 -25.328 -14.712  0.00  0.00    +0.002 C 
ATOM     20  C   UNL     1      36.977 -23.619 -11.701  0.00  0.00    +0.000 C 
ATOM     21  C   UNL     1      36.769 -26.027 -12.372  0.00  0.00    +0.000 C 
ATOM     22  C   UNL     1      38.307 -24.501 -13.635  0.00  0.00    +0.000 C 
ENDBRANCH  12  13
ENDBRANCH   9  12
ENDBRANCH   2  10
BRANCH   5  23
ATOM     23  C   UNL     1      33.696 -19.925 -21.305  0.00  0.00    +0.024 C 
BRANCH  23  24
ATOM     24  C   UNL     1      34.335 -18.715 -22.004  0.00  0.00    -0.019 C 
BRANCH  24  25
ATOM     25  C   UNL     1      34.827 -19.069 -23.406  0.00  0.00    -0.081 C 
BRANCH  25  26
ATOM     26  N   UNL     1      35.293 -17.872 -24.096  0.00  0.00    +0.384 N 
ATOM     27  H   UNL     1      36.250 -18.023 -24.416  0.00  0.00    -0.085 HD
ATOM     28  H   UNL     1      35.253 -17.086 -23.448  0.00  0.00    -0.085 HD
BRANCH  26  29
ATOM     29  C   UNL     1      34.450 -17.573 -25.244  0.00  0.00    -0.079 C 
BRANCH  29  30
ATOM     30  C   UNL     1      34.129 -16.082 -25.293  0.00  0.00    +0.008 C 
BRANCH  30  31
ATOM     31  C   UNL     1      33.785 -15.539 -23.913  0.00  0.00    +0.135 C 
BRANCH  31  32
ATOM     32  O   UNL     1      34.978 -15.093 -23.283  0.00  0.00    -0.382 OA
ATOM     33  H   UNL     1      35.344 -15.809 -22.741  0.00  0.00    +0.210 HD
ENDBRANCH  31  32
ENDBRANCH  30  31
ENDBRANCH  29  30
ENDBRANCH  26  29
ENDBRANCH  25  26
ENDBRANCH  24  25
ENDBRANCH  23  24
ENDBRANCH   5  23
TORSDOF 11
ENDMDL
MODEL 5
REMARK VINA RESULT:      -9.1      2.810      8.725
REMARK  Name = 10161381
REMARK  11 active torsions:
REMARK  status: ('A' for Active; 'I' for Inactive)
REMARK    1  A    between atoms: C_2  and  C_10
REMARK    2  A    between atoms: C_5  and  C_23
REMARK    3  A    between atoms: N_9  and  C_12
REMARK    4  A    between atoms: C_12  and  C_13
REMARK    5  A    between atoms: C_23  and  C_24
REMARK    6  A    between atoms: C_24  and  C_25
REMARK    7  A    between atoms: C_25  and  N_26
REMARK    8  A    between atoms: N_26  and  C_29
REMARK    9  A    between atoms: C_29  and  C_30
REMARK   10  A    between atoms: C_30  and  C_31
REMARK   11  A    between atoms: C_31  and  O_32
REMARK                            x       y       z     vdW  Elec       q    Type
REMARK                         _______ _______ _______ _____ _____    ______ ____
ROOT
ATOM      1 CL   UNL     1      36.868 -21.630 -18.314  0.00  0.00    -0.082 Cl
ATOM      2  C   UNL     1      34.451 -22.689 -17.620  0.00  0.00    +0.064 C 
ATOM      3  C   UNL     1      33.544 -23.255 -16.743  0.00  0.00    +0.001 C 
ATOM      4  C   UNL     1      35.726 -22.334 -17.227  0.00  0.00    +0.062 C 
ATOM      5  C   UNL     1      33.931 -23.474 -15.420  0.00  0.00    -0.022 C 
ATOM      6  C   UNL     1      36.111 -22.554 -15.905  0.00  0.00    +0.011 C 
ATOM      7  C   UNL     1      35.214 -23.124 -15.002  0.00  0.00    -0.003 C 
ENDROOT
BRANCH   2  10
ATOM      8  O   UNL     1      33.889 -23.443 -19.769  0.00  0.00    -0.270 OA
ATOM      9  N   UNL     1      33.689 -21.164 -19.377  0.00  0.00    -0.301 N 
ATOM     10  C   UNL     1      33.994 -22.475 -19.018  0.00  0.00    +0.247 C 
ATOM     11  H   UNL     1      33.804 -20.453 -18.705  0.00  0.00    +0.150 HD
BRANCH   9  12
ATOM     12  C   UNL     1      33.214 -20.804 -20.677  0.00  0.00    +0.090 C 
BRANCH  12  13
ATOM     13  C   UNL     1      33.987 -19.602 -21.227  0.00  0.00    +0.018 C 
ATOM     14  C   UNL     1      36.182 -18.339 -21.161  0.00  0.00    +0.000 C 
ATOM     15  C   UNL     1      34.020 -17.076 -21.437  0.00  0.00    +0.000 C 
ATOM     16  C   UNL     1      34.895 -18.501 -23.322  0.00  0.00    +0.000 C 
ATOM     17  C   UNL     1      35.404 -19.546 -20.610  0.00  0.00    +0.002 C 
ATOM     18  C   UNL     1      33.247 -18.287 -20.885  0.00  0.00    +0.002 C 
ATOM     19  C   UNL     1      34.120 -19.708 -22.765  0.00  0.00    +0.002 C 
ATOM     20  C   UNL     1      35.426 -17.047 -20.814  0.00  0.00    +0.000 C 
ATOM     21  C   UNL     1      36.297 -18.465 -22.690  0.00  0.00    +0.000 C 
ATOM     22  C   UNL     1      34.144 -17.208 -22.962  0.00  0.00    +0.000 C 
ENDBRANCH  12  13
ENDBRANCH   9  12
ENDBRANCH   2  10
BRANCH   5  23
ATOM     23  C   UNL     1      32.972 -24.084 -14.455  0.00  0.00    +0.024 C 
BRANCH  23  24
ATOM     24  C   UNL     1      31.821 -23.131 -14.096  0.00  0.00    -0.019 C 
BRANCH  24  25
ATOM     25  C   UNL     1      30.459 -23.804 -14.265  0.00  0.00    -0.081 C 
BRANCH  25  26
ATOM     26  N   UNL     1      30.239 -24.156 -15.663  0.00  0.00    +0.384 N 
ATOM     27  H   UNL     1      29.450 -24.800 -15.725  0.00  0.00    -0.085 HD
ATOM     28  H   UNL     1      31.085 -24.593 -16.026  0.00  0.00    -0.085 HD
BRANCH  26  29
ATOM     29  C   UNL     1      29.949 -22.971 -16.457  0.00  0.00    -0.079 C 
BRANCH  29  30
ATOM     30  C   UNL     1      28.585 -22.400 -16.079  0.00  0.00    +0.008 C 
BRANCH  30  31
ATOM     31  C   UNL     1      27.546 -22.670 -17.158  0.00  0.00    +0.135 C 
BRANCH  31  32
ATOM     32  O   UNL     1      27.686 -24.011 -17.605  0.00  0.00    -0.382 OA
ATOM     33  H   UNL     1      27.639 -24.036 -18.574  0.00  0.00    +0.210 HD
ENDBRANCH  31  32
ENDBRANCH  30  31
ENDBRANCH  29  30
ENDBRANCH  26  29
ENDBRANCH  25  26
ENDBRANCH  24  25
ENDBRANCH  23  24
ENDBRANCH   5  23
TORSDOF 11
ENDMDL
MODEL 6
REMARK VINA RESULT:      -9.0      6.520      9.880
REMARK  Name = 10161381
REMARK  11 active torsions:
REMARK  status: ('A' for Active; 'I' for Inactive)
REMARK    1  A    between atoms: C_2  and  C_10
REMARK    2  A    between atoms: C_5  and  C_23
REMARK    3  A    between atoms: N_9  and  C_12
REMARK    4  A    between atoms: C_12  and  C_13
REMARK    5  A    between atoms: C_23  and  C_24
REMARK    6  A    between atoms: C_24  and  C_25
REMARK    7  A    between atoms: C_25  and  N_26
REMARK    8  A    between atoms: N_26  and  C_29
REMARK    9  A    between atoms: C_29  and  C_30
REMARK   10  A    between atoms: C_30  and  C_31
REMARK   11  A    between atoms: C_31  and  O_32
REMARK                            x       y       z     vdW  Elec       q    Type
REMARK                         _______ _______ _______ _____ _____    ______ ____
ROOT
ATOM      1 CL   UNL     1      32.951 -15.067 -25.708  0.00  0.00    -0.082 Cl
ATOM      2  C   UNL     1      33.483 -13.043 -23.957  0.00  0.00    +0.064 C 
ATOM      3  C   UNL     1      33.867 -11.759 -23.616  0.00  0.00    +0.001 C 
ATOM      4  C   UNL     1      33.426 -13.465 -25.270  0.00  0.00    +0.062 C 
ATOM      5  C   UNL     1      34.208 -10.864 -24.631  0.00  0.00    -0.022 C 
ATOM      6  C   UNL     1      33.767 -12.570 -26.284  0.00  0.00    +0.011 C 
ATOM      7  C   UNL     1      34.158 -11.270 -25.964  0.00  0.00    -0.003 C 
ENDROOT
BRANCH   2  10
ATOM      8  O   UNL     1      31.960 -14.038 -22.477  0.00  0.00    -0.270 OA
ATOM      9  N   UNL     1      34.177 -14.701 -22.295  0.00  0.00    -0.301 N 
ATOM     10  C   UNL     1      33.131 -13.960 -22.842  0.00  0.00    +0.247 C 
ATOM     11  H   UNL     1      35.084 -14.570 -22.655  0.00  0.00    +0.150 HD
BRANCH   9  12
ATOM     12  C   UNL     1      33.991 -15.642 -21.235  0.00  0.00    +0.090 C 
BRANCH  12  13
ATOM     13  C   UNL     1      34.552 -17.015 -21.620  0.00  0.00    +0.018 C 
ATOM     14  C   UNL     1      35.687 -18.356 -23.446  0.00  0.00    +0.000 C 
ATOM     15  C   UNL     1      33.995 -19.466 -21.945  0.00  0.00    +0.000 C 
ATOM     16  C   UNL     1      36.248 -18.804 -21.030  0.00  0.00    +0.000 C 
ATOM     17  C   UNL     1      35.123 -16.978 -23.057  0.00  0.00    +0.002 C 
ATOM     18  C   UNL     1      33.436 -18.086 -21.559  0.00  0.00    +0.002 C 
ATOM     19  C   UNL     1      35.683 -17.425 -20.647  0.00  0.00    +0.002 C 
ATOM     20  C   UNL     1      34.563 -19.402 -23.373  0.00  0.00    +0.000 C 
ATOM     21  C   UNL     1      36.804 -18.743 -22.463  0.00  0.00    +0.000 C 
ATOM     22  C   UNL     1      35.120 -19.847 -20.969  0.00  0.00    +0.000 C 
ENDBRANCH  12  13
ENDBRANCH   9  12
ENDBRANCH   2  10
BRANCH   5  23
ATOM     23  C   UNL     1      34.626  -9.474 -24.290  0.00  0.00    +0.024 C 
BRANCH  23  24
ATOM     24  C   UNL     1      33.740  -8.849 -23.201  0.00  0.00    -0.019 C 
BRANCH  24  25
ATOM     25  C   UNL     1      32.260  -8.913 -23.574  0.00  0.00    -0.081 C 
BRANCH  25  26
ATOM     26  N   UNL     1      31.434  -8.885 -22.372  0.00  0.00    +0.384 N 
ATOM     27  H   UNL     1      30.737  -9.628 -22.430  0.00  0.00    -0.085 HD
ATOM     28  H   UNL     1      30.980  -7.974 -22.309  0.00  0.00    -0.085 HD
BRANCH  26  29
ATOM     29  C   UNL     1      32.245  -9.085 -21.180  0.00  0.00    -0.079 C 
BRANCH  29  30
ATOM     30  C   UNL     1      31.483  -9.917 -20.153  0.00  0.00    +0.008 C 
BRANCH  30  31
ATOM     31  C   UNL     1      31.462 -11.392 -20.532  0.00  0.00    +0.135 C 
BRANCH  31  32
ATOM     32  O   UNL     1      30.554 -11.577 -21.609  0.00  0.00    -0.382 OA
ATOM     33  H   UNL     1      30.442 -12.526 -21.777  0.00  0.00    +0.210 HD
ENDBRANCH  31  32
ENDBRANCH  30  31
ENDBRANCH  29  30
ENDBRANCH  26  29
ENDBRANCH  25  26
ENDBRANCH  24  25
ENDBRANCH  23  24
ENDBRANCH   5  23
TORSDOF 11
ENDMDL
MODEL 7
REMARK VINA RESULT:      -8.9      5.545     13.006
REMARK  Name = 10161381
REMARK  11 active torsions:
REMARK  status: ('A' for Active; 'I' for Inactive)
REMARK    1  A    between atoms: C_2  and  C_10
REMARK    2  A    between atoms: C_5  and  C_23
REMARK    3  A    between atoms: N_9  and  C_12
REMARK    4  A    between atoms: C_12  and  C_13
REMARK    5  A    between atoms: C_23  and  C_24
REMARK    6  A    between atoms: C_24  and  C_25
REMARK    7  A    between atoms: C_25  and  N_26
REMARK    8  A    between atoms: N_26  and  C_29
REMARK    9  A    between atoms: C_29  and  C_30
REMARK   10  A    between atoms: C_30  and  C_31
REMARK   11  A    between atoms: C_31  and  O_32
REMARK                            x       y       z     vdW  Elec       q    Type
REMARK                         _______ _______ _______ _____ _____    ______ ____
ROOT
ATOM      1 CL   UNL     1      33.161 -12.699 -24.632  0.00  0.00    -0.082 Cl
ATOM      2  C   UNL     1      33.280 -13.971 -22.220  0.00  0.00    +0.064 C 
ATOM      3  C   UNL     1      33.694 -14.968 -21.357  0.00  0.00    +0.001 C 
ATOM      4  C   UNL     1      33.675 -13.937 -23.543  0.00  0.00    +0.062 C 
ATOM      5  C   UNL     1      34.537 -15.970 -21.838  0.00  0.00    -0.022 C 
ATOM      6  C   UNL     1      34.517 -14.940 -24.022  0.00  0.00    +0.011 C 
ATOM      7  C   UNL     1      34.948 -15.956 -23.170  0.00  0.00    -0.003 C 
ENDROOT
BRANCH   2  10
ATOM      8  O   UNL     1      32.016 -13.011 -20.493  0.00  0.00    -0.270 OA
ATOM      9  N   UNL     1      32.030 -11.888 -22.524  0.00  0.00    -0.301 N 
ATOM     10  C   UNL     1      32.382 -12.926 -21.663  0.00  0.00    +0.247 C 
ATOM     11  H   UNL     1      32.373 -11.906 -23.447  0.00  0.00    +0.150 HD
BRANCH   9  12
ATOM     12  C   UNL     1      31.195 -10.798 -22.127  0.00  0.00    +0.090 C 
BRANCH  12  13
ATOM     13  C   UNL     1      31.886  -9.456 -22.390  0.00  0.00    +0.018 C 
ATOM     14  C   UNL     1      33.051  -7.476 -21.322  0.00  0.00    +0.000 C 
ATOM     15  C   UNL     1      31.599  -7.129 -23.351  0.00  0.00    +0.000 C 
ATOM     16  C   UNL     1      33.813  -8.311 -23.574  0.00  0.00    +0.000 C 
ATOM     17  C   UNL     1      32.357  -8.824 -21.060  0.00  0.00    +0.002 C 
ATOM     18  C   UNL     1      30.909  -8.477 -23.084  0.00  0.00    +0.002 C 
ATOM     19  C   UNL     1      33.117  -9.657 -23.306  0.00  0.00    +0.002 C 
ATOM     20  C   UNL     1      32.063  -6.524 -22.015  0.00  0.00    +0.000 C 
ATOM     21  C   UNL     1      34.266  -7.701 -22.237  0.00  0.00    +0.000 C 
ATOM     22  C   UNL     1      32.820  -7.355 -24.256  0.00  0.00    +0.000 C 
ENDBRANCH  12  13
ENDBRANCH   9  12
ENDBRANCH   2  10
BRANCH   5  23
ATOM     23  C   UNL     1      34.998 -17.057 -20.927  0.00  0.00    +0.024 C 
BRANCH  23  24
ATOM     24  C   UNL     1      35.604 -18.243 -21.694  0.00  0.00    -0.019 C 
BRANCH  24  25
ATOM     25  C   UNL     1      34.614 -19.401 -21.815  0.00  0.00    -0.081 C 
BRANCH  25  26
ATOM     26  N   UNL     1      33.548 -19.260 -20.830  0.00  0.00    +0.384 N 
ATOM     27  H   UNL     1      32.740 -18.822 -21.273  0.00  0.00    -0.085 HD
ATOM     28  H   UNL     1      33.889 -18.684 -20.061  0.00  0.00    -0.085 HD
BRANCH  26  29
ATOM     29  C   UNL     1      33.155 -20.558 -20.302  0.00  0.00    -0.079 C 
BRANCH  29  30
ATOM     30  C   UNL     1      34.359 -21.268 -19.691  0.00  0.00    +0.008 C 
BRANCH  30  31
ATOM     31  C   UNL     1      33.931 -22.358 -18.717  0.00  0.00    +0.135 C 
BRANCH  31  32
ATOM     32  O   UNL     1      33.939 -23.608 -19.394  0.00  0.00    -0.382 OA
ATOM     33  H   UNL     1      33.293 -23.588 -20.118  0.00  0.00    +0.210 HD
ENDBRANCH  31  32
ENDBRANCH  30  31
ENDBRANCH  29  30
ENDBRANCH  26  29
ENDBRANCH  25  26
ENDBRANCH  24  25
ENDBRANCH  23  24
ENDBRANCH   5  23
TORSDOF 11
ENDMDL
MODEL 8
REMARK VINA RESULT:      -8.9      5.588     12.940
REMARK  Name = 10161381
REMARK  11 active torsions:
REMARK  status: ('A' for Active; 'I' for Inactive)
REMARK    1  A    between atoms: C_2  and  C_10
REMARK    2  A    between atoms: C_5  and  C_23
REMARK    3  A    between atoms: N_9  and  C_12
REMARK    4  A    between atoms: C_12  and  C_13
REMARK    5  A    between atoms: C_23  and  C_24
REMARK    6  A    between atoms: C_24  and  C_25
REMARK    7  A    between atoms: C_25  and  N_26
REMARK    8  A    between atoms: N_26  and  C_29
REMARK    9  A    between atoms: C_29  and  C_30
REMARK   10  A    between atoms: C_30  and  C_31
REMARK   11  A    between atoms: C_31  and  O_32
REMARK                            x       y       z     vdW  Elec       q    Type
REMARK                         _______ _______ _______ _____ _____    ______ ____
ROOT
ATOM      1 CL   UNL     1      33.103 -12.784 -24.624  0.00  0.00    -0.082 Cl
ATOM      2  C   UNL     1      33.253 -14.043 -22.207  0.00  0.00    +0.064 C 
ATOM      3  C   UNL     1      33.680 -15.034 -21.344  0.00  0.00    +0.001 C 
ATOM      4  C   UNL     1      33.634 -14.014 -23.534  0.00  0.00    +0.062 C 
ATOM      5  C   UNL     1      34.523 -16.035 -21.828  0.00  0.00    -0.022 C 
ATOM      6  C   UNL     1      34.476 -15.016 -24.018  0.00  0.00    +0.011 C 
ATOM      7  C   UNL     1      34.920 -16.026 -23.165  0.00  0.00    -0.003 C 
ENDROOT
BRANCH   2  10
ATOM      8  O   UNL     1      31.984 -13.093 -20.479  0.00  0.00    -0.270 OA
ATOM      9  N   UNL     1      32.013 -11.952 -22.500  0.00  0.00    -0.301 N 
ATOM     10  C   UNL     1      32.356 -12.999 -21.646  0.00  0.00    +0.247 C 
ATOM     11  H   UNL     1      32.361 -11.964 -23.421  0.00  0.00    +0.150 HD
BRANCH   9  12
ATOM     12  C   UNL     1      31.181 -10.863 -22.097  0.00  0.00    +0.090 C 
BRANCH  12  13
ATOM     13  C   UNL     1      31.855  -9.520 -22.397  0.00  0.00    +0.018 C 
ATOM     14  C   UNL     1      31.542  -7.223 -23.418  0.00  0.00    +0.000 C 
ATOM     15  C   UNL     1      33.769  -8.385 -23.610  0.00  0.00    +0.000 C 
ATOM     16  C   UNL     1      32.998  -7.499 -21.380  0.00  0.00    +0.000 C 
ATOM     17  C   UNL     1      30.867  -8.572 -23.115  0.00  0.00    +0.002 C 
ATOM     18  C   UNL     1      33.088  -9.731 -23.307  0.00  0.00    +0.002 C 
ATOM     19  C   UNL     1      32.320  -8.848 -21.083  0.00  0.00    +0.002 C 
ATOM     20  C   UNL     1      32.765  -7.458 -24.318  0.00  0.00    +0.000 C 
ATOM     21  C   UNL     1      31.999  -6.577 -22.098  0.00  0.00    +0.000 C 
ATOM     22  C   UNL     1      34.215  -7.735 -22.291  0.00  0.00    +0.000 C 
ENDBRANCH  12  13
ENDBRANCH   9  12
ENDBRANCH   2  10
BRANCH   5  23
ATOM     23  C   UNL     1      34.998 -17.116 -20.917  0.00  0.00    +0.024 C 
BRANCH  23  24
ATOM     24  C   UNL     1      34.296 -18.456 -21.187  0.00  0.00    -0.019 C 
BRANCH  24  25
ATOM     25  C   UNL     1      35.302 -19.587 -21.396  0.00  0.00    -0.081 C 
BRANCH  25  26
ATOM     26  N   UNL     1      36.196 -19.688 -20.248  0.00  0.00    +0.384 N 
ATOM     27  H   UNL     1      35.720 -19.324 -19.422  0.00  0.00    -0.085 HD
ATOM     28  H   UNL     1      37.038 -19.146 -20.442  0.00  0.00    -0.085 HD
BRANCH  26  29
ATOM     29  C   UNL     1      36.577 -21.072 -20.007  0.00  0.00    -0.079 C 
BRANCH  29  30
ATOM     30  C   UNL     1      35.827 -21.626 -18.799  0.00  0.00    +0.008 C 
BRANCH  30  31
ATOM     31  C   UNL     1      36.738 -21.759 -17.587  0.00  0.00    +0.135 C 
BRANCH  31  32
ATOM     32  O   UNL     1      37.306 -20.489 -17.297  0.00  0.00    -0.382 OA
ATOM     33  H   UNL     1      38.112 -20.608 -16.771  0.00  0.00    +0.210 HD
ENDBRANCH  31  32
ENDBRANCH  30  31
ENDBRANCH  29  30
ENDBRANCH  26  29
ENDBRANCH  25  26
ENDBRANCH  24  25
ENDBRANCH  23  24
ENDBRANCH   5  23
TORSDOF 11
ENDMDL
MODEL 9
REMARK VINA RESULT:      -8.7      1.510      2.166
REMARK  Name = 10161381
REMARK  11 active torsions:
REMARK  status: ('A' for Active; 'I' for Inactive)
REMARK    1  A    between atoms: C_2  and  C_10
REMARK    2  A    between atoms: C_5  and  C_23
REMARK    3  A    between atoms: N_9  and  C_12
REMARK    4  A    between atoms: C_12  and  C_13
REMARK    5  A    between atoms: C_23  and  C_24
REMARK    6  A    between atoms: C_24  and  C_25
REMARK    7  A    between atoms: C_25  and  N_26
REMARK    8  A    between atoms: N_26  and  C_29
REMARK    9  A    between atoms: C_29  and  C_30
REMARK   10  A    between atoms: C_30  and  C_31
REMARK   11  A    between atoms: C_31  and  O_32
REMARK                            x       y       z     vdW  Elec       q    Type
REMARK                         _______ _______ _______ _____ _____    ______ ____
ROOT
ATOM      1 CL   UNL     1      33.770 -23.091 -18.043  0.00  0.00    -0.082 Cl
ATOM      2  C   UNL     1      35.208 -21.185 -19.365  0.00  0.00    +0.064 C 
ATOM      3  C   UNL     1      35.365 -20.130 -20.245  0.00  0.00    +0.001 C 
ATOM      4  C   UNL     1      33.978 -21.770 -19.136  0.00  0.00    +0.062 C 
ATOM      5  C   UNL     1      34.246 -19.641 -20.920  0.00  0.00    -0.022 C 
ATOM      6  C   UNL     1      32.860 -21.281 -19.812  0.00  0.00    +0.011 C 
ATOM      7  C   UNL     1      32.994 -20.217 -20.703  0.00  0.00    -0.003 C 
ENDROOT
BRANCH   2  10
ATOM      8  O   UNL     1      37.407 -21.998 -19.336  0.00  0.00    -0.270 OA
ATOM      9  N   UNL     1      36.378 -21.700 -17.278  0.00  0.00    -0.301 N 
ATOM     10  C   UNL     1      36.428 -21.672 -18.670  0.00  0.00    +0.247 C 
ATOM     11  H   UNL     1      35.547 -21.418 -16.831  0.00  0.00    +0.150 HD
BRANCH   9  12
ATOM     12  C   UNL     1      37.480 -22.119 -16.469  0.00  0.00    +0.090 C 
BRANCH  12  13
ATOM     13  C   UNL     1      37.042 -23.184 -15.459  0.00  0.00    +0.018 C 
ATOM     14  C   UNL     1      36.396 -23.617 -13.048  0.00  0.00    +0.000 C 
ATOM     15  C   UNL     1      37.683 -25.361 -14.331  0.00  0.00    +0.000 C 
ATOM     16  C   UNL     1      35.270 -24.907 -14.896  0.00  0.00    +0.000 C 
ATOM     17  C   UNL     1      36.836 -22.549 -14.064  0.00  0.00    +0.002 C 
ATOM     18  C   UNL     1      38.120 -24.289 -15.344  0.00  0.00    +0.002 C 
ATOM     19  C   UNL     1      35.713 -23.836 -15.908  0.00  0.00    +0.002 C 
ATOM     20  C   UNL     1      37.479 -24.704 -12.955  0.00  0.00    +0.000 C 
ATOM     21  C   UNL     1      35.077 -24.252 -13.519  0.00  0.00    +0.000 C 
ATOM     22  C   UNL     1      36.360 -25.988 -14.795  0.00  0.00    +0.000 C 
ENDBRANCH  12  13
ENDBRANCH   9  12
ENDBRANCH   2  10
BRANCH   5  23
ATOM     23  C   UNL     1      34.389 -18.504 -21.874  0.00  0.00    +0.024 C 
BRANCH  23  24
ATOM     24  C   UNL     1      34.755 -18.974 -23.290  0.00  0.00    -0.019 C 
BRANCH  24  25
ATOM     25  C   UNL     1      35.003 -17.794 -24.229  0.00  0.00    -0.081 C 
BRANCH  25  26
ATOM     26  N   UNL     1      35.295 -16.589 -23.461  0.00  0.00    +0.384 N 
ATOM     27  H   UNL     1      36.186 -16.203 -23.772  0.00  0.00    -0.085 HD
ATOM     28  H   UNL     1      35.338 -16.835 -22.473  0.00  0.00    -0.085 HD
BRANCH  26  29
ATOM     29  C   UNL     1      34.253 -15.590 -23.648  0.00  0.00    -0.079 C 
BRANCH  29  30
ATOM     30  C   UNL     1      34.431 -14.446 -22.654  0.00  0.00    +0.008 C 
BRANCH  30  31
ATOM     31  C   UNL     1      33.864 -14.800 -21.286  0.00  0.00    +0.135 C 
BRANCH  31  32
ATOM     32  O   UNL     1      34.889 -15.398 -20.505  0.00  0.00    -0.382 OA
ATOM     33  H   UNL     1      35.518 -14.717 -20.220  0.00  0.00    +0.210 HD
ENDBRANCH  31  32
ENDBRANCH  30  31
ENDBRANCH  29  30
ENDBRANCH  26  29
ENDBRANCH  25  26
ENDBRANCH  24  25
ENDBRANCH  23  24
ENDBRANCH   5  23
TORSDOF 11
ENDMDL
