MODEL 1
REMARK VINA RESULT:     -10.9      0.000      0.000
REMARK  Name = 57384863
REMARK  1 active torsions:
REMARK  status: ('A' for Active; 'I' for Inactive)
REMARK    1  A    between atoms: C_21  and  C_25
REMARK                            x       y       z     vdW  Elec       q    Type
REMARK                         _______ _______ _______ _____ _____    ______ ____
ROOT
ATOM      1  O   UNL     1      28.867 -23.776 -14.883  0.00  0.00    -0.349 OA
ATOM      2  O   UNL     1      37.684 -24.921 -14.500  0.00  0.00    -0.350 OA
ATOM      3  N   UNL     1      30.989 -23.109 -16.479  0.00  0.00    -0.234 N 
ATOM      4  N   UNL     1      35.489 -23.757 -15.815  0.00  0.00    -0.276 N 
ATOM      5  N   UNL     1      32.534 -24.032 -15.182  0.00  0.00    -0.381 NA
ATOM      6  N   UNL     1      32.404 -22.067 -18.163  0.00  0.00    -0.322 NA
ATOM      7  N   UNL     1      34.763 -22.485 -17.698  0.00  0.00    -0.322 NA
ATOM      8  C   UNL     1      30.120 -24.387 -14.501  0.00  0.00    +0.152 C 
ATOM      9  C   UNL     1      31.236 -23.853 -15.352  0.00  0.00    +0.190 C 
ATOM     10  C   UNL     1      29.657 -22.738 -16.904  0.00  0.00    +0.132 C 
ATOM     11  C   UNL     1      32.180 -22.788 -17.054  0.00  0.00    +0.235 C 
ATOM     12  C   UNL     1      28.640 -23.687 -16.292  0.00  0.00    +0.164 C 
ATOM     13  C   UNL     1      33.131 -23.373 -16.231  0.00  0.00    +0.222 C 
ATOM     14  C   UNL     1      30.343 -24.005 -13.034  0.00  0.00    +0.038 C 
ATOM     15  C   UNL     1      30.016 -25.910 -14.625  0.00  0.00    +0.038 C 
ATOM     16  C   UNL     1      34.465 -23.201 -16.588  0.00  0.00    +0.230 C 
ATOM     17  C   UNL     1      35.549 -25.210 -15.618  0.00  0.00    +0.125 C 
ATOM     18  C   UNL     1      36.785 -23.067 -15.780  0.00  0.00    +0.125 C 
ATOM     19  C   UNL     1      36.397 -25.529 -14.391  0.00  0.00    +0.164 C 
ATOM     20  C   UNL     1      37.566 -23.499 -14.544  0.00  0.00    +0.164 C 
ATOM     21  C   UNL     1      33.729 -21.969 -18.406  0.00  0.00    +0.140 C 
ENDROOT
BRANCH  21  25
ATOM     22  N   UNL     1      35.776 -20.411 -21.101  0.00  0.00    -0.202 NA
ATOM     23  N   UNL     1      33.461 -19.838 -21.450  0.00  0.00    -0.180 NA
ATOM     24  N   UNL     1      35.126 -19.070 -22.914  0.00  0.00    -0.303 N 
ATOM     25  C   UNL     1      34.093 -21.216 -19.580  0.00  0.00    +0.109 C 
ATOM     26  C   UNL     1      35.399 -21.108 -20.008  0.00  0.00    +0.177 C 
ATOM     27  C   UNL     1      33.156 -20.553 -20.347  0.00  0.00    +0.120 C 
ATOM     28  C   UNL     1      34.769 -19.810 -21.765  0.00  0.00    +0.084 C 
ATOM     29  H   UNL     1      36.069 -19.015 -23.191  0.00  0.00    +0.154 HD
ATOM     30  H   UNL     1      34.431 -18.610 -23.438  0.00  0.00    +0.154 HD
ENDBRANCH  21  25
TORSDOF 1
ENDMDL
MODEL 2
REMARK VINA RESULT:      -9.9      1.287      5.299
REMARK  Name = 57384863
REMARK  1 active torsions:
REMARK  status: ('A' for Active; 'I' for Inactive)
REMARK    1  A    between atoms: C_21  and  C_25
REMARK                            x       y       z     vdW  Elec       q    Type
REMARK                         _______ _______ _______ _____ _____    ______ ____
ROOT
ATOM      1  O   UNL     1      38.663 -25.320 -13.805  0.00  0.00    -0.349 OA
ATOM      2  O   UNL     1      29.816 -24.420 -14.152  0.00  0.00    -0.350 OA
ATOM      3  N   UNL     1      36.905 -23.954 -15.399  0.00  0.00    -0.234 N 
ATOM      4  N   UNL     1      32.311 -23.894 -15.335  0.00  0.00    -0.276 N 
ATOM      5  N   UNL     1      35.080 -24.619 -14.327  0.00  0.00    -0.381 NA
ATOM      6  N   UNL     1      35.900 -22.725 -17.243  0.00  0.00    -0.322 NA
ATOM      7  N   UNL     1      33.464 -22.768 -17.094  0.00  0.00    -0.322 NA
ATOM      8  C   UNL     1      37.301 -25.306 -13.321  0.00  0.00    +0.152 C 
ATOM      9  C   UNL     1      36.400 -24.652 -14.329  0.00  0.00    +0.190 C 
ATOM     10  C   UNL     1      38.321 -23.837 -15.669  0.00  0.00    +0.132 C 
ATOM     11  C   UNL     1      35.863 -23.458 -16.120  0.00  0.00    +0.235 C 
ATOM     12  C   UNL     1      39.109 -24.096 -14.395  0.00  0.00    +0.164 C 
ATOM     13  C   UNL     1      34.734 -23.883 -15.435  0.00  0.00    +0.222 C 
ATOM     14  C   UNL     1      36.908 -26.776 -13.134  0.00  0.00    +0.038 C 
ATOM     15  C   UNL     1      37.233 -24.581 -11.974  0.00  0.00    +0.038 C 
ATOM     16  C   UNL     1      33.500 -23.510 -15.962  0.00  0.00    +0.230 C 
ATOM     17  C   UNL     1      32.042 -23.475 -13.955  0.00  0.00    +0.125 C 
ATOM     18  C   UNL     1      31.119 -24.094 -16.172  0.00  0.00    +0.125 C 
ATOM     19  C   UNL     1      30.986 -24.385 -13.336  0.00  0.00    +0.164 C 
ATOM     20  C   UNL     1      30.114 -24.971 -15.434  0.00  0.00    +0.164 C 
ATOM     21  C   UNL     1      34.649 -22.427 -17.656  0.00  0.00    +0.140 C 
ENDROOT
BRANCH  21  25
ATOM     22  N   UNL     1      35.637 -20.430 -20.642  0.00  0.00    -0.202 NA
ATOM     23  N   UNL     1      33.232 -20.554 -20.549  0.00  0.00    -0.180 NA
ATOM     24  N   UNL     1      34.313 -19.387 -22.274  0.00  0.00    -0.303 N 
ATOM     25  C   UNL     1      34.562 -21.636 -18.859  0.00  0.00    +0.109 C 
ATOM     26  C   UNL     1      35.682 -21.173 -19.516  0.00  0.00    +0.177 C 
ATOM     27  C   UNL     1      33.351 -21.292 -19.426  0.00  0.00    +0.120 C 
ATOM     28  C   UNL     1      34.398 -20.163 -21.097  0.00  0.00    +0.084 C 
ATOM     29  H   UNL     1      35.133 -19.073 -22.718  0.00  0.00    +0.154 HD
ATOM     30  H   UNL     1      33.431 -19.161 -22.651  0.00  0.00    +0.154 HD
ENDBRANCH  21  25
TORSDOF 1
ENDMDL
