MODEL 1
REMARK VINA RESULT:     -11.3      0.000      0.000
REMARK  Name = 10252640
REMARK  6 active torsions:
REMARK  status: ('A' for Active; 'I' for Inactive)
REMARK    1  A    between atoms: N_1  and  C_31
REMARK    2  A    between atoms: C_4  and  N_23
REMARK    3  A    between atoms: C_6  and  C_13
REMARK    4  A    between atoms: C_14  and  C_15
REMARK    5  A    between atoms: C_15  and  C_18
REMARK    6  A    between atoms: N_23  and  C_26
REMARK                            x       y       z     vdW  Elec       q    Type
REMARK                         _______ _______ _______ _____ _____    ______ ____
ROOT
ATOM      1  N   UNL     1      30.644 -24.667 -14.506  0.00  0.00    -0.195 N 
ATOM      2  N   UNL     1      31.411 -23.625 -16.550  0.00  0.00    -0.227 NA
ATOM      3  N   UNL     1      31.115 -25.065 -13.310  0.00  0.00    -0.175 NA
ATOM      4  C   UNL     1      33.953 -23.628 -15.175  0.00  0.00    +0.055 C 
ATOM      5  C   UNL     1      32.777 -24.145 -14.585  0.00  0.00    +0.067 C 
ATOM      6  C   UNL     1      33.802 -23.111 -16.476  0.00  0.00    +0.087 C 
ATOM      7  C   UNL     1      31.595 -24.108 -15.309  0.00  0.00    +0.153 C 
ATOM      8  C   UNL     1      32.412 -24.745 -13.363  0.00  0.00    +0.122 C 
ATOM      9  C   UNL     1      32.554 -23.135 -17.089  0.00  0.00    +0.106 C 
ENDROOT
BRANCH   6  13
ATOM     10  O   UNL     1      34.735 -22.333 -18.511  0.00  0.00    -0.419 OA
ATOM     11  N   UNL     1      36.116 -22.221 -16.755  0.00  0.00    -0.107 NA
ATOM     12  N   UNL     1      36.791 -21.739 -17.860  0.00  0.00    -0.111 NA
ATOM     13  C   UNL     1      34.929 -22.552 -17.186  0.00  0.00    +0.252 A 
ATOM     14  C   UNL     1      35.947 -21.824 -18.862  0.00  0.00    +0.228 A 
BRANCH  14  15
ATOM     15  C   UNL     1      36.127 -21.453 -20.271  0.00  0.00    +0.105 C 
BRANCH  15  18
ATOM     16  S   UNL     1      36.387 -18.831 -21.128  0.00  0.00    -0.080 S 
ATOM     17  N   UNL     1      33.814 -18.585 -21.085  0.00  0.00    -0.408 NA
ATOM     18  C   UNL     1      35.436 -20.148 -20.659  0.00  0.00    +0.111 C 
ATOM     19  C   UNL     1      34.118 -19.872 -20.685  0.00  0.00    +0.098 C 
ATOM     20  C   UNL     1      34.934 -17.945 -21.344  0.00  0.00    +0.134 C 
ATOM     21  C   UNL     1      33.001 -20.775 -20.343  0.00  0.00    +0.062 C 
ATOM     22  C   UNL     1      35.008 -16.540 -21.798  0.00  0.00    +0.074 C 
ENDBRANCH  15  18
ENDBRANCH  14  15
ENDBRANCH   6  13
BRANCH   4  23
ATOM     23  N   UNL     1      35.168 -23.629 -14.516  0.00  0.00    -0.334 N 
ATOM     24  H   UNL     1      35.630 -22.769 -14.388  0.00  0.00    +0.147 HD
BRANCH  23  26
ATOM     25  O   UNL     1      38.581 -24.311 -13.412  0.00  0.00    -0.354 OA
ATOM     26  C   UNL     1      35.799 -24.828 -14.002  0.00  0.00    +0.074 C 
ATOM     27  C   UNL     1      36.314 -24.579 -12.583  0.00  0.00    +0.052 C 
ATOM     28  C   UNL     1      36.936 -25.266 -14.928  0.00  0.00    +0.052 C 
ATOM     29  C   UNL     1      37.580 -23.728 -12.580  0.00  0.00    +0.144 C 
ATOM     30  C   UNL     1      38.171 -24.383 -14.777  0.00  0.00    +0.144 C 
ENDBRANCH  23  26
ENDBRANCH   4  23
BRANCH   1  31
ATOM     31  C   UNL     1      29.248 -24.854 -14.819  0.00  0.00    +0.118 C 
ATOM     32  C   UNL     1      28.596 -23.579 -15.325  0.00  0.00    +0.025 C 
ENDBRANCH   1  31
TORSDOF 6
ENDMDL
MODEL 2
REMARK VINA RESULT:      -9.9      2.875      6.526
REMARK  Name = 10252640
REMARK  6 active torsions:
REMARK  status: ('A' for Active; 'I' for Inactive)
REMARK    1  A    between atoms: N_1  and  C_31
REMARK    2  A    between atoms: C_4  and  N_23
REMARK    3  A    between atoms: C_6  and  C_13
REMARK    4  A    between atoms: C_14  and  C_15
REMARK    5  A    between atoms: C_15  and  C_18
REMARK    6  A    between atoms: N_23  and  C_26
REMARK                            x       y       z     vdW  Elec       q    Type
REMARK                         _______ _______ _______ _____ _____    ______ ____
ROOT
ATOM      1  N   UNL     1      36.174 -21.884 -18.489  0.00  0.00    -0.195 N 
ATOM      2  N   UNL     1      33.938 -22.735 -18.132  0.00  0.00    -0.227 NA
ATOM      3  N   UNL     1      37.311 -21.649 -17.808  0.00  0.00    -0.175 NA
ATOM      4  C   UNL     1      34.872 -23.031 -15.413  0.00  0.00    +0.055 C 
ATOM      5  C   UNL     1      35.695 -22.516 -16.440  0.00  0.00    +0.067 C 
ATOM      6  C   UNL     1      33.568 -23.391 -15.804  0.00  0.00    +0.087 C 
ATOM      7  C   UNL     1      35.174 -22.404 -17.720  0.00  0.00    +0.153 C 
ATOM      8  C   UNL     1      37.014 -22.036 -16.564  0.00  0.00    +0.122 C 
ATOM      9  C   UNL     1      33.173 -23.226 -17.127  0.00  0.00    +0.106 C 
ENDROOT
BRANCH   6  13
ATOM     10  O   UNL     1      31.323 -23.670 -15.098  0.00  0.00    -0.419 OA
ATOM     11  N   UNL     1      32.840 -24.637 -13.769  0.00  0.00    -0.107 NA
ATOM     12  N   UNL     1      31.589 -24.882 -13.236  0.00  0.00    -0.111 NA
ATOM     13  C   UNL     1      32.630 -23.931 -14.847  0.00  0.00    +0.252 A 
ATOM     14  C   UNL     1      30.734 -24.298 -14.043  0.00  0.00    +0.228 A 
BRANCH  14  15
ATOM     15  C   UNL     1      29.269 -24.232 -13.967  0.00  0.00    +0.105 C 
BRANCH  15  18
ATOM     16  S   UNL     1      27.816 -22.285 -15.300  0.00  0.00    -0.080 S 
ATOM     17  N   UNL     1      27.863 -23.744 -17.434  0.00  0.00    -0.408 NA
ATOM     18  C   UNL     1      28.604 -23.780 -15.265  0.00  0.00    +0.111 C 
ATOM     19  C   UNL     1      28.546 -24.426 -16.446  0.00  0.00    +0.098 C 
ATOM     20  C   UNL     1      27.433 -22.602 -16.942  0.00  0.00    +0.134 C 
ATOM     21  C   UNL     1      29.120 -25.744 -16.783  0.00  0.00    +0.062 C 
ATOM     22  C   UNL     1      26.658 -21.601 -17.707  0.00  0.00    +0.074 C 
ENDBRANCH  15  18
ENDBRANCH  14  15
ENDBRANCH   6  13
BRANCH   4  23
ATOM     23  N   UNL     1      35.320 -23.174 -14.113  0.00  0.00    -0.334 N 
ATOM     24  H   UNL     1      34.859 -22.672 -13.403  0.00  0.00    +0.147 HD
BRANCH  23  26
ATOM     25  O   UNL     1      36.789 -23.986 -10.870  0.00  0.00    -0.354 OA
ATOM     26  C   UNL     1      36.433 -24.024 -13.739  0.00  0.00    +0.074 C 
ATOM     27  C   UNL     1      35.944 -25.151 -12.827  0.00  0.00    +0.052 C 
ATOM     28  C   UNL     1      37.522 -23.198 -13.051  0.00  0.00    +0.052 C 
ATOM     29  C   UNL     1      35.651 -24.653 -11.415  0.00  0.00    +0.144 C 
ATOM     30  C   UNL     1      37.143 -22.826 -11.621  0.00  0.00    +0.144 C 
ENDBRANCH  23  26
ENDBRANCH   4  23
BRANCH   1  31
ATOM     31  C   UNL     1      36.114 -21.583 -19.899  0.00  0.00    +0.118 C 
ATOM     32  C   UNL     1      36.507 -20.145 -20.197  0.00  0.00    +0.025 C 
ENDBRANCH   1  31
TORSDOF 6
ENDMDL
MODEL 3
REMARK VINA RESULT:      -9.8      1.104      1.414
REMARK  Name = 10252640
REMARK  6 active torsions:
REMARK  status: ('A' for Active; 'I' for Inactive)
REMARK    1  A    between atoms: N_1  and  C_31
REMARK    2  A    between atoms: C_4  and  N_23
REMARK    3  A    between atoms: C_6  and  C_13
REMARK    4  A    between atoms: C_14  and  C_15
REMARK    5  A    between atoms: C_15  and  C_18
REMARK    6  A    between atoms: N_23  and  C_26
REMARK                            x       y       z     vdW  Elec       q    Type
REMARK                         _______ _______ _______ _____ _____    ______ ____
ROOT
ATOM      1  N   UNL     1      30.531 -24.249 -14.914  0.00  0.00    -0.195 N 
ATOM      2  N   UNL     1      31.205 -23.133 -16.952  0.00  0.00    -0.227 NA
ATOM      3  N   UNL     1      31.069 -24.784 -13.803  0.00  0.00    -0.175 NA
ATOM      4  C   UNL     1      33.852 -23.498 -15.851  0.00  0.00    +0.055 C 
ATOM      5  C   UNL     1      32.689 -23.939 -15.179  0.00  0.00    +0.067 C 
ATOM      6  C   UNL     1      33.633 -22.868 -17.091  0.00  0.00    +0.087 C 
ATOM      7  C   UNL     1      31.454 -23.728 -15.772  0.00  0.00    +0.153 C 
ATOM      8  C   UNL     1      32.382 -24.593 -13.969  0.00  0.00    +0.122 C 
ATOM      9  C   UNL     1      32.337 -22.720 -17.572  0.00  0.00    +0.106 C 
ENDROOT
BRANCH   6  13
ATOM     10  O   UNL     1      34.443 -22.023 -19.153  0.00  0.00    -0.419 OA
ATOM     11  N   UNL     1      35.993 -22.203 -17.551  0.00  0.00    -0.107 NA
ATOM     12  N   UNL     1      36.607 -21.702 -18.683  0.00  0.00    -0.111 NA
ATOM     13  C   UNL     1      34.740 -22.371 -17.876  0.00  0.00    +0.252 A 
ATOM     14  C   UNL     1      35.664 -21.615 -19.593  0.00  0.00    +0.228 A 
BRANCH  14  15
ATOM     15  C   UNL     1      35.744 -21.149 -20.983  0.00  0.00    +0.105 C 
BRANCH  15  18
ATOM     16  S   UNL     1      33.793 -19.185 -20.848  0.00  0.00    -0.080 S 
ATOM     17  N   UNL     1      35.534 -17.435 -21.617  0.00  0.00    -0.408 NA
ATOM     18  C   UNL     1      35.380 -19.676 -21.162  0.00  0.00    +0.111 C 
ATOM     19  C   UNL     1      36.171 -18.659 -21.553  0.00  0.00    +0.098 C 
ATOM     20  C   UNL     1      34.276 -17.593 -21.266  0.00  0.00    +0.134 C 
ATOM     21  C   UNL     1      37.604 -18.714 -21.907  0.00  0.00    +0.062 C 
ATOM     22  C   UNL     1      33.279 -16.502 -21.215  0.00  0.00    +0.074 C 
ENDBRANCH  15  18
ENDBRANCH  14  15
ENDBRANCH   6  13
BRANCH   4  23
ATOM     23  N   UNL     1      35.118 -23.671 -15.323  0.00  0.00    -0.334 N 
ATOM     24  H   UNL     1      35.854 -23.128 -15.687  0.00  0.00    +0.147 HD
BRANCH  23  26
ATOM     25  O   UNL     1      38.141 -24.242 -13.356  0.00  0.00    -0.354 OA
ATOM     26  C   UNL     1      35.420 -24.610 -14.261  0.00  0.00    +0.074 C 
ATOM     27  C   UNL     1      35.773 -23.852 -12.981  0.00  0.00    +0.052 C 
ATOM     28  C   UNL     1      36.565 -25.535 -14.683  0.00  0.00    +0.052 C 
ATOM     29  C   UNL     1      37.170 -23.243 -13.047  0.00  0.00    +0.144 C 
ATOM     30  C   UNL     1      37.918 -24.831 -14.637  0.00  0.00    +0.144 C 
ENDBRANCH  23  26
ENDBRANCH   4  23
BRANCH   1  31
ATOM     31  C   UNL     1      29.099 -24.271 -15.093  0.00  0.00    +0.118 C 
ATOM     32  C   UNL     1      28.525 -22.881 -15.315  0.00  0.00    +0.025 C 
ENDBRANCH   1  31
TORSDOF 6
ENDMDL
MODEL 4
REMARK VINA RESULT:      -9.5      5.416     12.090
REMARK  Name = 10252640
REMARK  6 active torsions:
REMARK  status: ('A' for Active; 'I' for Inactive)
REMARK    1  A    between atoms: N_1  and  C_31
REMARK    2  A    between atoms: C_4  and  N_23
REMARK    3  A    between atoms: C_6  and  C_13
REMARK    4  A    between atoms: C_14  and  C_15
REMARK    5  A    between atoms: C_15  and  C_18
REMARK    6  A    between atoms: N_23  and  C_26
REMARK                            x       y       z     vdW  Elec       q    Type
REMARK                         _______ _______ _______ _____ _____    ______ ____
ROOT
ATOM      1  N   UNL     1      31.945  -9.839 -21.157  0.00  0.00    -0.195 N 
ATOM      2  N   UNL     1      32.027 -11.813 -19.762  0.00  0.00    -0.227 NA
ATOM      3  N   UNL     1      32.016  -9.487 -22.454  0.00  0.00    -0.175 NA
ATOM      4  C   UNL     1      32.372 -13.153 -22.299  0.00  0.00    +0.055 C 
ATOM      5  C   UNL     1      32.222 -11.751 -22.202  0.00  0.00    +0.067 C 
ATOM      6  C   UNL     1      32.341 -13.852 -21.077  0.00  0.00    +0.087 C 
ATOM      7  C   UNL     1      32.061 -11.182 -20.948  0.00  0.00    +0.153 C 
ATOM      8  C   UNL     1      32.184 -10.654 -23.085  0.00  0.00    +0.122 C 
ATOM      9  C   UNL     1      32.172 -13.155 -19.887  0.00  0.00    +0.106 C 
ENDROOT
BRANCH   6  13
ATOM     10  O   UNL     1      33.641 -15.777 -21.551  0.00  0.00    -0.419 OA
ATOM     11  N   UNL     1      31.664 -16.205 -20.595  0.00  0.00    -0.107 NA
ATOM     12  N   UNL     1      32.304 -17.411 -20.810  0.00  0.00    -0.111 NA
ATOM     13  C   UNL     1      32.482 -15.290 -21.042  0.00  0.00    +0.252 A 
ATOM     14  C   UNL     1      33.453 -17.113 -21.371  0.00  0.00    +0.228 A 
BRANCH  14  15
ATOM     15  C   UNL     1      34.535 -18.000 -21.817  0.00  0.00    +0.105 C 
BRANCH  15  18
ATOM     16  S   UNL     1      33.261 -20.126 -20.579  0.00  0.00    -0.080 S 
ATOM     17  N   UNL     1      35.559 -21.023 -19.804  0.00  0.00    -0.408 NA
ATOM     18  C   UNL     1      34.664 -19.279 -20.993  0.00  0.00    +0.111 C 
ATOM     19  C   UNL     1      35.782 -19.864 -20.522  0.00  0.00    +0.098 C 
ATOM     20  C   UNL     1      34.265 -21.258 -19.770  0.00  0.00    +0.134 C 
ATOM     21  C   UNL     1      37.177 -19.409 -20.689  0.00  0.00    +0.062 C 
ATOM     22  C   UNL     1      33.643 -22.414 -19.089  0.00  0.00    +0.074 C 
ENDBRANCH  15  18
ENDBRANCH  14  15
ENDBRANCH   6  13
BRANCH   4  23
ATOM     23  N   UNL     1      32.536 -13.794 -23.513  0.00  0.00    -0.334 N 
ATOM     24  H   UNL     1      31.795 -14.346 -23.854  0.00  0.00    +0.147 HD
BRANCH  23  26
ATOM     25  O   UNL     1      33.563 -15.465 -26.594  0.00  0.00    -0.354 OA
ATOM     26  C   UNL     1      33.740 -13.696 -24.313  0.00  0.00    +0.074 C 
ATOM     27  C   UNL     1      33.393 -13.205 -25.720  0.00  0.00    +0.052 C 
ATOM     28  C   UNL     1      34.451 -15.050 -24.368  0.00  0.00    +0.052 C 
ATOM     29  C   UNL     1      32.741 -14.299 -26.559  0.00  0.00    +0.144 C 
ATOM     30  C   UNL     1      33.745 -16.033 -25.298  0.00  0.00    +0.144 C 
ENDBRANCH  23  26
ENDBRANCH   4  23
BRANCH   1  31
ATOM     31  C   UNL     1      31.760  -8.820 -20.152  0.00  0.00    +0.118 C 
ATOM     32  C   UNL     1      32.586  -7.576 -20.437  0.00  0.00    +0.025 C 
ENDBRANCH   1  31
TORSDOF 6
ENDMDL
MODEL 5
REMARK VINA RESULT:      -9.5      2.990      7.896
REMARK  Name = 10252640
REMARK  6 active torsions:
REMARK  status: ('A' for Active; 'I' for Inactive)
REMARK    1  A    between atoms: N_1  and  C_31
REMARK    2  A    between atoms: C_4  and  N_23
REMARK    3  A    between atoms: C_6  and  C_13
REMARK    4  A    between atoms: C_14  and  C_15
REMARK    5  A    between atoms: C_15  and  C_18
REMARK    6  A    between atoms: N_23  and  C_26
REMARK                            x       y       z     vdW  Elec       q    Type
REMARK                         _______ _______ _______ _____ _____    ______ ____
ROOT
ATOM      1  N   UNL     1      34.551 -21.468 -19.647  0.00  0.00    -0.195 N 
ATOM      2  N   UNL     1      35.691 -22.172 -17.633  0.00  0.00    -0.227 NA
ATOM      3  N   UNL     1      33.320 -21.466 -20.190  0.00  0.00    -0.175 NA
ATOM      4  C   UNL     1      33.048 -23.066 -16.879  0.00  0.00    +0.055 C 
ATOM      5  C   UNL     1      33.305 -22.435 -18.118  0.00  0.00    +0.067 C 
ATOM      6  C   UNL     1      34.165 -23.228 -16.038  0.00  0.00    +0.087 C 
ATOM      7  C   UNL     1      34.600 -22.034 -18.407  0.00  0.00    +0.153 C 
ATOM      8  C   UNL     1      32.566 -22.054 -19.256  0.00  0.00    +0.122 C 
ATOM      9  C   UNL     1      35.414 -22.779 -16.453  0.00  0.00    +0.106 C 
ENDROOT
BRANCH   6  13
ATOM     10  O   UNL     1      35.193 -24.049 -14.066  0.00  0.00    -0.419 OA
ATOM     11  N   UNL     1      32.968 -24.278 -14.117  0.00  0.00    -0.107 NA
ATOM     12  N   UNL     1      33.423 -24.796 -12.919  0.00  0.00    -0.111 NA
ATOM     13  C   UNL     1      34.034 -23.858 -14.744  0.00  0.00    +0.252 A 
ATOM     14  C   UNL     1      34.726 -24.642 -12.933  0.00  0.00    +0.228 A 
BRANCH  14  15
ATOM     15  C   UNL     1      35.724 -25.011 -11.920  0.00  0.00    +0.105 C 
BRANCH  15  18
ATOM     16  S   UNL     1      37.759 -26.318 -13.273  0.00  0.00    -0.080 S 
ATOM     17  N   UNL     1      39.298 -24.277 -12.883  0.00  0.00    -0.408 NA
ATOM     18  C   UNL     1      37.163 -24.978 -12.431  0.00  0.00    +0.111 C 
ATOM     19  C   UNL     1      38.075 -23.995 -12.306  0.00  0.00    +0.098 C 
ATOM     20  C   UNL     1      39.246 -25.476 -13.422  0.00  0.00    +0.134 C 
ATOM     21  C   UNL     1      37.907 -22.689 -11.638  0.00  0.00    +0.062 C 
ATOM     22  C   UNL     1      40.371 -26.122 -14.132  0.00  0.00    +0.074 C 
ENDBRANCH  15  18
ENDBRANCH  14  15
ENDBRANCH   6  13
BRANCH   4  23
ATOM     23  N   UNL     1      31.783 -23.492 -16.519  0.00  0.00    -0.334 N 
ATOM     24  H   UNL     1      31.580 -24.453 -16.579  0.00  0.00    +0.147 HD
BRANCH  23  26
ATOM     25  O   UNL     1      28.385 -24.114 -15.335  0.00  0.00    -0.354 OA
ATOM     26  C   UNL     1      30.740 -22.599 -16.056  0.00  0.00    +0.074 C 
ATOM     27  C   UNL     1      30.376 -22.929 -14.607  0.00  0.00    +0.052 C 
ATOM     28  C   UNL     1      29.512 -22.704 -16.965  0.00  0.00    +0.052 C 
ATOM     29  C   UNL     1      29.543 -24.202 -14.506  0.00  0.00    +0.144 C 
ATOM     30  C   UNL     1      28.721 -23.984 -16.716  0.00  0.00    +0.144 C 
ENDBRANCH  23  26
ENDBRANCH   4  23
BRANCH   1  31
ATOM     31  C   UNL     1      35.654 -20.900 -20.384  0.00  0.00    +0.118 C 
ATOM     32  C   UNL     1      35.289 -19.578 -21.037  0.00  0.00    +0.025 C 
ENDBRANCH   1  31
TORSDOF 6
ENDMDL
MODEL 6
REMARK VINA RESULT:      -9.3      7.229     13.001
REMARK  Name = 10252640
REMARK  6 active torsions:
REMARK  status: ('A' for Active; 'I' for Inactive)
REMARK    1  A    between atoms: N_1  and  C_31
REMARK    2  A    between atoms: C_4  and  N_23
REMARK    3  A    between atoms: C_6  and  C_13
REMARK    4  A    between atoms: C_14  and  C_15
REMARK    5  A    between atoms: C_15  and  C_18
REMARK    6  A    between atoms: N_23  and  C_26
REMARK                            x       y       z     vdW  Elec       q    Type
REMARK                         _______ _______ _______ _____ _____    ______ ____
ROOT
ATOM      1  N   UNL     1      31.823  -8.454 -21.623  0.00  0.00    -0.195 N 
ATOM      2  N   UNL     1      31.964 -10.286 -20.050  0.00  0.00    -0.227 NA
ATOM      3  N   UNL     1      31.872  -8.224 -22.948  0.00  0.00    -0.175 NA
ATOM      4  C   UNL     1      32.312 -11.851 -22.454  0.00  0.00    +0.055 C 
ATOM      5  C   UNL     1      32.132 -10.449 -22.488  0.00  0.00    +0.067 C 
ATOM      6  C   UNL     1      32.310 -12.432 -21.172  0.00  0.00    +0.087 C 
ATOM      7  C   UNL     1      31.972  -9.768 -21.291  0.00  0.00    +0.153 C 
ATOM      8  C   UNL     1      32.059  -9.440 -23.469  0.00  0.00    +0.122 C 
ATOM      9  C   UNL     1      32.138 -11.630 -20.050  0.00  0.00    +0.106 C 
ENDROOT
BRANCH   6  13
ATOM     10  O   UNL     1      33.763 -14.302 -21.069  0.00  0.00    -0.419 OA
ATOM     11  N   UNL     1      31.597 -14.794 -20.798  0.00  0.00    -0.107 NA
ATOM     12  N   UNL     1      32.316 -15.972 -20.715  0.00  0.00    -0.111 NA
ATOM     13  C   UNL     1      32.483 -13.857 -21.004  0.00  0.00    +0.252 A 
ATOM     14  C   UNL     1      33.574 -15.637 -20.880  0.00  0.00    +0.228 A 
BRANCH  14  15
ATOM     15  C   UNL     1      34.775 -16.482 -20.887  0.00  0.00    +0.105 C 
BRANCH  15  18
ATOM     16  S   UNL     1      35.225 -17.426 -23.453  0.00  0.00    -0.080 S 
ATOM     17  N   UNL     1      34.315 -19.738 -22.737  0.00  0.00    -0.408 NA
ATOM     18  C   UNL     1      34.699 -17.655 -21.862  0.00  0.00    +0.111 C 
ATOM     19  C   UNL     1      34.254 -18.905 -21.637  0.00  0.00    +0.098 C 
ATOM     20  C   UNL     1      34.811 -19.064 -23.752  0.00  0.00    +0.134 C 
ATOM     21  C   UNL     1      33.725 -19.461 -20.374  0.00  0.00    +0.062 C 
ATOM     22  C   UNL     1      35.027 -19.626 -25.103  0.00  0.00    +0.074 C 
ENDBRANCH  15  18
ENDBRANCH  14  15
ENDBRANCH   6  13
BRANCH   4  23
ATOM     23  N   UNL     1      32.477 -12.599 -23.605  0.00  0.00    -0.334 N 
ATOM     24  H   UNL     1      31.674 -12.956 -24.049  0.00  0.00    +0.147 HD
BRANCH  23  26
ATOM     25  O   UNL     1      33.428 -13.959 -26.858  0.00  0.00    -0.354 OA
ATOM     26  C   UNL     1      33.769 -12.884 -24.196  0.00  0.00    +0.074 C 
ATOM     27  C   UNL     1      33.961 -12.045 -25.460  0.00  0.00    +0.052 C 
ATOM     28  C   UNL     1      33.890 -14.378 -24.507  0.00  0.00    +0.052 C 
ATOM     29  C   UNL     1      33.139 -12.581 -26.628  0.00  0.00    +0.144 C 
ATOM     30  C   UNL     1      33.083 -14.775 -25.740  0.00  0.00    +0.144 C 
ENDBRANCH  23  26
ENDBRANCH   4  23
BRANCH   1  31
ATOM     31  C   UNL     1      31.627  -7.348 -20.716  0.00  0.00    +0.118 C 
ATOM     32  C   UNL     1      31.514  -6.020 -21.444  0.00  0.00    +0.025 C 
ENDBRANCH   1  31
TORSDOF 6
ENDMDL
MODEL 7
REMARK VINA RESULT:      -9.3      8.099     12.595
REMARK  Name = 10252640
REMARK  6 active torsions:
REMARK  status: ('A' for Active; 'I' for Inactive)
REMARK    1  A    between atoms: N_1  and  C_31
REMARK    2  A    between atoms: C_4  and  N_23
REMARK    3  A    between atoms: C_6  and  C_13
REMARK    4  A    between atoms: C_14  and  C_15
REMARK    5  A    between atoms: C_15  and  C_18
REMARK    6  A    between atoms: N_23  and  C_26
REMARK                            x       y       z     vdW  Elec       q    Type
REMARK                         _______ _______ _______ _____ _____    ______ ____
ROOT
ATOM      1  N   UNL     1      34.774 -18.108 -22.779  0.00  0.00    -0.195 N 
ATOM      2  N   UNL     1      33.463 -16.998 -21.076  0.00  0.00    -0.227 NA
ATOM      3  N   UNL     1      35.389 -17.842 -23.946  0.00  0.00    -0.175 NA
ATOM      4  C   UNL     1      33.838 -14.703 -22.791  0.00  0.00    +0.055 C 
ATOM      5  C   UNL     1      34.375 -15.973 -23.104  0.00  0.00    +0.067 C 
ATOM      6  C   UNL     1      33.110 -14.632 -21.588  0.00  0.00    +0.087 C 
ATOM      7  C   UNL     1      34.152 -17.026 -22.230  0.00  0.00    +0.153 C 
ATOM      8  C   UNL     1      35.144 -16.543 -24.139  0.00  0.00    +0.122 C 
ATOM      9  C   UNL     1      32.962 -15.769 -20.802  0.00  0.00    +0.106 C 
ENDROOT
BRANCH   6  13
ATOM     10  O   UNL     1      32.096 -12.564 -22.149  0.00  0.00    -0.419 OA
ATOM     11  N   UNL     1      32.307 -12.929 -19.952  0.00  0.00    -0.107 NA
ATOM     12  N   UNL     1      31.705 -11.697 -20.123  0.00  0.00    -0.111 NA
ATOM     13  C   UNL     1      32.512 -13.390 -21.156  0.00  0.00    +0.252 A 
ATOM     14  C   UNL     1      31.603 -11.525 -21.421  0.00  0.00    +0.228 A 
BRANCH  14  15
ATOM     15  C   UNL     1      31.043 -10.396 -22.175  0.00  0.00    +0.105 C 
BRANCH  15  18
ATOM     16  S   UNL     1      32.683  -9.040 -23.951  0.00  0.00    -0.080 S 
ATOM     17  N   UNL     1      33.387  -7.442 -22.044  0.00  0.00    -0.408 NA
ATOM     18  C   UNL     1      32.033  -9.256 -22.404  0.00  0.00    +0.111 C 
ATOM     19  C   UNL     1      32.491  -8.351 -21.518  0.00  0.00    +0.098 C 
ATOM     20  C   UNL     1      33.564  -7.710 -23.320  0.00  0.00    +0.134 C 
ATOM     21  C   UNL     1      32.143  -8.235 -20.087  0.00  0.00    +0.062 C 
ATOM     22  C   UNL     1      34.457  -6.948 -24.219  0.00  0.00    +0.074 C 
ENDBRANCH  15  18
ENDBRANCH  14  15
ENDBRANCH   6  13
BRANCH   4  23
ATOM     23  N   UNL     1      34.019 -13.605 -23.612  0.00  0.00    -0.334 N 
ATOM     24  H   UNL     1      34.900 -13.164 -23.614  0.00  0.00    +0.147 HD
BRANCH  23  26
ATOM     25  O   UNL     1      33.769 -13.306 -27.243  0.00  0.00    -0.354 OA
ATOM     26  C   UNL     1      32.982 -13.069 -24.471  0.00  0.00    +0.074 C 
ATOM     27  C   UNL     1      32.450 -14.167 -25.393  0.00  0.00    +0.052 C 
ATOM     28  C   UNL     1      33.525 -11.889 -25.281  0.00  0.00    +0.052 C 
ATOM     29  C   UNL     1      33.429 -14.488 -26.518  0.00  0.00    +0.144 C 
ATOM     30  C   UNL     1      34.430 -12.345 -26.423  0.00  0.00    +0.144 C 
ENDBRANCH  23  26
ENDBRANCH   4  23
BRANCH   1  31
ATOM     31  C   UNL     1      34.823 -19.445 -22.237  0.00  0.00    +0.118 C 
ATOM     32  C   UNL     1      35.793 -19.559 -21.074  0.00  0.00    +0.025 C 
ENDBRANCH   1  31
TORSDOF 6
ENDMDL
MODEL 8
REMARK VINA RESULT:      -8.8      2.750      6.614
REMARK  Name = 10252640
REMARK  6 active torsions:
REMARK  status: ('A' for Active; 'I' for Inactive)
REMARK    1  A    between atoms: N_1  and  C_31
REMARK    2  A    between atoms: C_4  and  N_23
REMARK    3  A    between atoms: C_6  and  C_13
REMARK    4  A    between atoms: C_14  and  C_15
REMARK    5  A    between atoms: C_15  and  C_18
REMARK    6  A    between atoms: N_23  and  C_26
REMARK                            x       y       z     vdW  Elec       q    Type
REMARK                         _______ _______ _______ _____ _____    ______ ____
ROOT
ATOM      1  N   UNL     1      35.275 -20.858 -20.235  0.00  0.00    -0.195 N 
ATOM      2  N   UNL     1      33.149 -21.474 -19.258  0.00  0.00    -0.227 NA
ATOM      3  N   UNL     1      36.594 -21.005 -20.014  0.00  0.00    -0.175 NA
ATOM      4  C   UNL     1      34.833 -22.741 -17.280  0.00  0.00    +0.055 C 
ATOM      5  C   UNL     1      35.366 -22.039 -18.385  0.00  0.00    +0.067 C 
ATOM      6  C   UNL     1      33.427 -22.782 -17.209  0.00  0.00    +0.087 C 
ATOM      7  C   UNL     1      34.493 -21.458 -19.292  0.00  0.00    +0.153 C 
ATOM      8  C   UNL     1      36.644 -21.724 -18.889  0.00  0.00    +0.122 C 
ATOM      9  C   UNL     1      32.667 -22.154 -18.190  0.00  0.00    +0.106 C 
ENDROOT
BRANCH   6  13
ATOM     10  O   UNL     1      31.427 -23.237 -16.022  0.00  0.00    -0.419 OA
ATOM     11  N   UNL     1      33.237 -24.285 -15.227  0.00  0.00    -0.107 NA
ATOM     12  N   UNL     1      32.158 -24.643 -14.442  0.00  0.00    -0.111 NA
ATOM     13  C   UNL     1      32.759 -23.469 -16.128  0.00  0.00    +0.252 A 
ATOM     14  C   UNL     1      31.123 -24.008 -14.941  0.00  0.00    +0.228 A 
BRANCH  14  15
ATOM     15  C   UNL     1      29.720 -24.014 -14.507  0.00  0.00    +0.105 C 
BRANCH  15  18
ATOM     16  S   UNL     1      28.041 -22.025 -15.457  0.00  0.00    -0.080 S 
ATOM     17  N   UNL     1      27.421 -23.537 -17.460  0.00  0.00    -0.408 NA
ATOM     18  C   UNL     1      28.738 -23.560 -15.585  0.00  0.00    +0.111 C 
ATOM     19  C   UNL     1      28.322 -24.231 -16.676  0.00  0.00    +0.098 C 
ATOM     20  C   UNL     1      27.199 -22.361 -16.913  0.00  0.00    +0.134 C 
ATOM     21  C   UNL     1      28.718 -25.587 -17.107  0.00  0.00    +0.062 C 
ATOM     22  C   UNL     1      26.287 -21.339 -17.469  0.00  0.00    +0.074 C 
ENDBRANCH  15  18
ENDBRANCH  14  15
ENDBRANCH   6  13
BRANCH   4  23
ATOM     23  N   UNL     1      35.639 -23.348 -16.335  0.00  0.00    -0.334 N 
ATOM     24  H   UNL     1      35.605 -24.328 -16.253  0.00  0.00    +0.147 HD
BRANCH  23  26
ATOM     25  O   UNL     1      37.912 -24.451 -13.699  0.00  0.00    -0.354 OA
ATOM     26  C   UNL     1      36.533 -22.618 -15.459  0.00  0.00    +0.074 C 
ATOM     27  C   UNL     1      37.976 -23.068 -15.695  0.00  0.00    +0.052 C 
ATOM     28  C   UNL     1      36.127 -22.826 -13.997  0.00  0.00    +0.052 C 
ATOM     29  C   UNL     1      38.251 -24.439 -15.085  0.00  0.00    +0.144 C 
ATOM     30  C   UNL     1      36.523 -24.207 -13.483  0.00  0.00    +0.144 C 
ENDBRANCH  23  26
ENDBRANCH   4  23
BRANCH   1  31
ATOM     31  C   UNL     1      34.824 -20.118 -21.390  0.00  0.00    +0.118 C 
ATOM     32  C   UNL     1      34.971 -18.617 -21.204  0.00  0.00    +0.025 C 
ENDBRANCH   1  31
TORSDOF 6
ENDMDL
MODEL 9
REMARK VINA RESULT:      -8.8     11.815     15.655
REMARK  Name = 10252640
REMARK  6 active torsions:
REMARK  status: ('A' for Active; 'I' for Inactive)
REMARK    1  A    between atoms: N_1  and  C_31
REMARK    2  A    between atoms: C_4  and  N_23
REMARK    3  A    between atoms: C_6  and  C_13
REMARK    4  A    between atoms: C_14  and  C_15
REMARK    5  A    between atoms: C_15  and  C_18
REMARK    6  A    between atoms: N_23  and  C_26
REMARK                            x       y       z     vdW  Elec       q    Type
REMARK                         _______ _______ _______ _____ _____    ______ ____
ROOT
ATOM      1  N   UNL     1      33.261 -14.450 -24.760  0.00  0.00    -0.195 N 
ATOM      2  N   UNL     1      33.988 -12.371 -25.760  0.00  0.00    -0.227 NA
ATOM      3  N   UNL     1      32.762 -14.920 -23.602  0.00  0.00    -0.175 NA
ATOM      4  C   UNL     1      33.256 -11.291 -23.182  0.00  0.00    +0.055 C 
ATOM      5  C   UNL     1      33.121 -12.664 -23.488  0.00  0.00    +0.067 C 
ATOM      6  C   UNL     1      33.769 -10.485 -24.216  0.00  0.00    +0.087 C 
ATOM      7  C   UNL     1      33.494 -13.106 -24.748  0.00  0.00    +0.153 C 
ATOM      8  C   UNL     1      32.678 -13.830 -22.833  0.00  0.00    +0.122 C 
ATOM      9  C   UNL     1      34.105 -11.060 -25.437  0.00  0.00    +0.106 C 
ENDROOT
BRANCH   6  13
ATOM     10  O   UNL     1      32.841  -8.304 -24.186  0.00  0.00    -0.419 OA
ATOM     11  N   UNL     1      35.029  -8.388 -23.729  0.00  0.00    -0.107 NA
ATOM     12  N   UNL     1      34.633  -7.065 -23.676  0.00  0.00    -0.111 NA
ATOM     13  C   UNL     1      33.953  -9.065 -24.028  0.00  0.00    +0.252 A 
ATOM     14  C   UNL     1      33.349  -7.064 -23.949  0.00  0.00    +0.228 A 
BRANCH  14  15
ATOM     15  C   UNL     1      32.410  -5.938 -24.033  0.00  0.00    +0.105 C 
BRANCH  15  18
ATOM     16  S   UNL     1      33.828  -5.461 -26.365  0.00  0.00    -0.080 S 
ATOM     17  N   UNL     1      32.318  -3.417 -26.838  0.00  0.00    -0.408 NA
ATOM     18  C   UNL     1      32.597  -5.069 -25.275  0.00  0.00    +0.111 C 
ATOM     19  C   UNL     1      31.895  -3.983 -25.652  0.00  0.00    +0.098 C 
ATOM     20  C   UNL     1      33.332  -4.113 -27.304  0.00  0.00    +0.134 C 
ATOM     21  C   UNL     1      30.755  -3.357 -24.951  0.00  0.00    +0.062 C 
ATOM     22  C   UNL     1      34.051  -3.807 -28.559  0.00  0.00    +0.074 C 
ENDBRANCH  15  18
ENDBRANCH  14  15
ENDBRANCH   6  13
BRANCH   4  23
ATOM     23  N   UNL     1      32.904 -10.774 -21.948  0.00  0.00    -0.334 N 
ATOM     24  H   UNL     1      33.587 -10.753 -21.239  0.00  0.00    +0.147 HD
BRANCH  23  26
ATOM     25  O   UNL     1      31.480  -9.362 -18.896  0.00  0.00    -0.354 OA
ATOM     26  C   UNL     1      31.584 -10.261 -21.642  0.00  0.00    +0.074 C 
ATOM     27  C   UNL     1      31.677  -8.786 -21.248  0.00  0.00    +0.052 C 
ATOM     28  C   UNL     1      30.942 -11.086 -20.525  0.00  0.00    +0.052 C 
ATOM     29  C   UNL     1      32.239  -8.608 -19.841  0.00  0.00    +0.144 C 
ATOM     30  C   UNL     1      31.537 -10.764 -19.157  0.00  0.00    +0.144 C 
ENDBRANCH  23  26
ENDBRANCH   4  23
BRANCH   1  31
ATOM     31  C   UNL     1      33.494 -15.360 -25.855  0.00  0.00    +0.118 C 
ATOM     32  C   UNL     1      34.210 -16.624 -25.410  0.00  0.00    +0.025 C 
ENDBRANCH   1  31
TORSDOF 6
ENDMDL
