MODEL 1
REMARK VINA RESULT:     -13.0      0.000      0.000
REMARK  Name = 9800765
REMARK  5 active torsions:
REMARK  status: ('A' for Active; 'I' for Inactive)
REMARK    1  A    between atoms: C_3  and  C_17
REMARK    2  A    between atoms: C_5  and  N_8
REMARK    3  A    between atoms: N_8  and  C_14
REMARK    4  A    between atoms: C_17  and  C_20
REMARK    5  A    between atoms: C_23  and  C_26
REMARK                            x       y       z     vdW  Elec       q    Type
REMARK                         _______ _______ _______ _____ _____    ______ ____
ROOT
ATOM      1  O   UNL     1      37.487 -22.038 -16.769  0.00  0.00    -0.337 OA
ATOM      2  N   UNL     1      36.713 -22.078 -17.922  0.00  0.00    -0.079 NA
ATOM      3  C   UNL     1      35.503 -22.469 -17.512  0.00  0.00    +0.106 C 
ATOM      4  C   UNL     1      35.455 -22.688 -16.125  0.00  0.00    +0.076 C 
ATOM      5  C   UNL     1      36.723 -22.402 -15.715  0.00  0.00    +0.252 C 
ENDROOT
BRANCH   3   6
ATOM      6  C   UNL     1      34.411 -22.621 -18.487  0.00  0.00    +0.066 C 
ATOM      7  C   UNL     1      33.023 -22.849 -17.840  0.00  0.00    +0.011 C 
BRANCH   6   9
ATOM      8  F   UNL     1      36.989 -19.389 -21.043  0.00  0.00    -0.204 F 
ATOM      9  C   UNL     1      34.485 -21.430 -19.448  0.00  0.00    -0.015 C 
ATOM     10  C   UNL     1      35.722 -20.952 -19.807  0.00  0.00    +0.026 C 
ATOM     11  C   UNL     1      33.310 -20.886 -19.911  0.00  0.00    -0.004 C 
ATOM     12  C   UNL     1      34.617 -19.292 -21.170  0.00  0.00    +0.027 C 
ATOM     13  C   UNL     1      35.789 -19.867 -20.682  0.00  0.00    +0.140 C 
ATOM     14  C   UNL     1      33.377 -19.801 -20.785  0.00  0.00    +0.002 C 
BRANCH  12  15
ATOM     15  C   UNL     1      34.681 -18.167 -22.079  0.00  0.00    +0.002 C 
ATOM     16  C   UNL     1      34.819 -18.387 -23.450  0.00  0.00    +0.000 C 
ATOM     17  C   UNL     1      34.604 -16.866 -21.585  0.00  0.00    +0.000 C 
ATOM     18  C   UNL     1      34.880 -17.304 -24.326  0.00  0.00    +0.000 C 
ATOM     19  C   UNL     1      34.665 -15.783 -22.462  0.00  0.00    +0.000 C 
ATOM     20  C   UNL     1      34.804 -16.001 -23.833  0.00  0.00    +0.000 C 
ENDBRANCH  12  15
ENDBRANCH   6   9
ENDBRANCH   3   6
BRANCH   5  21
ATOM     21  N   UNL     1      37.254 -22.444 -14.461  0.00  0.00    -0.147 NA
BRANCH  21  29
ATOM     22  O   UNL     1      38.586 -27.075 -14.461  0.00  0.00    -0.350 OA
ATOM     23  N   UNL     1      37.476 -24.615 -13.711  0.00  0.00    -0.277 N 
ATOM     24  N   UNL     1      35.846 -23.388 -12.737  0.00  0.00    -0.373 N 
ATOM     25  C   UNL     1      36.776 -25.858 -13.400  0.00  0.00    +0.125 C 
ATOM     26  C   UNL     1      38.922 -24.745 -13.876  0.00  0.00    +0.125 C 
ATOM     27  C   UNL     1      37.165 -26.924 -14.417  0.00  0.00    +0.164 C 
ATOM     28  C   UNL     1      39.216 -25.859 -14.872  0.00  0.00    +0.164 C 
ATOM     29  C   UNL     1      36.862 -23.411 -13.670  0.00  0.00    +0.182 C 
ATOM     30  H   UNL     1      35.649 -24.191 -12.203  0.00  0.00    +0.158 HD
ATOM     31  H   UNL     1      35.315 -22.568 -12.606  0.00  0.00    +0.158 HD
ENDBRANCH  21  29
ENDBRANCH   5  21
TORSDOF 5
ENDMDL
MODEL 2
REMARK VINA RESULT:     -12.8      1.280      1.988
REMARK  Name = 9800765
REMARK  5 active torsions:
REMARK  status: ('A' for Active; 'I' for Inactive)
REMARK    1  A    between atoms: C_3  and  C_17
REMARK    2  A    between atoms: C_5  and  N_8
REMARK    3  A    between atoms: N_8  and  C_14
REMARK    4  A    between atoms: C_17  and  C_20
REMARK    5  A    between atoms: C_23  and  C_26
REMARK                            x       y       z     vdW  Elec       q    Type
REMARK                         _______ _______ _______ _____ _____    ______ ____
ROOT
ATOM      1  O   UNL     1      37.396 -21.225 -16.994  0.00  0.00    -0.337 OA
ATOM      2  N   UNL     1      36.644 -21.106 -18.157  0.00  0.00    -0.079 NA
ATOM      3  C   UNL     1      35.709 -22.056 -18.062  0.00  0.00    +0.106 C 
ATOM      4  C   UNL     1      35.820 -22.797 -16.873  0.00  0.00    +0.076 C 
ATOM      5  C   UNL     1      36.891 -22.232 -16.247  0.00  0.00    +0.252 C 
ENDROOT
BRANCH   3   6
ATOM      6  C   UNL     1      34.720 -22.222 -19.139  0.00  0.00    +0.066 C 
ATOM      7  C   UNL     1      33.338 -22.719 -18.646  0.00  0.00    +0.011 C 
BRANCH   6   9
ATOM      8  F   UNL     1      36.996 -18.631 -21.494  0.00  0.00    -0.204 F 
ATOM      9  C   UNL     1      34.685 -20.913 -19.935  0.00  0.00    -0.015 C 
ATOM     10  C   UNL     1      35.875 -20.368 -20.353  0.00  0.00    +0.026 C 
ATOM     11  C   UNL     1      33.464 -20.336 -20.199  0.00  0.00    -0.004 C 
ATOM     12  C   UNL     1      34.623 -18.566 -21.363  0.00  0.00    +0.027 C 
ATOM     13  C   UNL     1      35.843 -19.176 -21.079  0.00  0.00    +0.140 C 
ATOM     14  C   UNL     1      33.433 -19.146 -20.923  0.00  0.00    +0.002 C 
BRANCH  12  15
ATOM     15  C   UNL     1      34.585 -17.330 -22.116  0.00  0.00    +0.002 C 
ATOM     16  C   UNL     1      34.503 -16.109 -21.447  0.00  0.00    +0.000 C 
ATOM     17  C   UNL     1      34.631 -17.361 -23.510  0.00  0.00    +0.000 C 
ATOM     18  C   UNL     1      34.468 -14.918 -22.172  0.00  0.00    +0.000 C 
ATOM     19  C   UNL     1      34.595 -16.169 -24.234  0.00  0.00    +0.000 C 
ATOM     20  C   UNL     1      34.513 -14.947 -23.566  0.00  0.00    +0.000 C 
ENDBRANCH  12  15
ENDBRANCH   6   9
ENDBRANCH   3   6
BRANCH   5  21
ATOM     21  N   UNL     1      37.457 -22.551 -15.049  0.00  0.00    -0.147 NA
BRANCH  21  29
ATOM     22  O   UNL     1      36.362 -25.795 -11.658  0.00  0.00    -0.350 OA
ATOM     23  N   UNL     1      37.358 -24.597 -13.985  0.00  0.00    -0.277 N 
ATOM     24  N   UNL     1      38.942 -24.382 -15.585  0.00  0.00    -0.373 N 
ATOM     25  C   UNL     1      38.126 -25.643 -13.315  0.00  0.00    +0.125 C 
ATOM     26  C   UNL     1      35.919 -24.635 -13.742  0.00  0.00    +0.125 C 
ATOM     27  C   UNL     1      37.773 -25.655 -11.832  0.00  0.00    +0.164 C 
ATOM     28  C   UNL     1      35.663 -24.692 -12.241  0.00  0.00    +0.164 C 
ATOM     29  C   UNL     1      37.912 -23.770 -14.901  0.00  0.00    +0.182 C 
ATOM     30  H   UNL     1      39.188 -25.313 -15.375  0.00  0.00    +0.158 HD
ATOM     31  H   UNL     1      39.432 -23.890 -16.282  0.00  0.00    +0.158 HD
ENDBRANCH  21  29
ENDBRANCH   5  21
TORSDOF 5
ENDMDL
MODEL 3
REMARK VINA RESULT:     -12.5      3.413      6.459
REMARK  Name = 9800765
REMARK  5 active torsions:
REMARK  status: ('A' for Active; 'I' for Inactive)
REMARK    1  A    between atoms: C_3  and  C_17
REMARK    2  A    between atoms: C_5  and  N_8
REMARK    3  A    between atoms: N_8  and  C_14
REMARK    4  A    between atoms: C_17  and  C_20
REMARK    5  A    between atoms: C_23  and  C_26
REMARK                            x       y       z     vdW  Elec       q    Type
REMARK                         _______ _______ _______ _____ _____    ______ ____
ROOT
ATOM      1  O   UNL     1      36.094 -19.045 -20.725  0.00  0.00    -0.337 OA
ATOM      2  N   UNL     1      36.317 -18.310 -21.883  0.00  0.00    -0.079 NA
ATOM      3  C   UNL     1      35.261 -18.562 -22.660  0.00  0.00    +0.106 C 
ATOM      4  C   UNL     1      34.347 -19.439 -22.052  0.00  0.00    +0.076 C 
ATOM      5  C   UNL     1      34.921 -19.707 -20.844  0.00  0.00    +0.252 C 
ENDROOT
BRANCH   3   6
ATOM      6  C   UNL     1      35.162 -17.937 -23.989  0.00  0.00    +0.066 C 
ATOM      7  C   UNL     1      34.388 -18.789 -25.024  0.00  0.00    +0.011 C 
BRANCH   6   9
ATOM      8  F   UNL     1      32.668 -14.087 -25.597  0.00  0.00    -0.204 F 
ATOM      9  C   UNL     1      34.618 -16.518 -23.789  0.00  0.00    -0.015 C 
ATOM     10  C   UNL     1      33.883 -15.948 -24.801  0.00  0.00    +0.026 C 
ATOM     11  C   UNL     1      34.887 -15.872 -22.605  0.00  0.00    -0.004 C 
ATOM     12  C   UNL     1      33.642 -13.974 -23.431  0.00  0.00    +0.027 C 
ATOM     13  C   UNL     1      33.387 -14.657 -24.619  0.00  0.00    +0.140 C 
ATOM     14  C   UNL     1      34.392 -14.581 -22.424  0.00  0.00    +0.002 C 
BRANCH  12  15
ATOM     15  C   UNL     1      33.129 -12.635 -23.237  0.00  0.00    +0.002 C 
ATOM     16  C   UNL     1      33.694 -11.565 -23.932  0.00  0.00    +0.000 C 
ATOM     17  C   UNL     1      32.069 -12.414 -22.357  0.00  0.00    +0.000 C 
ATOM     18  C   UNL     1      33.199 -10.274 -23.746  0.00  0.00    +0.000 C 
ATOM     19  C   UNL     1      31.575 -11.122 -22.172  0.00  0.00    +0.000 C 
ATOM     20  C   UNL     1      32.140 -10.052 -22.866  0.00  0.00    +0.000 C 
ENDBRANCH  12  15
ENDBRANCH   6   9
ENDBRANCH   3   6
BRANCH   5  21
ATOM     21  N   UNL     1      34.474 -20.504 -19.834  0.00  0.00    -0.147 NA
BRANCH  21  29
ATOM     22  O   UNL     1      33.807 -23.588 -16.192  0.00  0.00    -0.350 OA
ATOM     23  N   UNL     1      34.930 -22.226 -18.367  0.00  0.00    -0.277 N 
ATOM     24  N   UNL     1      36.707 -21.351 -19.457  0.00  0.00    -0.373 N 
ATOM     25  C   UNL     1      35.780 -22.678 -17.269  0.00  0.00    +0.125 C 
ATOM     26  C   UNL     1      33.689 -22.978 -18.536  0.00  0.00    +0.125 C 
ATOM     27  C   UNL     1      34.954 -22.758 -15.991  0.00  0.00    +0.164 C 
ATOM     28  C   UNL     1      32.955 -23.045 -17.203  0.00  0.00    +0.164 C 
ATOM     29  C   UNL     1      35.341 -21.303 -19.266  0.00  0.00    +0.182 C 
ATOM     30  H   UNL     1      37.252 -22.005 -18.962  0.00  0.00    +0.158 HD
ATOM     31  H   UNL     1      37.138 -20.730 -20.088  0.00  0.00    +0.158 HD
ENDBRANCH  21  29
ENDBRANCH   5  21
TORSDOF 5
ENDMDL
MODEL 4
REMARK VINA RESULT:     -12.3      3.152      6.046
REMARK  Name = 9800765
REMARK  5 active torsions:
REMARK  status: ('A' for Active; 'I' for Inactive)
REMARK    1  A    between atoms: C_3  and  C_17
REMARK    2  A    between atoms: C_5  and  N_8
REMARK    3  A    between atoms: N_8  and  C_14
REMARK    4  A    between atoms: C_17  and  C_20
REMARK    5  A    between atoms: C_23  and  C_26
REMARK                            x       y       z     vdW  Elec       q    Type
REMARK                         _______ _______ _______ _____ _____    ______ ____
ROOT
ATOM      1  O   UNL     1      36.084 -19.357 -20.452  0.00  0.00    -0.337 OA
ATOM      2  N   UNL     1      36.358 -18.614 -21.593  0.00  0.00    -0.079 NA
ATOM      3  C   UNL     1      35.342 -18.869 -22.423  0.00  0.00    +0.106 C 
ATOM      4  C   UNL     1      34.407 -19.757 -21.864  0.00  0.00    +0.076 C 
ATOM      5  C   UNL     1      34.924 -20.028 -20.632  0.00  0.00    +0.252 C 
ENDROOT
BRANCH   3   6
ATOM      6  C   UNL     1      35.303 -18.236 -23.751  0.00  0.00    +0.066 C 
ATOM      7  C   UNL     1      34.589 -19.090 -24.829  0.00  0.00    +0.011 C 
BRANCH   6   9
ATOM      8  F   UNL     1      34.480 -14.319 -20.994  0.00  0.00    -0.204 F 
ATOM      9  C   UNL     1      34.735 -16.825 -23.571  0.00  0.00    -0.015 C 
ATOM     10  C   UNL     1      34.871 -16.214 -22.347  0.00  0.00    +0.026 C 
ATOM     11  C   UNL     1      34.111 -16.226 -24.640  0.00  0.00    -0.004 C 
ATOM     12  C   UNL     1      33.716 -14.293 -23.246  0.00  0.00    +0.027 C 
ATOM     13  C   UNL     1      34.355 -14.929 -22.182  0.00  0.00    +0.140 C 
ATOM     14  C   UNL     1      33.594 -14.941 -24.475  0.00  0.00    +0.002 C 
BRANCH  12  15
ATOM     15  C   UNL     1      33.179 -12.959 -23.081  0.00  0.00    +0.002 C 
ATOM     16  C   UNL     1      33.700 -11.902 -23.828  0.00  0.00    +0.000 C 
ATOM     17  C   UNL     1      32.143 -12.731 -22.176  0.00  0.00    +0.000 C 
ATOM     18  C   UNL     1      33.182 -10.617 -23.670  0.00  0.00    +0.000 C 
ATOM     19  C   UNL     1      31.626 -11.445 -22.019  0.00  0.00    +0.000 C 
ATOM     20  C   UNL     1      32.146 -10.387 -22.765  0.00  0.00    +0.000 C 
ENDBRANCH  12  15
ENDBRANCH   6   9
ENDBRANCH   3   6
BRANCH   5  21
ATOM     21  N   UNL     1      34.434 -20.834 -19.649  0.00  0.00    -0.147 NA
BRANCH  21  29
ATOM     22  O   UNL     1      33.672 -23.702 -15.853  0.00  0.00    -0.350 OA
ATOM     23  N   UNL     1      34.855 -22.461 -18.067  0.00  0.00    -0.277 N 
ATOM     24  N   UNL     1      36.661 -21.633 -19.148  0.00  0.00    -0.373 N 
ATOM     25  C   UNL     1      35.672 -22.837 -16.916  0.00  0.00    +0.125 C 
ATOM     26  C   UNL     1      33.628 -23.235 -18.233  0.00  0.00    +0.125 C 
ATOM     27  C   UNL     1      34.804 -22.850 -15.664  0.00  0.00    +0.164 C 
ATOM     28  C   UNL     1      32.849 -23.230 -16.923  0.00  0.00    +0.164 C 
ATOM     29  C   UNL     1      35.289 -21.589 -19.005  0.00  0.00    +0.182 C 
ATOM     30  H   UNL     1      37.194 -22.251 -18.597  0.00  0.00    +0.158 HD
ATOM     31  H   UNL     1      37.108 -21.046 -19.801  0.00  0.00    +0.158 HD
ENDBRANCH  21  29
ENDBRANCH   5  21
TORSDOF 5
ENDMDL
MODEL 5
REMARK VINA RESULT:     -12.1      6.020      9.829
REMARK  Name = 9800765
REMARK  5 active torsions:
REMARK  status: ('A' for Active; 'I' for Inactive)
REMARK    1  A    between atoms: C_3  and  C_17
REMARK    2  A    between atoms: C_5  and  N_8
REMARK    3  A    between atoms: N_8  and  C_14
REMARK    4  A    between atoms: C_17  and  C_20
REMARK    5  A    between atoms: C_23  and  C_26
REMARK                            x       y       z     vdW  Elec       q    Type
REMARK                         _______ _______ _______ _____ _____    ______ ____
ROOT
ATOM      1  O   UNL     1      34.884 -15.155 -21.208  0.00  0.00    -0.337 OA
ATOM      2  N   UNL     1      34.819 -14.110 -22.121  0.00  0.00    -0.079 NA
ATOM      3  C   UNL     1      34.052 -14.567 -23.115  0.00  0.00    +0.106 C 
ATOM      4  C   UNL     1      33.609 -15.880 -22.886  0.00  0.00    +0.076 C 
ATOM      5  C   UNL     1      34.160 -16.195 -21.679  0.00  0.00    +0.252 C 
ENDROOT
BRANCH   3   6
ATOM      6  C   UNL     1      33.765 -13.707 -24.275  0.00  0.00    +0.066 C 
ATOM      7  C   UNL     1      32.780 -14.337 -25.290  0.00  0.00    +0.011 C 
BRANCH   6   9
ATOM      8  F   UNL     1      30.950 -10.955 -21.424  0.00  0.00    -0.204 F 
ATOM      9  C   UNL     1      33.343 -12.337 -23.736  0.00  0.00    -0.015 C 
ATOM     10  C   UNL     1      32.325 -12.278 -22.815  0.00  0.00    +0.026 C 
ATOM     11  C   UNL     1      33.999 -11.219 -24.197  0.00  0.00    -0.004 C 
ATOM     12  C   UNL     1      32.586  -9.877 -22.771  0.00  0.00    +0.027 C 
ATOM     13  C   UNL     1      31.941 -11.030 -22.324  0.00  0.00    +0.140 C 
ATOM     14  C   UNL     1      33.615  -9.971 -23.708  0.00  0.00    +0.002 C 
BRANCH  12  15
ATOM     15  C   UNL     1      32.192  -8.580 -22.264  0.00  0.00    +0.002 C 
ATOM     16  C   UNL     1      32.654  -8.149 -21.020  0.00  0.00    +0.000 C 
ATOM     17  C   UNL     1      31.352  -7.761 -23.018  0.00  0.00    +0.000 C 
ATOM     18  C   UNL     1      32.276  -6.898 -20.532  0.00  0.00    +0.000 C 
ATOM     19  C   UNL     1      30.974  -6.511 -22.529  0.00  0.00    +0.000 C 
ATOM     20  C   UNL     1      31.435  -6.079 -21.285  0.00  0.00    +0.000 C 
ENDBRANCH  12  15
ENDBRANCH   6   9
ENDBRANCH   3   6
BRANCH   5  21
ATOM     21  N   UNL     1      34.065 -17.349 -20.962  0.00  0.00    -0.147 NA
BRANCH  21  29
ATOM     22  O   UNL     1      34.058 -21.922 -19.442  0.00  0.00    -0.350 OA
ATOM     23  N   UNL     1      34.640 -19.582 -20.867  0.00  0.00    -0.277 N 
ATOM     24  N   UNL     1      36.091 -18.226 -21.948  0.00  0.00    -0.373 N 
ATOM     25  C   UNL     1      35.702 -20.540 -20.569  0.00  0.00    +0.125 C 
ATOM     26  C   UNL     1      33.293 -20.146 -20.906  0.00  0.00    +0.125 C 
ATOM     27  C   UNL     1      35.344 -21.312 -19.305  0.00  0.00    +0.164 C 
ATOM     28  C   UNL     1      33.041 -20.935 -19.627  0.00  0.00    +0.164 C 
ATOM     29  C   UNL     1      34.901 -18.314 -21.255  0.00  0.00    +0.182 C 
ATOM     30  H   UNL     1      36.632 -19.034 -22.102  0.00  0.00    +0.158 HD
ATOM     31  H   UNL     1      36.400 -17.355 -22.288  0.00  0.00    +0.158 HD
ENDBRANCH  21  29
ENDBRANCH   5  21
TORSDOF 5
ENDMDL
MODEL 6
REMARK VINA RESULT:     -11.9      5.349     11.023
REMARK  Name = 9800765
REMARK  5 active torsions:
REMARK  status: ('A' for Active; 'I' for Inactive)
REMARK    1  A    between atoms: C_3  and  C_17
REMARK    2  A    between atoms: C_5  and  N_8
REMARK    3  A    between atoms: N_8  and  C_14
REMARK    4  A    between atoms: C_17  and  C_20
REMARK    5  A    between atoms: C_23  and  C_26
REMARK                            x       y       z     vdW  Elec       q    Type
REMARK                         _______ _______ _______ _____ _____    ______ ____
ROOT
ATOM      1  O   UNL     1      34.601 -15.698 -21.159  0.00  0.00    -0.337 OA
ATOM      2  N   UNL     1      34.600 -17.086 -21.222  0.00  0.00    -0.079 NA
ATOM      3  C   UNL     1      34.408 -17.374 -22.512  0.00  0.00    +0.106 C 
ATOM      4  C   UNL     1      34.283 -16.219 -23.303  0.00  0.00    +0.076 C 
ATOM      5  C   UNL     1      34.413 -15.203 -22.403  0.00  0.00    +0.252 C 
ENDROOT
BRANCH   3   6
ATOM      6  C   UNL     1      34.352 -18.777 -22.951  0.00  0.00    +0.066 C 
ATOM      7  C   UNL     1      35.376 -19.127 -24.059  0.00  0.00    +0.011 C 
BRANCH   6   9
ATOM      8  F   UNL     1      36.942 -21.385 -19.771  0.00  0.00    -0.204 F 
ATOM      9  C   UNL     1      34.437 -19.654 -21.698  0.00  0.00    -0.015 C 
ATOM     10  C   UNL     1      35.669 -20.122 -21.307  0.00  0.00    +0.026 C 
ATOM     11  C   UNL     1      33.279 -19.937 -21.013  0.00  0.00    -0.004 C 
ATOM     12  C   UNL     1      34.591 -21.227 -19.449  0.00  0.00    +0.027 C 
ATOM     13  C   UNL     1      35.747 -20.920 -20.165  0.00  0.00    +0.140 C 
ATOM     14  C   UNL     1      33.357 -20.735 -19.873  0.00  0.00    +0.002 C 
BRANCH  12  15
ATOM     15  C   UNL     1      34.667 -22.053 -18.263  0.00  0.00    +0.002 C 
ATOM     16  C   UNL     1      33.580 -22.846 -17.896  0.00  0.00    +0.000 C 
ATOM     17  C   UNL     1      35.826 -22.056 -17.488  0.00  0.00    +0.000 C 
ATOM     18  C   UNL     1      33.653 -23.644 -16.754  0.00  0.00    +0.000 C 
ATOM     19  C   UNL     1      35.899 -22.854 -16.346  0.00  0.00    +0.000 C 
ATOM     20  C   UNL     1      34.812 -23.647 -15.978  0.00  0.00    +0.000 C 
ENDBRANCH  12  15
ENDBRANCH   6   9
ENDBRANCH   3   6
BRANCH   5  21
ATOM     21  N   UNL     1      34.374 -13.857 -22.610  0.00  0.00    -0.147 NA
BRANCH  21  29
ATOM     22  O   UNL     1      33.214  -9.350 -23.860  0.00  0.00    -0.350 OA
ATOM     23  N   UNL     1      33.039 -12.053 -23.146  0.00  0.00    -0.277 N 
ATOM     24  N   UNL     1      32.021 -13.757 -22.064  0.00  0.00    -0.373 N 
ATOM     25  C   UNL     1      32.048 -11.100 -22.653  0.00  0.00    +0.125 C 
ATOM     26  C   UNL     1      33.700 -11.667 -24.390  0.00  0.00    +0.125 C 
ATOM     27  C   UNL     1      32.672  -9.712 -22.588  0.00  0.00    +0.164 C 
ATOM     28  C   UNL     1      34.252 -10.253 -24.249  0.00  0.00    +0.164 C 
ATOM     29  C   UNL     1      33.200 -13.277 -22.595  0.00  0.00    +0.182 C 
ATOM     30  H   UNL     1      31.200 -13.216 -22.118  0.00  0.00    +0.158 HD
ATOM     31  H   UNL     1      31.999 -14.641 -21.631  0.00  0.00    +0.158 HD
ENDBRANCH  21  29
ENDBRANCH   5  21
TORSDOF 5
ENDMDL
MODEL 7
REMARK VINA RESULT:     -11.8      3.213      4.433
REMARK  Name = 9800765
REMARK  5 active torsions:
REMARK  status: ('A' for Active; 'I' for Inactive)
REMARK    1  A    between atoms: C_3  and  C_17
REMARK    2  A    between atoms: C_5  and  N_8
REMARK    3  A    between atoms: N_8  and  C_14
REMARK    4  A    between atoms: C_17  and  C_20
REMARK    5  A    between atoms: C_23  and  C_26
REMARK                            x       y       z     vdW  Elec       q    Type
REMARK                         _______ _______ _______ _____ _____    ______ ____
ROOT
ATOM      1  O   UNL     1      32.780 -21.499 -19.332  0.00  0.00    -0.337 OA
ATOM      2  N   UNL     1      33.620 -20.591 -19.965  0.00  0.00    -0.079 NA
ATOM      3  C   UNL     1      34.857 -20.991 -19.655  0.00  0.00    +0.106 C 
ATOM      4  C   UNL     1      34.859 -22.135 -18.838  0.00  0.00    +0.076 C 
ATOM      5  C   UNL     1      33.533 -22.406 -18.670  0.00  0.00    +0.252 C 
ENDROOT
BRANCH   3   6
ATOM      6  C   UNL     1      36.019 -20.246 -20.166  0.00  0.00    +0.066 C 
ATOM      7  C   UNL     1      37.134 -21.150 -20.748  0.00  0.00    +0.011 C 
BRANCH   6   9
ATOM      8  F   UNL     1      34.995 -15.609 -21.205  0.00  0.00    -0.204 F 
ATOM      9  C   UNL     1      35.491 -19.177 -21.129  0.00  0.00    -0.015 C 
ATOM     10  C   UNL     1      35.486 -17.867 -20.716  0.00  0.00    +0.026 C 
ATOM     11  C   UNL     1      35.042 -19.572 -22.368  0.00  0.00    -0.004 C 
ATOM     12  C   UNL     1      34.544 -17.260 -22.856  0.00  0.00    +0.027 C 
ATOM     13  C   UNL     1      35.006 -16.893 -21.592  0.00  0.00    +0.140 C 
ATOM     14  C   UNL     1      34.562 -18.600 -23.243  0.00  0.00    +0.002 C 
BRANCH  12  15
ATOM     15  C   UNL     1      34.046 -16.254 -23.769  0.00  0.00    +0.002 C 
ATOM     16  C   UNL     1      33.588 -15.032 -23.276  0.00  0.00    +0.000 C 
ATOM     17  C   UNL     1      34.024 -16.506 -25.140  0.00  0.00    +0.000 C 
ATOM     18  C   UNL     1      33.109 -14.061 -24.155  0.00  0.00    +0.000 C 
ATOM     19  C   UNL     1      33.545 -15.534 -26.020  0.00  0.00    +0.000 C 
ATOM     20  C   UNL     1      33.086 -14.312 -25.528  0.00  0.00    +0.000 C 
ENDBRANCH  12  15
ENDBRANCH   6   9
ENDBRANCH   3   6
BRANCH   5  21
ATOM     21  N   UNL     1      32.941 -23.410 -17.964  0.00  0.00    -0.147 NA
BRANCH  21  29
ATOM     22  O   UNL     1      33.119 -24.524 -13.280  0.00  0.00    -0.350 OA
ATOM     23  N   UNL     1      32.421 -23.334 -15.718  0.00  0.00    -0.277 N 
ATOM     24  N   UNL     1      30.893 -22.439 -17.123  0.00  0.00    -0.373 N 
ATOM     25  C   UNL     1      31.396 -23.593 -14.710  0.00  0.00    +0.125 C 
ATOM     26  C   UNL     1      33.777 -23.190 -15.195  0.00  0.00    +0.125 C 
ATOM     27  C   UNL     1      31.827 -24.769 -13.842  0.00  0.00    +0.164 C 
ATOM     28  C   UNL     1      34.104 -24.383 -14.306  0.00  0.00    +0.164 C 
ATOM     29  C   UNL     1      32.115 -23.070 -17.008  0.00  0.00    +0.182 C 
ATOM     30  H   UNL     1      30.364 -22.239 -16.317  0.00  0.00    +0.158 HD
ATOM     31  H   UNL     1      30.549 -22.190 -18.012  0.00  0.00    +0.158 HD
ENDBRANCH  21  29
ENDBRANCH   5  21
TORSDOF 5
ENDMDL
MODEL 8
REMARK VINA RESULT:     -11.6      8.723     12.897
REMARK  Name = 9800765
REMARK  5 active torsions:
REMARK  status: ('A' for Active; 'I' for Inactive)
REMARK    1  A    between atoms: C_3  and  C_17
REMARK    2  A    between atoms: C_5  and  N_8
REMARK    3  A    between atoms: N_8  and  C_14
REMARK    4  A    between atoms: C_17  and  C_20
REMARK    5  A    between atoms: C_23  and  C_26
REMARK                            x       y       z     vdW  Elec       q    Type
REMARK                         _______ _______ _______ _____ _____    ______ ____
ROOT
ATOM      1  O   UNL     1      32.724 -12.595 -23.160  0.00  0.00    -0.337 OA
ATOM      2  N   UNL     1      32.492 -11.249 -22.905  0.00  0.00    -0.079 NA
ATOM      3  C   UNL     1      31.940 -11.218 -21.689  0.00  0.00    +0.106 C 
ATOM      4  C   UNL     1      31.801 -12.501 -21.133  0.00  0.00    +0.076 C 
ATOM      5  C   UNL     1      32.308 -13.321 -22.098  0.00  0.00    +0.252 C 
ENDROOT
BRANCH   3   6
ATOM      6  C   UNL     1      31.559  -9.930 -21.089  0.00  0.00    +0.066 C 
ATOM      7  C   UNL     1      32.147  -9.701 -19.675  0.00  0.00    +0.011 C 
BRANCH   6   9
ATOM      8  F   UNL     1      30.417  -7.317 -25.025  0.00  0.00    -0.204 F 
ATOM      9  C   UNL     1      31.889  -8.834 -22.107  0.00  0.00    -0.015 C 
ATOM     10  C   UNL     1      30.987  -8.577 -23.111  0.00  0.00    +0.026 C 
ATOM     11  C   UNL     1      33.076  -8.150 -21.976  0.00  0.00    -0.004 C 
ATOM     12  C   UNL     1      32.482  -6.868 -23.934  0.00  0.00    +0.027 C 
ATOM     13  C   UNL     1      31.287  -7.579 -24.039  0.00  0.00    +0.140 C 
ATOM     14  C   UNL     1      33.376  -7.153 -22.903  0.00  0.00    +0.002 C 
BRANCH  12  15
ATOM     15  C   UNL     1      32.797  -5.831 -24.893  0.00  0.00    +0.002 C 
ATOM     16  C   UNL     1      33.898  -5.976 -25.739  0.00  0.00    +0.000 C 
ATOM     17  C   UNL     1      32.003  -4.688 -24.972  0.00  0.00    +0.000 C 
ATOM     18  C   UNL     1      34.202  -4.977 -26.664  0.00  0.00    +0.000 C 
ATOM     19  C   UNL     1      32.308  -3.689 -25.897  0.00  0.00    +0.000 C 
ATOM     20  C   UNL     1      33.408  -3.833 -26.743  0.00  0.00    +0.000 C 
ENDBRANCH  12  15
ENDBRANCH   6   9
ENDBRANCH   3   6
BRANCH   5  21
ATOM     21  N   UNL     1      32.427 -14.678 -22.101  0.00  0.00    -0.147 NA
BRANCH  21  29
ATOM     22  O   UNL     1      35.187 -17.871 -24.426  0.00  0.00    -0.350 OA
ATOM     23  N   UNL     1      34.292 -15.940 -22.606  0.00  0.00    -0.277 N 
ATOM     24  N   UNL     1      34.222 -15.055 -20.526  0.00  0.00    -0.373 N 
ATOM     25  C   UNL     1      35.176 -17.013 -22.158  0.00  0.00    +0.125 C 
ATOM     26  C   UNL     1      34.383 -15.618 -24.027  0.00  0.00    +0.125 C 
ATOM     27  C   UNL     1      34.987 -18.229 -23.057  0.00  0.00    +0.164 C 
ATOM     28  C   UNL     1      34.230 -16.895 -24.844  0.00  0.00    +0.164 C 
ATOM     29  C   UNL     1      33.579 -15.184 -21.740  0.00  0.00    +0.182 C 
ATOM     30  H   UNL     1      35.093 -15.491 -20.381  0.00  0.00    +0.158 HD
ATOM     31  H   UNL     1      33.809 -14.528 -19.804  0.00  0.00    +0.158 HD
ENDBRANCH  21  29
ENDBRANCH   5  21
TORSDOF 5
ENDMDL
MODEL 9
REMARK VINA RESULT:     -11.5      1.726      2.504
REMARK  Name = 9800765
REMARK  5 active torsions:
REMARK  status: ('A' for Active; 'I' for Inactive)
REMARK    1  A    between atoms: C_3  and  C_17
REMARK    2  A    between atoms: C_5  and  N_8
REMARK    3  A    between atoms: N_8  and  C_14
REMARK    4  A    between atoms: C_17  and  C_20
REMARK    5  A    between atoms: C_23  and  C_26
REMARK                            x       y       z     vdW  Elec       q    Type
REMARK                         _______ _______ _______ _____ _____    ______ ____
ROOT
ATOM      1  O   UNL     1      35.330 -22.551 -14.746  0.00  0.00    -0.337 OA
ATOM      2  N   UNL     1      34.164 -22.608 -15.499  0.00  0.00    -0.079 NA
ATOM      3  C   UNL     1      34.566 -22.909 -16.737  0.00  0.00    +0.106 C 
ATOM      4  C   UNL     1      35.961 -23.052 -16.825  0.00  0.00    +0.076 C 
ATOM      5  C   UNL     1      36.384 -22.818 -15.550  0.00  0.00    +0.252 C 
ENDROOT
BRANCH   3   6
ATOM      6  C   UNL     1      33.575 -23.052 -17.816  0.00  0.00    +0.066 C 
ATOM      7  C   UNL     1      32.110 -23.101 -17.316  0.00  0.00    +0.011 C 
BRANCH   6   9
ATOM      8  F   UNL     1      32.066 -19.472 -20.737  0.00  0.00    -0.204 F 
ATOM      9  C   UNL     1      33.864 -21.961 -18.852  0.00  0.00    -0.015 C 
ATOM     10  C   UNL     1      32.815 -21.209 -19.324  0.00  0.00    +0.026 C 
ATOM     11  C   UNL     1      35.162 -21.779 -19.270  0.00  0.00    -0.004 C 
ATOM     12  C   UNL     1      34.383 -20.005 -20.712  0.00  0.00    +0.027 C 
ATOM     13  C   UNL     1      33.078 -20.216 -20.267  0.00  0.00    +0.140 C 
ATOM     14  C   UNL     1      35.425 -20.787 -20.213  0.00  0.00    +0.002 C 
BRANCH  12  15
ATOM     15  C   UNL     1      34.661 -18.975 -21.689  0.00  0.00    +0.002 C 
ATOM     16  C   UNL     1      34.774 -17.644 -21.285  0.00  0.00    +0.000 C 
ATOM     17  C   UNL     1      34.818 -19.312 -23.033  0.00  0.00    +0.000 C 
ATOM     18  C   UNL     1      35.043 -16.651 -22.226  0.00  0.00    +0.000 C 
ATOM     19  C   UNL     1      35.088 -18.318 -23.974  0.00  0.00    +0.000 C 
ATOM     20  C   UNL     1      35.200 -16.987 -23.572  0.00  0.00    +0.000 C 
ENDBRANCH  12  15
ENDBRANCH   6   9
ENDBRANCH   3   6
BRANCH   5  21
ATOM     21  N   UNL     1      37.651 -22.823 -15.047  0.00  0.00    -0.147 NA
BRANCH  21  29
ATOM     22  O   UNL     1      37.062 -26.228 -11.689  0.00  0.00    -0.350 OA
ATOM     23  N   UNL     1      37.831 -24.883 -14.022  0.00  0.00    -0.277 N 
ATOM     24  N   UNL     1      39.325 -24.455 -15.665  0.00  0.00    -0.373 N 
ATOM     25  C   UNL     1      38.740 -25.840 -13.396  0.00  0.00    +0.125 C 
ATOM     26  C   UNL     1      36.416 -25.097 -13.735  0.00  0.00    +0.125 C 
ATOM     27  C   UNL     1      38.440 -25.918 -11.904  0.00  0.00    +0.164 C 
ATOM     28  C   UNL     1      36.218 -25.208 -12.228  0.00  0.00    +0.164 C 
ATOM     29  C   UNL     1      38.252 -23.982 -14.938  0.00  0.00    +0.182 C 
ATOM     30  H   UNL     1      39.687 -25.352 -15.481  0.00  0.00    +0.158 HD
ATOM     31  H   UNL     1      39.730 -23.896 -16.367  0.00  0.00    +0.158 HD
ENDBRANCH  21  29
ENDBRANCH   5  21
TORSDOF 5
ENDMDL
