MODEL 1
REMARK VINA RESULT:      -8.5      0.000      0.000
REMARK  Name = 21704
REMARK  5 active torsions:
REMARK  status: ('A' for Active; 'I' for Inactive)
REMARK    1  A    between atoms: N9_1  and  C1*_12
REMARK    2  A    between atoms: C2*_11  and  O2*_15
REMARK    3  A    between atoms: C3*_13  and  O3*_17
REMARK    4  A    between atoms: C4*_14  and  C5*_19
REMARK    5  A    between atoms: C5*_19  and  O5*_20
REMARK                            x       y       z     vdW  Elec       q    Type
REMARK                         _______ _______ _______ _____ _____    ______ ____
ROOT
ATOM      1  N9  A   A   1      36.384 -23.073 -15.833  0.00  0.00    -0.247 N 
ATOM      2  N7  A   A   1      36.950 -21.783 -17.568  0.00  0.00    -0.242 NA
ATOM      3  N3  A   A   1      34.106 -23.634 -16.467  0.00  0.00    -0.228 NA
ATOM      4  N1  A   A   1      33.491 -22.599 -18.590  0.00  0.00    -0.229 NA
ATOM      5  C4  A   A   1      35.289 -23.030 -16.654  0.00  0.00    +0.152 C 
ATOM      6  C8  A   A   1      37.355 -22.307 -16.429  0.00  0.00    +0.223 C 
ATOM      7  C5  A   A   1      35.661 -22.227 -17.721  0.00  0.00    +0.140 C 
ATOM      8  C6  A   A   1      34.708 -22.019 -18.714  0.00  0.00    +0.143 C 
ATOM      9  C2  A   A   1      33.269 -23.360 -17.491  0.00  0.00    +0.253 C 
ATOM     10  N6  A   A   1      35.001 -21.220 -19.832  0.00  0.00    -0.342 N 
ATOM     11  H61 A   A   1      34.320 -21.080 -20.529  0.00  0.00    +0.144 HD
ATOM     12  H62 A   A   1      35.887 -20.800 -19.919  0.00  0.00    +0.144 HD
ENDROOT
BRANCH   1  15
ATOM     13  O4* A   A   1      37.823 -23.616 -14.015  0.00  0.00    -0.333 OA
ATOM     14  C2* A   A   1      36.258 -25.295 -14.637  0.00  0.00    +0.187 C 
ATOM     15  C1* A   A   1      36.507 -23.791 -14.570  0.00  0.00    +0.225 C 
ATOM     16  C3* A   A   1      37.005 -25.780 -13.411  0.00  0.00    +0.171 C 
ATOM     17  C4* A   A   1      38.189 -24.815 -13.304  0.00  0.00    +0.175 C 
BRANCH  14  18
ATOM     18  O2* A   A   1      36.845 -25.862 -15.802  0.00  0.00    -0.378 OA
ATOM     19  H2* A   A   1      37.569 -25.295 -16.108  0.00  0.00    +0.211 HD
ENDBRANCH  14  18
BRANCH  16  20
ATOM     20  O3* A   A   1      36.158 -25.613 -12.276  0.00  0.00    -0.379 OA
ATOM     21  H3* A   A   1      35.301 -26.034 -12.447  0.00  0.00    +0.211 HD
ENDBRANCH  16  20
BRANCH  17  22
ATOM     22  C5* A   A   1      39.466 -25.358 -13.929  0.00  0.00    +0.169 C 
BRANCH  22  23
ATOM     23  O5* A   A   1      39.216 -26.669 -14.405  0.00  0.00    -0.379 OA
ATOM     24  H5* A   A   1      39.327 -27.303 -13.678  0.00  0.00    +0.211 HD
ENDBRANCH  22  23
ENDBRANCH  17  22
ENDBRANCH   1  15
TORSDOF 5
ENDMDL
MODEL 2
REMARK VINA RESULT:      -8.4      1.516      1.853
REMARK  Name = 21704
REMARK  5 active torsions:
REMARK  status: ('A' for Active; 'I' for Inactive)
REMARK    1  A    between atoms: N9_1  and  C1*_12
REMARK    2  A    between atoms: C2*_11  and  O2*_15
REMARK    3  A    between atoms: C3*_13  and  O3*_17
REMARK    4  A    between atoms: C4*_14  and  C5*_19
REMARK    5  A    between atoms: C5*_19  and  O5*_20
REMARK                            x       y       z     vdW  Elec       q    Type
REMARK                         _______ _______ _______ _____ _____    ______ ____
ROOT
ATOM      1  N9  A   A   1      35.983 -23.435 -14.995  0.00  0.00    -0.247 N 
ATOM      2  N7  A   A   1      35.581 -22.727 -17.076  0.00  0.00    -0.242 NA
ATOM      3  N3  A   A   1      33.716 -23.967 -14.299  0.00  0.00    -0.228 NA
ATOM      4  N1  A   A   1      32.108 -23.519 -16.079  0.00  0.00    -0.229 NA
ATOM      5  C4  A   A   1      34.630 -23.535 -15.181  0.00  0.00    +0.152 C 
ATOM      6  C8  A   A   1      36.507 -22.944 -16.165  0.00  0.00    +0.223 C 
ATOM      7  C5  A   A   1      34.403 -23.093 -16.474  0.00  0.00    +0.140 C 
ATOM      8  C6  A   A   1      33.084 -23.095 -16.918  0.00  0.00    +0.143 C 
ATOM      9  C2  A   A   1      32.479 -23.923 -14.841  0.00  0.00    +0.253 C 
ATOM     10  N6  A   A   1      32.763 -22.664 -18.216  0.00  0.00    -0.342 N 
ATOM     11  H61 A   A   1      31.826 -22.670 -18.519  0.00  0.00    +0.144 HD
ATOM     12  H62 A   A   1      33.474 -22.356 -18.823  0.00  0.00    +0.144 HD
ENDROOT
BRANCH   1  15
ATOM     13  O4* A   A   1      38.145 -23.797 -14.066  0.00  0.00    -0.333 OA
ATOM     14  C2* A   A   1      36.393 -25.129 -13.166  0.00  0.00    +0.187 C 
ATOM     15  C1* A   A   1      36.733 -23.780 -13.793  0.00  0.00    +0.225 C 
ATOM     16  C3* A   A   1      37.656 -25.427 -12.386  0.00  0.00    +0.171 C 
ATOM     17  C4* A   A   1      38.763 -24.804 -13.239  0.00  0.00    +0.175 C 
BRANCH  14  18
ATOM     18  O2* A   A   1      36.207 -26.127 -14.162  0.00  0.00    -0.378 OA
ATOM     19  H2* A   A   1      36.818 -26.863 -14.001  0.00  0.00    +0.211 HD
ENDBRANCH  14  18
BRANCH  16  20
ATOM     20  O3* A   A   1      37.583 -24.742 -11.137  0.00  0.00    -0.379 OA
ATOM     21  H3* A   A   1      36.749 -24.249 -11.087  0.00  0.00    +0.211 HD
ENDBRANCH  16  20
BRANCH  17  22
ATOM     22  C5* A   A   1      39.452 -25.804 -14.157  0.00  0.00    +0.169 C 
BRANCH  22  23
ATOM     23  O5* A   A   1      38.874 -25.708 -15.447  0.00  0.00    -0.379 OA
ATOM     24  H5* A   A   1      39.576 -25.738 -16.117  0.00  0.00    +0.211 HD
ENDBRANCH  22  23
ENDBRANCH  17  22
ENDBRANCH   1  15
TORSDOF 5
ENDMDL
MODEL 3
REMARK VINA RESULT:      -8.1      1.777      3.221
REMARK  Name = 21704
REMARK  5 active torsions:
REMARK  status: ('A' for Active; 'I' for Inactive)
REMARK    1  A    between atoms: N9_1  and  C1*_12
REMARK    2  A    between atoms: C2*_11  and  O2*_15
REMARK    3  A    between atoms: C3*_13  and  O3*_17
REMARK    4  A    between atoms: C4*_14  and  C5*_19
REMARK    5  A    between atoms: C5*_19  and  O5*_20
REMARK                            x       y       z     vdW  Elec       q    Type
REMARK                         _______ _______ _______ _____ _____    ______ ____
ROOT
ATOM      1  N9  A   A   1      34.629 -24.130 -15.349  0.00  0.00    -0.247 N 
ATOM      2  N7  A   A   1      32.470 -23.986 -14.790  0.00  0.00    -0.242 NA
ATOM      3  N3  A   A   1      34.550 -23.102 -17.550  0.00  0.00    -0.228 NA
ATOM      4  N1  A   A   1      32.283 -22.412 -18.131  0.00  0.00    -0.229 NA
ATOM      5  C4  A   A   1      33.997 -23.526 -16.404  0.00  0.00    +0.152 C 
ATOM      6  C8  A   A   1      33.665 -24.386 -14.406  0.00  0.00    +0.223 C 
ATOM      7  C5  A   A   1      32.663 -23.447 -16.037  0.00  0.00    +0.140 C 
ATOM      8  C6  A   A   1      31.793 -22.863 -16.952  0.00  0.00    +0.143 C 
ATOM      9  C2  A   A   1      33.611 -22.557 -18.354  0.00  0.00    +0.253 C 
ATOM     10  N6  A   A   1      30.423 -22.740 -16.661  0.00  0.00    -0.342 N 
ATOM     11  H61 A   A   1      29.816 -22.325 -17.316  0.00  0.00    +0.144 HD
ATOM     12  H62 A   A   1      30.071 -23.069 -15.803  0.00  0.00    +0.144 HD
ENDROOT
BRANCH   1  15
ATOM     13  O4* A   A   1      36.237 -25.692 -14.547  0.00  0.00    -0.333 OA
ATOM     14  C2* A   A   1      36.900 -23.408 -14.510  0.00  0.00    +0.187 C 
ATOM     15  C1* A   A   1      36.049 -24.444 -15.238  0.00  0.00    +0.225 C 
ATOM     16  C3* A   A   1      38.080 -24.247 -14.064  0.00  0.00    +0.171 C 
ATOM     17  C4* A   A   1      37.465 -25.622 -13.794  0.00  0.00    +0.175 C 
BRANCH  14  18
ATOM     18  O2* A   A   1      36.225 -22.899 -13.367  0.00  0.00    -0.378 OA
ATOM     19  H2* A   A   1      35.991 -21.970 -13.517  0.00  0.00    +0.211 HD
ENDBRANCH  14  18
BRANCH  16  20
ATOM     20  O3* A   A   1      38.996 -24.347 -15.153  0.00  0.00    -0.379 OA
ATOM     21  H3* A   A   1      39.073 -23.485 -15.591  0.00  0.00    +0.211 HD
ENDBRANCH  16  20
BRANCH  17  22
ATOM     22  C5* A   A   1      37.128 -25.854 -12.328  0.00  0.00    +0.169 C 
BRANCH  22  23
ATOM     23  O5* A   A   1      37.788 -24.871 -11.550  0.00  0.00    -0.379 OA
ATOM     24  H5* A   A   1      38.608 -24.605 -11.995  0.00  0.00    +0.211 HD
ENDBRANCH  22  23
ENDBRANCH  17  22
ENDBRANCH   1  15
TORSDOF 5
ENDMDL
MODEL 4
REMARK VINA RESULT:      -7.8      1.488      2.575
REMARK  Name = 21704
REMARK  5 active torsions:
REMARK  status: ('A' for Active; 'I' for Inactive)
REMARK    1  A    between atoms: N9_1  and  C1*_12
REMARK    2  A    between atoms: C2*_11  and  O2*_15
REMARK    3  A    between atoms: C3*_13  and  O3*_17
REMARK    4  A    between atoms: C4*_14  and  C5*_19
REMARK    5  A    between atoms: C5*_19  and  O5*_20
REMARK                            x       y       z     vdW  Elec       q    Type
REMARK                         _______ _______ _______ _____ _____    ______ ____
ROOT
ATOM      1  N9  A   A   1      35.352 -23.170 -15.043  0.00  0.00    -0.247 N 
ATOM      2  N7  A   A   1      33.493 -23.524 -16.232  0.00  0.00    -0.242 NA
ATOM      3  N3  A   A   1      36.721 -22.090 -16.736  0.00  0.00    -0.228 NA
ATOM      4  N1  A   A   1      35.524 -21.886 -18.853  0.00  0.00    -0.229 NA
ATOM      5  C4  A   A   1      35.596 -22.673 -16.296  0.00  0.00    +0.152 C 
ATOM      6  C8  A   A   1      34.073 -23.670 -15.059  0.00  0.00    +0.223 C 
ATOM      7  C5  A   A   1      34.433 -22.902 -17.015  0.00  0.00    +0.140 C 
ATOM      8  C6  A   A   1      34.422 -22.483 -18.342  0.00  0.00    +0.143 C 
ATOM      9  C2  A   A   1      36.589 -21.729 -18.031  0.00  0.00    +0.253 C 
ATOM     10  N6  A   A   1      33.284 -22.674 -19.144  0.00  0.00    -0.342 N 
ATOM     11  H61 A   A   1      33.286 -22.373 -20.081  0.00  0.00    +0.144 HD
ATOM     12  H62 A   A   1      32.484 -23.108 -18.769  0.00  0.00    +0.144 HD
ENDROOT
BRANCH   1  15
ATOM     13  O4* A   A   1      37.373 -24.056 -14.150  0.00  0.00    -0.333 OA
ATOM     14  C2* A   A   1      35.656 -23.594 -12.571  0.00  0.00    +0.187 C 
ATOM     15  C1* A   A   1      36.264 -23.172 -13.905  0.00  0.00    +0.225 C 
ATOM     16  C3* A   A   1      36.884 -24.048 -11.809  0.00  0.00    +0.171 C 
ATOM     17  C4* A   A   1      37.787 -24.636 -12.897  0.00  0.00    +0.175 C 
BRANCH  14  18
ATOM     18  O2* A   A   1      34.769 -24.694 -12.735  0.00  0.00    -0.378 OA
ATOM     19  H2* A   A   1      35.062 -25.237 -13.482  0.00  0.00    +0.211 HD
ENDBRANCH  14  18
BRANCH  16  20
ATOM     20  O3* A   A   1      37.512 -22.899 -11.247  0.00  0.00    -0.379 OA
ATOM     21  H3* A   A   1      38.319 -23.167 -10.779  0.00  0.00    +0.211 HD
ENDBRANCH  16  20
BRANCH  17  22
ATOM     22  C5* A   A   1      37.672 -26.149 -13.022  0.00  0.00    +0.169 C 
BRANCH  22  23
ATOM     23  O5* A   A   1      36.865 -26.632 -11.962  0.00  0.00    -0.379 OA
ATOM     24  H5* A   A   1      36.447 -25.882 -11.507  0.00  0.00    +0.211 HD
ENDBRANCH  22  23
ENDBRANCH  17  22
ENDBRANCH   1  15
TORSDOF 5
ENDMDL
MODEL 5
REMARK VINA RESULT:      -7.8      3.707      5.777
REMARK  Name = 21704
REMARK  5 active torsions:
REMARK  status: ('A' for Active; 'I' for Inactive)
REMARK    1  A    between atoms: N9_1  and  C1*_12
REMARK    2  A    between atoms: C2*_11  and  O2*_15
REMARK    3  A    between atoms: C3*_13  and  O3*_17
REMARK    4  A    between atoms: C4*_14  and  C5*_19
REMARK    5  A    between atoms: C5*_19  and  O5*_20
REMARK                            x       y       z     vdW  Elec       q    Type
REMARK                         _______ _______ _______ _____ _____    ______ ____
ROOT
ATOM      1  N9  A   A   1      33.690 -23.802 -15.306  0.00  0.00    -0.247 N 
ATOM      2  N7  A   A   1      35.025 -23.061 -16.938  0.00  0.00    -0.242 NA
ATOM      3  N3  A   A   1      35.303 -23.954 -13.495  0.00  0.00    -0.228 NA
ATOM      4  N1  A   A   1      37.529 -23.267 -14.224  0.00  0.00    -0.229 NA
ATOM      5  C4  A   A   1      34.939 -23.682 -14.758  0.00  0.00    +0.152 C 
ATOM      6  C8  A   A   1      33.797 -23.417 -16.619  0.00  0.00    +0.223 C 
ATOM      7  C5  A   A   1      35.749 -23.222 -15.783  0.00  0.00    +0.140 C 
ATOM      8  C6  A   A   1      37.091 -23.014 -15.480  0.00  0.00    +0.143 C 
ATOM      9  C2  A   A   1      36.622 -23.714 -13.323  0.00  0.00    +0.253 C 
ATOM     10  N6  A   A   1      37.983 -22.546 -16.460  0.00  0.00    -0.342 N 
ATOM     11  H61 A   A   1      38.931 -22.402 -16.234  0.00  0.00    +0.144 HD
ATOM     12  H62 A   A   1      37.661 -22.363 -17.372  0.00  0.00    +0.144 HD
ENDROOT
BRANCH   1  15
ATOM     13  O4* A   A   1      31.429 -24.491 -15.595  0.00  0.00    -0.333 OA
ATOM     14  C2* A   A   1      31.902 -23.295 -13.595  0.00  0.00    +0.187 C 
ATOM     15  C1* A   A   1      32.475 -24.252 -14.637  0.00  0.00    +0.225 C 
ATOM     16  C3* A   A   1      30.452 -23.732 -13.549  0.00  0.00    +0.171 C 
ATOM     17  C4* A   A   1      30.162 -24.173 -14.985  0.00  0.00    +0.175 C 
BRANCH  14  18
ATOM     18  O2* A   A   1      31.975 -21.946 -14.040  0.00  0.00    -0.378 OA
ATOM     19  H2* A   A   1      32.854 -21.587 -13.841  0.00  0.00    +0.211 HD
ENDBRANCH  14  18
BRANCH  16  20
ATOM     20  O3* A   A   1      30.351 -24.859 -12.681  0.00  0.00    -0.379 OA
ATOM     21  H3* A   A   1      30.017 -24.573 -11.817  0.00  0.00    +0.211 HD
ENDBRANCH  16  20
BRANCH  17  22
ATOM     22  C5* A   A   1      29.498 -23.090 -15.825  0.00  0.00    +0.169 C 
BRANCH  22  23
ATOM     23  O5* A   A   1      30.423 -22.643 -16.801  0.00  0.00    -0.379 OA
ATOM     24  H5* A   A   1      29.984 -22.599 -17.665  0.00  0.00    +0.211 HD
ENDBRANCH  22  23
ENDBRANCH  17  22
ENDBRANCH   1  15
TORSDOF 5
ENDMDL
MODEL 6
REMARK VINA RESULT:      -7.6      2.564      3.542
REMARK  Name = 21704
REMARK  5 active torsions:
REMARK  status: ('A' for Active; 'I' for Inactive)
REMARK    1  A    between atoms: N9_1  and  C1*_12
REMARK    2  A    between atoms: C2*_11  and  O2*_15
REMARK    3  A    between atoms: C3*_13  and  O3*_17
REMARK    4  A    between atoms: C4*_14  and  C5*_19
REMARK    5  A    between atoms: C5*_19  and  O5*_20
REMARK                            x       y       z     vdW  Elec       q    Type
REMARK                         _______ _______ _______ _____ _____    ______ ____
ROOT
ATOM      1  N9  A   A   1      34.261 -24.230 -14.338  0.00  0.00    -0.247 N 
ATOM      2  N7  A   A   1      33.702 -23.221 -16.253  0.00  0.00    -0.242 NA
ATOM      3  N3  A   A   1      32.053 -24.502 -13.360  0.00  0.00    -0.228 NA
ATOM      4  N1  A   A   1      30.314 -23.606 -14.820  0.00  0.00    -0.229 NA
ATOM      5  C4  A   A   1      32.897 -24.105 -14.324  0.00  0.00    +0.152 C 
ATOM      6  C8  A   A   1      34.695 -23.682 -15.520  0.00  0.00    +0.223 C 
ATOM      7  C5  A   A   1      32.573 -23.479 -15.517  0.00  0.00    +0.140 C 
ATOM      8  C6  A   A   1      31.224 -23.231 -15.751  0.00  0.00    +0.143 C 
ATOM      9  C2  A   A   1      30.778 -24.210 -13.699  0.00  0.00    +0.253 C 
ATOM     10  N6  A   A   1      30.805 -22.602 -16.936  0.00  0.00    -0.342 N 
ATOM     11  H61 A   A   1      29.848 -22.432 -17.091  0.00  0.00    +0.144 HD
ATOM     12  H62 A   A   1      31.469 -22.331 -17.611  0.00  0.00    +0.144 HD
ENDROOT
BRANCH   1  15
ATOM     13  O4* A   A   1      35.247 -23.927 -12.193  0.00  0.00    -0.333 OA
ATOM     14  C2* A   A   1      36.509 -25.217 -13.742  0.00  0.00    +0.187 C 
ATOM     15  C1* A   A   1      35.100 -24.827 -13.305  0.00  0.00    +0.225 C 
ATOM     16  C3* A   A   1      37.245 -25.223 -12.418  0.00  0.00    +0.171 C 
ATOM     17  C4* A   A   1      36.556 -24.115 -11.617  0.00  0.00    +0.175 C 
BRANCH  14  18
ATOM     18  O2* A   A   1      37.076 -24.228 -14.592  0.00  0.00    -0.378 OA
ATOM     19  H2* A   A   1      36.545 -23.418 -14.546  0.00  0.00    +0.211 HD
ENDBRANCH  14  18
BRANCH  16  20
ATOM     20  O3* A   A   1      37.011 -26.478 -11.782  0.00  0.00    -0.379 OA
ATOM     21  H3* A   A   1      36.834 -26.334 -10.839  0.00  0.00    +0.211 HD
ENDBRANCH  16  20
BRANCH  17  22
ATOM     22  C5* A   A   1      37.289 -22.783 -11.677  0.00  0.00    +0.169 C 
BRANCH  22  23
ATOM     23  O5* A   A   1      38.684 -23.032 -11.663  0.00  0.00    -0.379 OA
ATOM     24  H5* A   A   1      38.939 -23.487 -12.482  0.00  0.00    +0.211 HD
ENDBRANCH  22  23
ENDBRANCH  17  22
ENDBRANCH   1  15
TORSDOF 5
ENDMDL
MODEL 7
REMARK VINA RESULT:      -7.6      2.022      3.299
REMARK  Name = 21704
REMARK  5 active torsions:
REMARK  status: ('A' for Active; 'I' for Inactive)
REMARK    1  A    between atoms: N9_1  and  C1*_12
REMARK    2  A    between atoms: C2*_11  and  O2*_15
REMARK    3  A    between atoms: C3*_13  and  O3*_17
REMARK    4  A    between atoms: C4*_14  and  C5*_19
REMARK    5  A    between atoms: C5*_19  and  O5*_20
REMARK                            x       y       z     vdW  Elec       q    Type
REMARK                         _______ _______ _______ _____ _____    ______ ____
ROOT
ATOM      1  N9  A   A   1      33.981 -23.883 -14.389  0.00  0.00    -0.247 N 
ATOM      2  N7  A   A   1      31.753 -23.710 -14.392  0.00  0.00    -0.242 NA
ATOM      3  N3  A   A   1      34.445 -23.234 -16.684  0.00  0.00    -0.228 NA
ATOM      4  N1  A   A   1      32.391 -22.712 -17.896  0.00  0.00    -0.229 NA
ATOM      5  C4  A   A   1      33.628 -23.479 -15.649  0.00  0.00    +0.152 C 
ATOM      6  C8  A   A   1      32.816 -24.008 -13.673  0.00  0.00    +0.223 C 
ATOM      7  C5  A   A   1      32.246 -23.378 -15.629  0.00  0.00    +0.140 C 
ATOM      8  C6  A   A   1      31.627 -22.977 -16.809  0.00  0.00    +0.143 C 
ATOM      9  C2  A   A   1      33.732 -22.855 -17.768  0.00  0.00    +0.253 C 
ATOM     10  N6  A   A   1      30.230 -22.846 -16.878  0.00  0.00    -0.342 N 
ATOM     11  H61 A   A   1      29.803 -22.561 -17.718  0.00  0.00    +0.144 HD
ATOM     12  H62 A   A   1      29.678 -23.039 -16.086  0.00  0.00    +0.144 HD
ENDROOT
BRANCH   1  15
ATOM     13  O4* A   A   1      36.197 -23.033 -14.205  0.00  0.00    -0.333 OA
ATOM     14  C2* A   A   1      36.007 -25.392 -14.432  0.00  0.00    +0.187 C 
ATOM     15  C1* A   A   1      35.329 -24.136 -13.892  0.00  0.00    +0.225 C 
ATOM     16  C3* A   A   1      37.470 -25.058 -14.227  0.00  0.00    +0.171 C 
ATOM     17  C4* A   A   1      37.526 -23.542 -14.436  0.00  0.00    +0.175 C 
BRANCH  14  18
ATOM     18  O2* A   A   1      35.751 -25.559 -15.821  0.00  0.00    -0.378 OA
ATOM     19  H2* A   A   1      36.592 -25.636 -16.298  0.00  0.00    +0.211 HD
ENDBRANCH  14  18
BRANCH  16  20
ATOM     20  O3* A   A   1      37.814 -25.359 -12.876  0.00  0.00    -0.379 OA
ATOM     21  H3* A   A   1      38.582 -24.828 -12.612  0.00  0.00    +0.211 HD
ENDBRANCH  16  20
BRANCH  17  22
ATOM     22  C5* A   A   1      37.940 -23.144 -15.846  0.00  0.00    +0.169 C 
BRANCH  22  23
ATOM     23  O5* A   A   1      37.134 -22.057 -16.265  0.00  0.00    -0.379 OA
ATOM     24  H5* A   A   1      37.329 -21.280 -15.717  0.00  0.00    +0.211 HD
ENDBRANCH  22  23
ENDBRANCH  17  22
ENDBRANCH   1  15
TORSDOF 5
ENDMDL
MODEL 8
REMARK VINA RESULT:      -7.5      2.630      4.156
REMARK  Name = 21704
REMARK  5 active torsions:
REMARK  status: ('A' for Active; 'I' for Inactive)
REMARK    1  A    between atoms: N9_1  and  C1*_12
REMARK    2  A    between atoms: C2*_11  and  O2*_15
REMARK    3  A    between atoms: C3*_13  and  O3*_17
REMARK    4  A    between atoms: C4*_14  and  C5*_19
REMARK    5  A    between atoms: C5*_19  and  O5*_20
REMARK                            x       y       z     vdW  Elec       q    Type
REMARK                         _______ _______ _______ _____ _____    ______ ____
ROOT
ATOM      1  N9  A   A   1      33.611 -23.714 -16.237  0.00  0.00    -0.247 N 
ATOM      2  N7  A   A   1      32.129 -22.765 -17.615  0.00  0.00    -0.242 NA
ATOM      3  N3  A   A   1      32.151 -24.246 -14.369  0.00  0.00    -0.228 NA
ATOM      4  N1  A   A   1      29.853 -23.549 -14.807  0.00  0.00    -0.229 NA
ATOM      5  C4  A   A   1      32.406 -23.748 -15.588  0.00  0.00    +0.152 C 
ATOM      6  C8  A   A   1      33.389 -23.112 -17.451  0.00  0.00    +0.223 C 
ATOM      7  C5  A   A   1      31.503 -23.156 -16.458  0.00  0.00    +0.140 C 
ATOM      8  C6  A   A   1      30.183 -23.066 -16.028  0.00  0.00    +0.143 C 
ATOM      9  C2  A   A   1      30.843 -24.102 -14.064  0.00  0.00    +0.253 C 
ATOM     10  N6  A   A   1      29.201 -22.482 -16.846  0.00  0.00    -0.342 N 
ATOM     11  H61 A   A   1      28.270 -22.423 -16.532  0.00  0.00    +0.144 HD
ATOM     12  H62 A   A   1      29.444 -22.132 -17.734  0.00  0.00    +0.144 HD
ENDROOT
BRANCH   1  15
ATOM     13  O4* A   A   1      34.715 -24.896 -14.490  0.00  0.00    -0.333 OA
ATOM     14  C2* A   A   1      35.972 -23.163 -15.525  0.00  0.00    +0.187 C 
ATOM     15  C1* A   A   1      34.889 -24.215 -15.745  0.00  0.00    +0.225 C 
ATOM     16  C3* A   A   1      36.869 -23.857 -14.521  0.00  0.00    +0.171 C 
ATOM     17  C4* A   A   1      35.897 -24.696 -13.688  0.00  0.00    +0.175 C 
BRANCH  14  18
ATOM     18  O2* A   A   1      35.432 -21.984 -14.940  0.00  0.00    -0.378 OA
ATOM     19  H2* A   A   1      34.896 -21.513 -15.596  0.00  0.00    +0.211 HD
ENDBRANCH  14  18
BRANCH  16  20
ATOM     20  O3* A   A   1      37.749 -24.725 -15.232  0.00  0.00    -0.379 OA
ATOM     21  H3* A   A   1      37.242 -25.460 -15.611  0.00  0.00    +0.211 HD
ENDBRANCH  16  20
BRANCH  17  22
ATOM     22  C5* A   A   1      35.474 -24.018 -12.392  0.00  0.00    +0.169 C 
BRANCH  22  23
ATOM     23  O5* A   A   1      34.154 -23.528 -12.547  0.00  0.00    -0.379 OA
ATOM     24  H5* A   A   1      33.622 -24.180 -13.031  0.00  0.00    +0.211 HD
ENDBRANCH  22  23
ENDBRANCH  17  22
ENDBRANCH   1  15
TORSDOF 5
ENDMDL
MODEL 9
REMARK VINA RESULT:      -7.2      3.614      5.342
REMARK  Name = 21704
REMARK  5 active torsions:
REMARK  status: ('A' for Active; 'I' for Inactive)
REMARK    1  A    between atoms: N9_1  and  C1*_12
REMARK    2  A    between atoms: C2*_11  and  O2*_15
REMARK    3  A    between atoms: C3*_13  and  O3*_17
REMARK    4  A    between atoms: C4*_14  and  C5*_19
REMARK    5  A    between atoms: C5*_19  and  O5*_20
REMARK                            x       y       z     vdW  Elec       q    Type
REMARK                         _______ _______ _______ _____ _____    ______ ____
ROOT
ATOM      1  N9  A   A   1      33.610 -23.654 -15.907  0.00  0.00    -0.247 N 
ATOM      2  N7  A   A   1      35.759 -23.131 -16.229  0.00  0.00    -0.242 NA
ATOM      3  N3  A   A   1      32.650 -22.704 -17.928  0.00  0.00    -0.228 NA
ATOM      4  N1  A   A   1      34.362 -21.666 -19.324  0.00  0.00    -0.229 NA
ATOM      5  C4  A   A   1      33.670 -22.991 -17.104  0.00  0.00    +0.152 C 
ATOM      6  C8  A   A   1      34.893 -23.711 -15.423  0.00  0.00    +0.223 C 
ATOM      7  C5  A   A   1      35.007 -22.677 -17.284  0.00  0.00    +0.140 C 
ATOM      8  C6  A   A   1      35.341 -21.988 -18.446  0.00  0.00    +0.143 C 
ATOM      9  C2  A   A   1      33.096 -22.038 -19.015  0.00  0.00    +0.253 C 
ATOM     10  N6  A   A   1      36.674 -21.631 -18.710  0.00  0.00    -0.342 N 
ATOM     11  H61 A   A   1      36.899 -21.145 -19.536  0.00  0.00    +0.144 HD
ATOM     12  H62 A   A   1      37.384 -21.868 -18.070  0.00  0.00    +0.144 HD
ENDROOT
BRANCH   1  15
ATOM     13  O4* A   A   1      31.290 -24.131 -16.149  0.00  0.00    -0.333 OA
ATOM     14  C2* A   A   1      31.999 -23.513 -13.965  0.00  0.00    +0.187 C 
ATOM     15  C1* A   A   1      32.420 -24.198 -15.262  0.00  0.00    +0.225 C 
ATOM     16  C3* A   A   1      30.530 -23.872 -13.896  0.00  0.00    +0.171 C 
ATOM     17  C4* A   A   1      30.099 -23.916 -15.365  0.00  0.00    +0.175 C 
BRANCH  14  18
ATOM     18  O2* A   A   1      32.135 -22.100 -14.063  0.00  0.00    -0.378 OA
ATOM     19  H2* A   A   1      32.038 -21.704 -13.182  0.00  0.00    +0.211 HD
ENDBRANCH  14  18
BRANCH  16  20
ATOM     20  O3* A   A   1      30.414 -25.178 -13.334  0.00  0.00    -0.379 OA
ATOM     21  H3* A   A   1      29.482 -25.445 -13.325  0.00  0.00    +0.211 HD
ENDBRANCH  16  20
BRANCH  17  22
ATOM     22  C5* A   A   1      29.453 -22.623 -15.841  0.00  0.00    +0.169 C 
BRANCH  22  23
ATOM     23  O5* A   A   1      29.940 -22.323 -17.137  0.00  0.00    -0.379 OA
ATOM     24  H5* A   A   1      30.870 -22.593 -17.203  0.00  0.00    +0.211 HD
ENDBRANCH  22  23
ENDBRANCH  17  22
ENDBRANCH   1  15
TORSDOF 5
ENDMDL
