MODEL 1
REMARK VINA RESULT:     -10.6      0.000      0.000
REMARK  Name = 44404226
REMARK  3 active torsions:
REMARK  status: ('A' for Active; 'I' for Inactive)
REMARK    1  A    between atoms: C_3  and  C_11
REMARK    2  A    between atoms: C_6  and  C_17
REMARK    3  A    between atoms: C_22  and  C_24
REMARK                            x       y       z     vdW  Elec       q    Type
REMARK                         _______ _______ _______ _____ _____    ______ ____
ROOT
ATOM      1  F   UNL     1      34.944 -20.154 -24.531  0.00  0.00    -0.183 F 
ATOM      2  N   UNL     1      34.666 -18.054 -25.413  0.00  0.00    -0.217 NA
ATOM      3  C   UNL     1      34.459 -16.156 -23.931  0.00  0.00    -0.005 C 
ATOM      4  C   UNL     1      34.584 -16.993 -22.828  0.00  0.00    +0.001 C 
ATOM      5  C   UNL     1      34.507 -16.730 -25.191  0.00  0.00    +0.097 C 
ATOM      6  C   UNL     1      34.749 -18.361 -23.017  0.00  0.00    +0.046 C 
ATOM      7  C   UNL     1      34.784 -18.837 -24.318  0.00  0.00    +0.222 C 
ENDROOT
BRANCH   3  11
ATOM      8  N   UNL     1      33.915 -12.710 -22.541  0.00  0.00    +0.387 N 
ATOM      9  C   UNL     1      34.472 -14.067 -22.346  0.00  0.00    -0.058 C 
ATOM     10  C   UNL     1      32.575 -13.141 -22.973  0.00  0.00    -0.062 C 
ATOM     11  C   UNL     1      34.277 -14.663 -23.760  0.00  0.00    +0.002 C 
ATOM     12  C   UNL     1      32.892 -14.083 -24.141  0.00  0.00    -0.019 C 
ATOM     13  C   UNL     1      33.467 -14.611 -21.322  0.00  0.00    -0.023 C 
ATOM     14  C   UNL     1      32.151 -13.955 -21.752  0.00  0.00    -0.023 C 
ATOM     15  H   UNL     1      34.409 -12.184 -23.262  0.00  0.00    -0.084 HD
ATOM     16  H   UNL     1      33.962 -12.074 -21.745  0.00  0.00    -0.084 HD
ENDBRANCH   3  11
BRANCH   6  17
ATOM     17  C   UNL     1      34.883 -19.252 -21.887  0.00  0.00    +0.004 C 
ATOM     18  C   UNL     1      33.750 -19.845 -21.330  0.00  0.00    +0.001 C 
ATOM     19  C   UNL     1      36.144 -19.519 -21.354  0.00  0.00    +0.001 C 
ATOM     20  C   UNL     1      33.878 -20.704 -20.238  0.00  0.00    +0.010 C 
ATOM     21  C   UNL     1      36.272 -20.379 -20.264  0.00  0.00    +0.010 C 
ATOM     22  C   UNL     1      35.140 -20.971 -19.706  0.00  0.00    +0.068 C 
BRANCH  22  24
ATOM     23  N   UNL     1      35.378 -22.568 -17.681  0.00  0.00    -0.191 NA
ATOM     24  C   UNL     1      35.271 -21.852 -18.588  0.00  0.00    +0.100 C 
ENDBRANCH  22  24
ENDBRANCH   6  17
TORSDOF 3
ENDMDL
MODEL 2
REMARK VINA RESULT:     -10.3      2.704      7.655
REMARK  Name = 44404226
REMARK  3 active torsions:
REMARK  status: ('A' for Active; 'I' for Inactive)
REMARK    1  A    between atoms: C_3  and  C_11
REMARK    2  A    between atoms: C_6  and  C_17
REMARK    3  A    between atoms: C_22  and  C_24
REMARK                            x       y       z     vdW  Elec       q    Type
REMARK                         _______ _______ _______ _____ _____    ______ ____
ROOT
ATOM      1  F   UNL     1      32.605 -13.847 -26.126  0.00  0.00    -0.183 F 
ATOM      2  N   UNL     1      33.694 -15.812 -25.664  0.00  0.00    -0.217 NA
ATOM      3  C   UNL     1      34.776 -16.101 -23.521  0.00  0.00    -0.005 C 
ATOM      4  C   UNL     1      34.373 -14.826 -23.138  0.00  0.00    +0.001 C 
ATOM      5  C   UNL     1      34.414 -16.544 -24.783  0.00  0.00    +0.097 C 
ATOM      6  C   UNL     1      33.632 -14.044 -24.017  0.00  0.00    +0.046 C 
ATOM      7  C   UNL     1      33.321 -14.579 -25.256  0.00  0.00    +0.222 C 
ENDROOT
BRANCH   3  11
ATOM      8  N   UNL     1      36.350 -19.008 -21.741  0.00  0.00    +0.387 N 
ATOM      9  C   UNL     1      35.831 -18.446 -23.007  0.00  0.00    -0.058 C 
ATOM     10  C   UNL     1      35.178 -18.672 -20.917  0.00  0.00    -0.062 C 
ATOM     11  C   UNL     1      35.584 -16.977 -22.588  0.00  0.00    +0.002 C 
ATOM     12  C   UNL     1      35.029 -17.164 -21.154  0.00  0.00    -0.019 C 
ATOM     13  C   UNL     1      34.537 -19.259 -23.137  0.00  0.00    -0.023 C 
ATOM     14  C   UNL     1      34.091 -19.426 -21.681  0.00  0.00    -0.023 C 
ATOM     15  H   UNL     1      37.200 -18.540 -21.424  0.00  0.00    -0.084 HD
ATOM     16  H   UNL     1      36.640 -19.986 -21.756  0.00  0.00    -0.084 HD
ENDBRANCH   3  11
BRANCH   6  17
ATOM     17  C   UNL     1      33.201 -12.717 -23.641  0.00  0.00    +0.004 C 
ATOM     18  C   UNL     1      32.218 -12.556 -22.664  0.00  0.00    +0.001 C 
ATOM     19  C   UNL     1      33.766 -11.600 -24.254  0.00  0.00    +0.001 C 
ATOM     20  C   UNL     1      31.800 -11.275 -22.301  0.00  0.00    +0.010 C 
ATOM     21  C   UNL     1      33.349 -10.319 -23.890  0.00  0.00    +0.010 C 
ATOM     22  C   UNL     1      32.366 -10.157 -22.914  0.00  0.00    +0.068 C 
BRANCH  22  24
ATOM     23  N   UNL     1      31.592  -7.780 -22.238  0.00  0.00    -0.191 NA
ATOM     24  C   UNL     1      31.939  -8.845 -22.541  0.00  0.00    +0.100 C 
ENDBRANCH  22  24
ENDBRANCH   6  17
TORSDOF 3
ENDMDL
MODEL 3
REMARK VINA RESULT:     -10.0      2.976      5.489
REMARK  Name = 44404226
REMARK  3 active torsions:
REMARK  status: ('A' for Active; 'I' for Inactive)
REMARK    1  A    between atoms: C_3  and  C_11
REMARK    2  A    between atoms: C_6  and  C_17
REMARK    3  A    between atoms: C_22  and  C_24
REMARK                            x       y       z     vdW  Elec       q    Type
REMARK                         _______ _______ _______ _____ _____    ______ ____
ROOT
ATOM      1  F   UNL     1      32.730 -22.486 -17.877  0.00  0.00    -0.183 F 
ATOM      2  N   UNL     1      32.664 -21.301 -19.841  0.00  0.00    -0.217 NA
ATOM      3  C   UNL     1      34.713 -20.413 -20.767  0.00  0.00    -0.005 C 
ATOM      4  C   UNL     1      35.434 -20.946 -19.704  0.00  0.00    +0.001 C 
ATOM      5  C   UNL     1      33.343 -20.617 -20.790  0.00  0.00    +0.097 C 
ATOM      6  C   UNL     1      34.770 -21.655 -18.709  0.00  0.00    +0.046 C 
ATOM      7  C   UNL     1      33.397 -21.804 -18.823  0.00  0.00    +0.222 C 
ENDROOT
BRANCH   3  11
ATOM      8  N   UNL     1      36.334 -17.731 -22.834  0.00  0.00    +0.387 N 
ATOM      9  C   UNL     1      36.074 -18.291 -21.491  0.00  0.00    -0.058 C 
ATOM     10  C   UNL     1      34.936 -17.746 -23.295  0.00  0.00    -0.062 C 
ATOM     11  C   UNL     1      35.405 -19.635 -21.866  0.00  0.00    +0.002 C 
ATOM     12  C   UNL     1      34.531 -19.208 -23.071  0.00  0.00    -0.019 C 
ATOM     13  C   UNL     1      35.077 -17.250 -20.967  0.00  0.00    -0.023 C 
ATOM     14  C   UNL     1      34.295 -16.862 -22.226  0.00  0.00    -0.023 C 
ATOM     15  H   UNL     1      36.940 -18.328 -23.398  0.00  0.00    -0.084 HD
ATOM     16  H   UNL     1      36.824 -16.837 -22.873  0.00  0.00    -0.084 HD
ENDBRANCH   3  11
BRANCH   6  17
ATOM     17  C   UNL     1      35.497 -22.220 -17.595  0.00  0.00    +0.004 C 
ATOM     18  C   UNL     1      36.842 -21.901 -17.407  0.00  0.00    +0.001 C 
ATOM     19  C   UNL     1      34.855 -23.083 -16.708  0.00  0.00    +0.001 C 
ATOM     20  C   UNL     1      37.545 -22.447 -16.333  0.00  0.00    +0.010 C 
ATOM     21  C   UNL     1      35.557 -23.628 -15.632  0.00  0.00    +0.010 C 
ATOM     22  C   UNL     1      36.902 -23.309 -15.445  0.00  0.00    +0.068 C 
BRANCH  22  24
ATOM     23  N   UNL     1      38.206 -24.320 -13.449  0.00  0.00    -0.191 NA
ATOM     24  C   UNL     1      37.622 -23.867 -14.344  0.00  0.00    +0.100 C 
ENDBRANCH  22  24
ENDBRANCH   6  17
TORSDOF 3
ENDMDL
MODEL 4
REMARK VINA RESULT:      -9.8      1.043      1.655
REMARK  Name = 44404226
REMARK  3 active torsions:
REMARK  status: ('A' for Active; 'I' for Inactive)
REMARK    1  A    between atoms: C_3  and  C_11
REMARK    2  A    between atoms: C_6  and  C_17
REMARK    3  A    between atoms: C_22  and  C_24
REMARK                            x       y       z     vdW  Elec       q    Type
REMARK                         _______ _______ _______ _____ _____    ______ ____
ROOT
ATOM      1  F   UNL     1      35.323 -19.830 -23.893  0.00  0.00    -0.183 F 
ATOM      2  N   UNL     1      34.944 -17.657 -24.523  0.00  0.00    -0.217 NA
ATOM      3  C   UNL     1      34.007 -16.099 -22.930  0.00  0.00    -0.005 C 
ATOM      4  C   UNL     1      33.963 -17.100 -21.966  0.00  0.00    +0.001 C 
ATOM      5  C   UNL     1      34.503 -16.425 -24.182  0.00  0.00    +0.097 C 
ATOM      6  C   UNL     1      34.407 -18.379 -22.280  0.00  0.00    +0.046 C 
ATOM      7  C   UNL     1      34.885 -18.603 -23.561  0.00  0.00    +0.222 C 
ENDROOT
BRANCH   3  11
ATOM      8  N   UNL     1      32.401 -12.708 -23.069  0.00  0.00    +0.387 N 
ATOM      9  C   UNL     1      32.341 -14.138 -23.439  0.00  0.00    -0.058 C 
ATOM     10  C   UNL     1      33.779 -12.474 -23.532  0.00  0.00    -0.062 C 
ATOM     11  C   UNL     1      33.530 -14.696 -22.621  0.00  0.00    +0.002 C 
ATOM     12  C   UNL     1      34.566 -13.557 -22.783  0.00  0.00    -0.019 C 
ATOM     13  C   UNL     1      32.645 -14.028 -24.939  0.00  0.00    -0.023 C 
ATOM     14  C   UNL     1      33.635 -12.862 -25.003  0.00  0.00    -0.023 C 
ATOM     15  H   UNL     1      32.293 -12.557 -22.066  0.00  0.00    -0.084 HD
ATOM     16  H   UNL     1      31.676 -12.102 -23.453  0.00  0.00    -0.084 HD
ENDBRANCH   3  11
BRANCH   6  17
ATOM     17  C   UNL     1      34.372 -19.436 -21.295  0.00  0.00    +0.004 C 
ATOM     18  C   UNL     1      33.147 -19.926 -20.842  0.00  0.00    +0.001 C 
ATOM     19  C   UNL     1      35.562 -19.966 -20.798  0.00  0.00    +0.001 C 
ATOM     20  C   UNL     1      33.112 -20.945 -19.891  0.00  0.00    +0.010 C 
ATOM     21  C   UNL     1      35.528 -20.987 -19.847  0.00  0.00    +0.010 C 
ATOM     22  C   UNL     1      34.303 -21.476 -19.394  0.00  0.00    +0.068 C 
BRANCH  22  24
ATOM     23  N   UNL     1      34.238 -23.370 -17.629  0.00  0.00    -0.191 NA
ATOM     24  C   UNL     1      34.267 -22.521 -18.420  0.00  0.00    +0.100 C 
ENDBRANCH  22  24
ENDBRANCH   6  17
TORSDOF 3
ENDMDL
MODEL 5
REMARK VINA RESULT:      -9.6      4.275     10.403
REMARK  Name = 44404226
REMARK  3 active torsions:
REMARK  status: ('A' for Active; 'I' for Inactive)
REMARK    1  A    between atoms: C_3  and  C_11
REMARK    2  A    between atoms: C_6  and  C_17
REMARK    3  A    between atoms: C_22  and  C_24
REMARK                            x       y       z     vdW  Elec       q    Type
REMARK                         _______ _______ _______ _____ _____    ______ ____
ROOT
ATOM      1  F   UNL     1      32.498 -23.086 -17.583  0.00  0.00    -0.183 F 
ATOM      2  N   UNL     1      33.540 -23.969 -15.740  0.00  0.00    -0.217 NA
ATOM      3  C   UNL     1      35.890 -23.536 -15.377  0.00  0.00    -0.005 C 
ATOM      4  C   UNL     1      35.939 -22.778 -16.542  0.00  0.00    +0.001 C 
ATOM      5  C   UNL     1      34.678 -24.105 -15.022  0.00  0.00    +0.097 C 
ATOM      6  C   UNL     1      34.789 -22.617 -17.306  0.00  0.00    +0.046 C 
ATOM      7  C   UNL     1      33.626 -23.226 -16.865  0.00  0.00    +0.222 C 
ENDROOT
BRANCH   3  11
ATOM      8  N   UNL     1      38.928 -24.938 -13.672  0.00  0.00    +0.387 N 
ATOM      9  C   UNL     1      38.073 -24.902 -14.878  0.00  0.00    -0.058 C 
ATOM     10  C   UNL     1      37.841 -25.149 -12.703  0.00  0.00    -0.062 C 
ATOM     11  C   UNL     1      37.125 -23.733 -14.523  0.00  0.00    +0.002 C 
ATOM     12  C   UNL     1      36.892 -23.984 -13.012  0.00  0.00    -0.019 C 
ATOM     13  C   UNL     1      37.402 -26.276 -14.757  0.00  0.00    -0.023 C 
ATOM     14  C   UNL     1      37.253 -26.452 -13.243  0.00  0.00    -0.023 C 
ATOM     15  H   UNL     1      39.426 -24.060 -13.518  0.00  0.00    -0.084 HD
ATOM     16  H   UNL     1      39.690 -25.616 -13.667  0.00  0.00    -0.084 HD
ENDBRANCH   3  11
BRANCH   6  17
ATOM     17  C   UNL     1      34.813 -21.833 -18.520  0.00  0.00    +0.004 C 
ATOM     18  C   UNL     1      36.031 -21.398 -19.044  0.00  0.00    +0.001 C 
ATOM     19  C   UNL     1      33.621 -21.511 -19.167  0.00  0.00    +0.001 C 
ATOM     20  C   UNL     1      36.055 -20.640 -20.215  0.00  0.00    +0.010 C 
ATOM     21  C   UNL     1      33.645 -20.754 -20.339  0.00  0.00    +0.010 C 
ATOM     22  C   UNL     1      34.862 -20.319 -20.862  0.00  0.00    +0.068 C 
BRANCH  22  24
ATOM     23  N   UNL     1      34.908 -18.913 -23.037  0.00  0.00    -0.191 NA
ATOM     24  C   UNL     1      34.887 -19.543 -22.063  0.00  0.00    +0.100 C 
ENDBRANCH  22  24
ENDBRANCH   6  17
TORSDOF 3
ENDMDL
MODEL 6
REMARK VINA RESULT:      -9.4      4.183      9.204
REMARK  Name = 44404226
REMARK  3 active torsions:
REMARK  status: ('A' for Active; 'I' for Inactive)
REMARK    1  A    between atoms: C_3  and  C_11
REMARK    2  A    between atoms: C_6  and  C_17
REMARK    3  A    between atoms: C_22  and  C_24
REMARK                            x       y       z     vdW  Elec       q    Type
REMARK                         _______ _______ _______ _____ _____    ______ ____
ROOT
ATOM      1  F   UNL     1      36.278 -22.342 -17.911  0.00  0.00    -0.183 F 
ATOM      2  N   UNL     1      34.858 -23.454 -16.492  0.00  0.00    -0.217 NA
ATOM      3  C   UNL     1      32.469 -23.283 -16.820  0.00  0.00    -0.005 C 
ATOM      4  C   UNL     1      32.671 -22.452 -17.916  0.00  0.00    +0.001 C 
ATOM      5  C   UNL     1      33.585 -23.755 -16.148  0.00  0.00    +0.097 C 
ATOM      6  C   UNL     1      33.966 -22.121 -18.300  0.00  0.00    +0.046 C 
ATOM      7  C   UNL     1      35.015 -22.644 -17.562  0.00  0.00    +0.222 C 
ENDROOT
BRANCH   3  11
ATOM      8  N   UNL     1      29.251 -23.660 -14.923  0.00  0.00    +0.387 N 
ATOM      9  C   UNL     1      30.405 -22.805 -15.274  0.00  0.00    -0.058 C 
ATOM     10  C   UNL     1      30.032 -24.850 -14.548  0.00  0.00    -0.062 C 
ATOM     11  C   UNL     1      31.073 -23.663 -16.375  0.00  0.00    +0.002 C 
ATOM     12  C   UNL     1      30.890 -25.088 -15.797  0.00  0.00    -0.019 C 
ATOM     13  C   UNL     1      31.165 -22.843 -13.942  0.00  0.00    -0.023 C 
ATOM     14  C   UNL     1      30.894 -24.261 -13.433  0.00  0.00    -0.023 C 
ATOM     15  H   UNL     1      28.633 -23.830 -15.718  0.00  0.00    -0.084 HD
ATOM     16  H   UNL     1      28.602 -23.295 -14.226  0.00  0.00    -0.084 HD
ENDBRANCH   3  11
BRANCH   6  17
ATOM     17  C   UNL     1      34.202 -21.260 -19.437  0.00  0.00    +0.004 C 
ATOM     18  C   UNL     1      33.132 -20.606 -20.048  0.00  0.00    +0.001 C 
ATOM     19  C   UNL     1      35.497 -21.084 -19.922  0.00  0.00    +0.001 C 
ATOM     20  C   UNL     1      33.358 -19.775 -21.146  0.00  0.00    +0.010 C 
ATOM     21  C   UNL     1      35.723 -20.252 -21.019  0.00  0.00    +0.010 C 
ATOM     22  C   UNL     1      34.654 -19.598 -21.631  0.00  0.00    +0.068 C 
BRANCH  22  24
ATOM     23  N   UNL     1      35.075 -18.055 -23.668  0.00  0.00    -0.191 NA
ATOM     24  C   UNL     1      34.886 -18.747 -22.755  0.00  0.00    +0.100 C 
ENDBRANCH  22  24
ENDBRANCH   6  17
TORSDOF 3
ENDMDL
MODEL 7
REMARK VINA RESULT:      -9.3      5.793      8.963
REMARK  Name = 44404226
REMARK  3 active torsions:
REMARK  status: ('A' for Active; 'I' for Inactive)
REMARK    1  A    between atoms: C_3  and  C_11
REMARK    2  A    between atoms: C_6  and  C_17
REMARK    3  A    between atoms: C_22  and  C_24
REMARK                            x       y       z     vdW  Elec       q    Type
REMARK                         _______ _______ _______ _____ _____    ______ ____
ROOT
ATOM      1  F   UNL     1      36.049 -10.064 -24.818  0.00  0.00    -0.183 F 
ATOM      2  N   UNL     1      35.220  -8.158 -23.847  0.00  0.00    -0.217 NA
ATOM      3  C   UNL     1      32.931  -8.113 -23.071  0.00  0.00    -0.005 C 
ATOM      4  C   UNL     1      32.754  -9.426 -23.492  0.00  0.00    +0.001 C 
ATOM      5  C   UNL     1      34.172  -7.529 -23.268  0.00  0.00    +0.097 C 
ATOM      6  C   UNL     1      33.809 -10.105 -24.091  0.00  0.00    +0.046 C 
ATOM      7  C   UNL     1      35.011  -9.433 -24.243  0.00  0.00    +0.222 C 
ENDROOT
BRANCH   3  11
ATOM      8  N   UNL     1      29.990  -5.881 -22.386  0.00  0.00    +0.387 N 
ATOM      9  C   UNL     1      30.680  -6.791 -23.326  0.00  0.00    -0.058 C 
ATOM     10  C   UNL     1      31.159  -5.042 -22.076  0.00  0.00    -0.062 C 
ATOM     11  C   UNL     1      31.803  -7.345 -22.416  0.00  0.00    +0.002 C 
ATOM     12  C   UNL     1      32.195  -6.076 -21.619  0.00  0.00    -0.019 C 
ATOM     13  C   UNL     1      31.187  -5.766 -24.348  0.00  0.00    -0.023 C 
ATOM     14  C   UNL     1      31.508  -4.546 -23.479  0.00  0.00    -0.023 C 
ATOM     15  H   UNL     1      29.627  -6.367 -21.564  0.00  0.00    -0.084 HD
ATOM     16  H   UNL     1      29.158  -5.405 -22.733  0.00  0.00    -0.084 HD
ENDBRANCH   3  11
BRANCH   6  17
ATOM     17  C   UNL     1      33.651 -11.471 -24.536  0.00  0.00    +0.004 C 
ATOM     18  C   UNL     1      33.598 -11.757 -25.900  0.00  0.00    +0.001 C 
ATOM     19  C   UNL     1      33.551 -12.502 -23.603  0.00  0.00    +0.001 C 
ATOM     20  C   UNL     1      33.445 -13.076 -26.331  0.00  0.00    +0.010 C 
ATOM     21  C   UNL     1      33.398 -13.820 -24.032  0.00  0.00    +0.010 C 
ATOM     22  C   UNL     1      33.345 -14.107 -25.396  0.00  0.00    +0.068 C 
BRANCH  22  24
ATOM     23  N   UNL     1      33.062 -16.554 -26.195  0.00  0.00    -0.191 NA
ATOM     24  C   UNL     1      33.189 -15.457 -25.837  0.00  0.00    +0.100 C 
ENDBRANCH  22  24
ENDBRANCH   6  17
TORSDOF 3
ENDMDL
MODEL 8
REMARK VINA RESULT:      -9.2      5.319     10.567
REMARK  Name = 44404226
REMARK  3 active torsions:
REMARK  status: ('A' for Active; 'I' for Inactive)
REMARK    1  A    between atoms: C_3  and  C_11
REMARK    2  A    between atoms: C_6  and  C_17
REMARK    3  A    between atoms: C_22  and  C_24
REMARK                            x       y       z     vdW  Elec       q    Type
REMARK                         _______ _______ _______ _____ _____    ______ ____
ROOT
ATOM      1  F   UNL     1      31.969  -8.097 -19.874  0.00  0.00    -0.183 F 
ATOM      2  N   UNL     1      31.791 -10.335 -19.403  0.00  0.00    -0.217 NA
ATOM      3  C   UNL     1      31.900 -11.945 -21.203  0.00  0.00    -0.005 C 
ATOM      4  C   UNL     1      32.060 -10.916 -22.124  0.00  0.00    +0.001 C 
ATOM      5  C   UNL     1      31.772 -11.606 -19.866  0.00  0.00    +0.097 C 
ATOM      6  C   UNL     1      32.084  -9.597 -21.686  0.00  0.00    +0.046 C 
ATOM      7  C   UNL     1      31.948  -9.362 -20.327  0.00  0.00    +0.222 C 
ENDROOT
BRANCH   3  11
ATOM      8  N   UNL     1      32.656 -15.583 -21.748  0.00  0.00    +0.387 N 
ATOM      9  C   UNL     1      32.703 -14.416 -20.841  0.00  0.00    -0.058 C 
ATOM     10  C   UNL     1      33.254 -14.911 -22.914  0.00  0.00    -0.062 C 
ATOM     11  C   UNL     1      31.869 -13.392 -21.647  0.00  0.00    +0.002 C 
ATOM     12  C   UNL     1      32.347 -13.688 -23.090  0.00  0.00    -0.019 C 
ATOM     13  C   UNL     1      34.208 -14.124 -20.876  0.00  0.00    -0.023 C 
ATOM     14  C   UNL     1      34.592 -14.481 -22.315  0.00  0.00    -0.023 C 
ATOM     15  H   UNL     1      31.704 -15.904 -21.926  0.00  0.00    -0.084 HD
ATOM     16  H   UNL     1      33.110 -16.437 -21.424  0.00  0.00    -0.084 HD
ENDBRANCH   3  11
BRANCH   6  17
ATOM     17  C   UNL     1      32.250  -8.510 -22.624  0.00  0.00    +0.004 C 
ATOM     18  C   UNL     1      31.133  -7.949 -23.244  0.00  0.00    +0.001 C 
ATOM     19  C   UNL     1      33.525  -8.022 -22.908  0.00  0.00    +0.001 C 
ATOM     20  C   UNL     1      31.293  -6.900 -24.151  0.00  0.00    +0.010 C 
ATOM     21  C   UNL     1      33.684  -6.972 -23.813  0.00  0.00    +0.010 C 
ATOM     22  C   UNL     1      32.568  -6.412 -24.434  0.00  0.00    +0.068 C 
BRANCH  22  24
ATOM     23  N   UNL     1      32.864  -4.464 -26.115  0.00  0.00    -0.191 NA
ATOM     24  C   UNL     1      32.732  -5.337 -25.361  0.00  0.00    +0.100 C 
ENDBRANCH  22  24
ENDBRANCH   6  17
TORSDOF 3
ENDMDL
MODEL 9
REMARK VINA RESULT:      -9.2      4.361      7.126
REMARK  Name = 44404226
REMARK  3 active torsions:
REMARK  status: ('A' for Active; 'I' for Inactive)
REMARK    1  A    between atoms: C_3  and  C_11
REMARK    2  A    between atoms: C_6  and  C_17
REMARK    3  A    between atoms: C_22  and  C_24
REMARK                            x       y       z     vdW  Elec       q    Type
REMARK                         _______ _______ _______ _____ _____    ______ ____
ROOT
ATOM      1  F   UNL     1      32.305 -13.927 -20.105  0.00  0.00    -0.183 F 
ATOM      2  N   UNL     1      31.654 -11.743 -19.842  0.00  0.00    -0.217 NA
ATOM      3  C   UNL     1      31.789 -10.225 -21.719  0.00  0.00    -0.005 C 
ATOM      4  C   UNL     1      32.287 -11.246 -22.520  0.00  0.00    +0.001 C 
ATOM      5  C   UNL     1      31.489 -10.521 -20.399  0.00  0.00    +0.097 C 
ATOM      6  C   UNL     1      32.469 -12.515 -21.982  0.00  0.00    +0.046 C 
ATOM      7  C   UNL     1      32.140 -12.710 -20.651  0.00  0.00    +0.222 C 
ENDROOT
BRANCH   3  11
ATOM      8  N   UNL     1      32.018  -7.043 -23.700  0.00  0.00    +0.387 N 
ATOM      9  C   UNL     1      32.148  -8.516 -23.676  0.00  0.00    -0.058 C 
ATOM     10  C   UNL     1      32.838  -6.784 -22.505  0.00  0.00    -0.062 C 
ATOM     11  C   UNL     1      31.579  -8.831 -22.272  0.00  0.00    +0.002 C 
ATOM     12  C   UNL     1      32.160  -7.659 -21.444  0.00  0.00    -0.019 C 
ATOM     13  C   UNL     1      33.675  -8.640 -23.746  0.00  0.00    -0.023 C 
ATOM     14  C   UNL     1      34.154  -7.427 -22.942  0.00  0.00    -0.023 C 
ATOM     15  H   UNL     1      31.052  -6.732 -23.588  0.00  0.00    -0.084 HD
ATOM     16  H   UNL     1      32.293  -6.571 -24.561  0.00  0.00    -0.084 HD
ENDBRANCH   3  11
BRANCH   6  17
ATOM     17  C   UNL     1      32.984 -13.594 -22.795  0.00  0.00    +0.004 C 
ATOM     18  C   UNL     1      32.617 -13.690 -24.138  0.00  0.00    +0.001 C 
ATOM     19  C   UNL     1      33.846 -14.538 -22.238  0.00  0.00    +0.001 C 
ATOM     20  C   UNL     1      33.113 -14.732 -24.923  0.00  0.00    +0.010 C 
ATOM     21  C   UNL     1      34.342 -15.578 -23.023  0.00  0.00    +0.010 C 
ATOM     22  C   UNL     1      33.975 -15.675 -24.366  0.00  0.00    +0.068 C 
BRANCH  22  24
ATOM     23  N   UNL     1      34.897 -17.607 -25.823  0.00  0.00    -0.191 NA
ATOM     24  C   UNL     1      34.484 -16.741 -25.170  0.00  0.00    +0.100 C 
ENDBRANCH  22  24
ENDBRANCH   6  17
TORSDOF 3
ENDMDL
