MODEL 1
REMARK VINA RESULT:     -11.3      0.000      0.000
REMARK  Name = 4814
REMARK  7 active torsions:
REMARK  status: ('A' for Active; 'I' for Inactive)
REMARK    1  A    between atoms: C_1  and  C_9
REMARK    2  A    between atoms: C_2  and  C_20
REMARK    3  A    between atoms: C_4  and  O_29
REMARK    4  A    between atoms: N_8  and  C_11
REMARK    5  A    between atoms: C_11  and  C_13
REMARK    6  A    between atoms: N_19  and  C_22
REMARK    7  A    between atoms: C_22  and  C_24
REMARK                            x       y       z     vdW  Elec       q    Type
REMARK                         _______ _______ _______ _____ _____    ______ ____
ROOT
ATOM      1  C   UNL     1      33.539 -14.254 -23.028  0.00  0.00    +0.087 C 
ATOM      2  C   UNL     1      34.200 -16.369 -22.067  0.00  0.00    +0.054 C 
ATOM      3  C   UNL     1      34.280 -15.434 -23.099  0.00  0.00    +0.012 C 
ATOM      4  C   UNL     1      32.719 -14.011 -21.927  0.00  0.00    +0.143 C 
ATOM      5  C   UNL     1      33.381 -16.126 -20.966  0.00  0.00    +0.008 C 
ATOM      6  C   UNL     1      32.639 -14.946 -20.895  0.00  0.00    +0.037 C 
ENDROOT
BRANCH   1   9
ATOM      7  O   UNL     1      33.301 -13.605 -25.269  0.00  0.00    -0.270 OA
ATOM      8  N   UNL     1      34.096 -12.010 -23.786  0.00  0.00    -0.297 N 
ATOM      9  C   UNL     1      33.636 -13.290 -24.115  0.00  0.00    +0.249 C 
ATOM     10  H   UNL     1      34.345 -11.830 -22.850  0.00  0.00    +0.150 HD
BRANCH   8  11
ATOM     11  C   UNL     1      34.225 -10.938 -24.747  0.00  0.00    +0.118 C 
BRANCH  11  13
ATOM     12  N   UNL     1      32.312  -8.128 -23.122  0.00  0.00    -0.243 NA
ATOM     13  C   UNL     1      33.920  -9.599 -24.140  0.00  0.00    +0.017 C 
ATOM     14  C   UNL     1      34.905  -8.634 -24.034  0.00  0.00    +0.001 C 
ATOM     15  C   UNL     1      32.653  -9.311 -23.679  0.00  0.00    +0.096 C 
ATOM     16  C   UNL     1      34.592  -7.403 -23.468  0.00  0.00    +0.020 C 
ATOM     17  C   UNL     1      33.293  -7.202 -23.031  0.00  0.00    +0.099 C 
ENDBRANCH  11  13
ENDBRANCH   8  11
ENDBRANCH   1   9
BRANCH   2  20
ATOM     18  O   UNL     1      35.309 -18.070 -23.241  0.00  0.00    -0.270 OA
ATOM     19  N   UNL     1      35.335 -18.195 -20.927  0.00  0.00    -0.297 N 
ATOM     20  C   UNL     1      34.975 -17.599 -22.140  0.00  0.00    +0.246 C 
ATOM     21  H   UNL     1      35.036 -17.769 -20.091  0.00  0.00    +0.150 HD
BRANCH  19  22
ATOM     22  C   UNL     1      36.122 -19.405 -20.833  0.00  0.00    +0.118 C 
BRANCH  22  24
ATOM     23  N   UNL     1      35.510 -22.342 -18.554  0.00  0.00    -0.243 NA
ATOM     24  C   UNL     1      35.403 -20.487 -20.080  0.00  0.00    +0.017 C 
ATOM     25  C   UNL     1      34.033 -20.635 -20.203  0.00  0.00    +0.001 C 
ATOM     26  C   UNL     1      36.096 -21.348 -19.258  0.00  0.00    +0.096 C 
ATOM     27  C   UNL     1      33.394 -21.647 -19.494  0.00  0.00    +0.020 C 
ATOM     28  C   UNL     1      34.171 -22.467 -18.691  0.00  0.00    +0.099 C 
ENDBRANCH  22  24
ENDBRANCH  19  22
ENDBRANCH   2  20
BRANCH   4  29
ATOM     29  O   UNL     1      31.988 -12.864 -21.839  0.00  0.00    -0.471 OA
ATOM     30  C   UNL     1      31.838 -12.289 -20.543  0.00  0.00    +0.252 C 
ENDBRANCH   4  29
TORSDOF 7
ENDMDL
MODEL 2
REMARK VINA RESULT:     -11.1      1.347      2.392
REMARK  Name = 4814
REMARK  7 active torsions:
REMARK  status: ('A' for Active; 'I' for Inactive)
REMARK    1  A    between atoms: C_1  and  C_9
REMARK    2  A    between atoms: C_2  and  C_20
REMARK    3  A    between atoms: C_4  and  O_29
REMARK    4  A    between atoms: N_8  and  C_11
REMARK    5  A    between atoms: C_11  and  C_13
REMARK    6  A    between atoms: N_19  and  C_22
REMARK    7  A    between atoms: C_22  and  C_24
REMARK                            x       y       z     vdW  Elec       q    Type
REMARK                         _______ _______ _______ _____ _____    ______ ____
ROOT
ATOM      1  C   UNL     1      33.302 -14.483 -22.924  0.00  0.00    +0.087 C 
ATOM      2  C   UNL     1      34.639 -16.415 -22.364  0.00  0.00    +0.054 C 
ATOM      3  C   UNL     1      33.938 -15.275 -21.969  0.00  0.00    +0.012 C 
ATOM      4  C   UNL     1      33.368 -14.829 -24.273  0.00  0.00    +0.143 C 
ATOM      5  C   UNL     1      34.704 -16.761 -23.713  0.00  0.00    +0.008 C 
ATOM      6  C   UNL     1      34.069 -15.968 -24.669  0.00  0.00    +0.037 C 
ENDROOT
BRANCH   1   9
ATOM      7  O   UNL     1      31.812 -13.349 -21.512  0.00  0.00    -0.270 OA
ATOM      8  N   UNL     1      32.797 -12.120 -23.214  0.00  0.00    -0.297 N 
ATOM      9  C   UNL     1      32.574 -13.297 -22.492  0.00  0.00    +0.249 C 
ATOM     10  H   UNL     1      33.415 -12.152 -23.980  0.00  0.00    +0.150 HD
BRANCH   8  11
ATOM     11  C   UNL     1      32.169 -10.858 -22.894  0.00  0.00    +0.118 C 
BRANCH  11  13
ATOM     12  N   UNL     1      35.106  -8.833 -24.107  0.00  0.00    -0.243 NA
ATOM     13  C   UNL     1      33.100  -9.699 -23.100  0.00  0.00    +0.017 C 
ATOM     14  C   UNL     1      32.843  -8.476 -22.506  0.00  0.00    +0.001 C 
ATOM     15  C   UNL     1      34.227  -9.835 -23.882  0.00  0.00    +0.096 C 
ATOM     16  C   UNL     1      33.725  -7.421 -22.714  0.00  0.00    +0.020 C 
ATOM     17  C   UNL     1      34.831  -7.649 -23.516  0.00  0.00    +0.099 C 
ENDBRANCH  11  13
ENDBRANCH   8  11
ENDBRANCH   1   9
BRANCH   2  20
ATOM     18  O   UNL     1      35.422 -16.844 -20.195  0.00  0.00    -0.270 OA
ATOM     19  N   UNL     1      35.762 -18.495 -21.787  0.00  0.00    -0.297 N 
ATOM     20  C   UNL     1      35.300 -17.242 -21.367  0.00  0.00    +0.246 C 
ATOM     21  H   UNL     1      35.633 -18.747 -22.730  0.00  0.00    +0.150 HD
BRANCH  19  22
ATOM     22  C   UNL     1      36.417 -19.441 -20.910  0.00  0.00    +0.118 C 
BRANCH  22  24
ATOM     23  N   UNL     1      35.071 -22.391 -18.992  0.00  0.00    -0.243 NA
ATOM     24  C   UNL     1      35.444 -20.405 -20.296  0.00  0.00    +0.017 C 
ATOM     25  C   UNL     1      34.081 -20.220 -20.450  0.00  0.00    +0.001 C 
ATOM     26  C   UNL     1      35.892 -21.487 -19.571  0.00  0.00    +0.096 C 
ATOM     27  C   UNL     1      33.203 -21.130 -19.869  0.00  0.00    +0.020 C 
ATOM     28  C   UNL     1      33.744 -22.189 -19.158  0.00  0.00    +0.099 C 
ENDBRANCH  22  24
ENDBRANCH  19  22
ENDBRANCH   2  20
BRANCH   4  29
ATOM     29  O   UNL     1      32.752 -14.067 -25.222  0.00  0.00    -0.471 OA
ATOM     30  C   UNL     1      32.966 -14.431 -26.584  0.00  0.00    +0.252 C 
ENDBRANCH   4  29
TORSDOF 7
ENDMDL
MODEL 3
REMARK VINA RESULT:     -10.9      1.882      9.795
REMARK  Name = 4814
REMARK  7 active torsions:
REMARK  status: ('A' for Active; 'I' for Inactive)
REMARK    1  A    between atoms: C_1  and  C_9
REMARK    2  A    between atoms: C_2  and  C_20
REMARK    3  A    between atoms: C_4  and  O_29
REMARK    4  A    between atoms: N_8  and  C_11
REMARK    5  A    between atoms: C_11  and  C_13
REMARK    6  A    between atoms: N_19  and  C_22
REMARK    7  A    between atoms: C_22  and  C_24
REMARK                            x       y       z     vdW  Elec       q    Type
REMARK                         _______ _______ _______ _____ _____    ______ ____
ROOT
ATOM      1  C   UNL     1      34.344 -16.014 -22.108  0.00  0.00    +0.087 C 
ATOM      2  C   UNL     1      32.914 -14.068 -22.173  0.00  0.00    +0.054 C 
ATOM      3  C   UNL     1      33.615 -15.029 -21.443  0.00  0.00    +0.012 C 
ATOM      4  C   UNL     1      34.373 -16.039 -23.503  0.00  0.00    +0.143 C 
ATOM      5  C   UNL     1      32.943 -14.093 -23.567  0.00  0.00    +0.008 C 
ATOM      6  C   UNL     1      33.672 -15.079 -24.233  0.00  0.00    +0.037 C 
ENDROOT
BRANCH   1   9
ATOM      7  O   UNL     1      35.456 -16.745 -20.178  0.00  0.00    -0.270 OA
ATOM      8  N   UNL     1      35.280 -18.253 -21.930  0.00  0.00    -0.297 N 
ATOM      9  C   UNL     1      35.070 -17.007 -21.329  0.00  0.00    +0.249 C 
ATOM     10  H   UNL     1      34.946 -18.391 -22.846  0.00  0.00    +0.150 HD
BRANCH   8  11
ATOM     11  C   UNL     1      35.961 -19.349 -21.278  0.00  0.00    +0.118 C 
BRANCH  11  13
ATOM     12  N   UNL     1      32.739 -20.813 -19.985  0.00  0.00    -0.243 NA
ATOM     13  C   UNL     1      35.011 -20.227 -20.517  0.00  0.00    +0.017 C 
ATOM     14  C   UNL     1      35.488 -21.219 -19.679  0.00  0.00    +0.001 C 
ATOM     15  C   UNL     1      33.648 -20.059 -20.640  0.00  0.00    +0.096 C 
ATOM     16  C   UNL     1      34.584 -22.016 -18.986  0.00  0.00    +0.020 C 
ATOM     17  C   UNL     1      33.232 -21.775 -19.172  0.00  0.00    +0.099 C 
ENDBRANCH  11  13
ENDBRANCH   8  11
ENDBRANCH   1   9
BRANCH   2  20
ATOM     18  O   UNL     1      32.121 -13.010 -20.236  0.00  0.00    -0.270 OA
ATOM     19  N   UNL     1      31.499 -12.091 -22.272  0.00  0.00    -0.297 N 
ATOM     20  C   UNL     1      32.155 -13.040 -21.479  0.00  0.00    +0.246 C 
ATOM     21  H   UNL     1      31.567 -12.174 -23.250  0.00  0.00    +0.150 HD
BRANCH  19  22
ATOM     22  C   UNL     1      30.725 -10.995 -21.731  0.00  0.00    +0.118 C 
BRANCH  22  24
ATOM     23  N   UNL     1      32.591  -8.320 -19.844  0.00  0.00    -0.243 NA
ATOM     24  C   UNL     1      31.576  -9.789 -21.455  0.00  0.00    +0.017 C 
ATOM     25  C   UNL     1      32.112  -9.055 -22.499  0.00  0.00    +0.001 C 
ATOM     26  C   UNL     1      31.834  -9.395 -20.161  0.00  0.00    +0.096 C 
ATOM     27  C   UNL     1      32.896  -7.943 -22.213  0.00  0.00    +0.020 C 
ATOM     28  C   UNL     1      33.103  -7.620 -20.881  0.00  0.00    +0.099 C 
ENDBRANCH  22  24
ENDBRANCH  19  22
ENDBRANCH   2  20
BRANCH   4  29
ATOM     29  O   UNL     1      35.080 -16.993 -24.171  0.00  0.00    -0.471 OA
ATOM     30  C   UNL     1      34.428 -17.637 -25.263  0.00  0.00    +0.252 C 
ENDBRANCH   4  29
TORSDOF 7
ENDMDL
MODEL 4
REMARK VINA RESULT:     -10.9      6.850     10.482
REMARK  Name = 4814
REMARK  7 active torsions:
REMARK  status: ('A' for Active; 'I' for Inactive)
REMARK    1  A    between atoms: C_1  and  C_9
REMARK    2  A    between atoms: C_2  and  C_20
REMARK    3  A    between atoms: C_4  and  O_29
REMARK    4  A    between atoms: N_8  and  C_11
REMARK    5  A    between atoms: C_11  and  C_13
REMARK    6  A    between atoms: N_19  and  C_22
REMARK    7  A    between atoms: C_22  and  C_24
REMARK                            x       y       z     vdW  Elec       q    Type
REMARK                         _______ _______ _______ _____ _____    ______ ____
ROOT
ATOM      1  C   UNL     1      33.080 -23.019 -16.961  0.00  0.00    +0.087 C 
ATOM      2  C   UNL     1      34.056 -23.477 -14.799  0.00  0.00    +0.054 C 
ATOM      3  C   UNL     1      34.204 -23.247 -16.167  0.00  0.00    +0.012 C 
ATOM      4  C   UNL     1      31.809 -23.022 -16.387  0.00  0.00    +0.143 C 
ATOM      5  C   UNL     1      32.785 -23.479 -14.226  0.00  0.00    +0.008 C 
ATOM      6  C   UNL     1      31.661 -23.253 -15.020  0.00  0.00    +0.037 C 
ENDROOT
BRANCH   1   9
ATOM      7  O   UNL     1      33.751 -23.655 -19.116  0.00  0.00    -0.270 OA
ATOM      8  N   UNL     1      32.822 -21.544 -18.879  0.00  0.00    -0.297 N 
ATOM      9  C   UNL     1      33.256 -22.780 -18.387  0.00  0.00    +0.249 C 
ATOM     10  H   UNL     1      32.439 -20.897 -18.244  0.00  0.00    +0.150 HD
BRANCH   8  11
ATOM     11  C   UNL     1      32.906 -21.167 -20.273  0.00  0.00    +0.118 C 
BRANCH  11  13
ATOM     12  N   UNL     1      36.430 -19.838 -20.381  0.00  0.00    -0.243 NA
ATOM     13  C   UNL     1      34.065 -20.252 -20.538  0.00  0.00    +0.017 C 
ATOM     14  C   UNL     1      33.868 -19.029 -21.155  0.00  0.00    +0.001 C 
ATOM     15  C   UNL     1      35.343 -20.614 -20.171  0.00  0.00    +0.096 C 
ATOM     16  C   UNL     1      34.961 -18.201 -21.386  0.00  0.00    +0.020 C 
ATOM     17  C   UNL     1      36.210 -18.648 -20.984  0.00  0.00    +0.099 C 
ENDBRANCH  11  13
ENDBRANCH   8  11
ENDBRANCH   1   9
BRANCH   2  20
ATOM     18  O   UNL     1      36.140 -22.868 -13.912  0.00  0.00    -0.270 OA
ATOM     19  N   UNL     1      35.262 -24.906 -13.242  0.00  0.00    -0.297 N 
ATOM     20  C   UNL     1      35.228 -23.712 -13.971  0.00  0.00    +0.246 C 
ATOM     21  H   UNL     1      34.507 -25.530 -13.336  0.00  0.00    +0.150 HD
BRANCH  19  22
ATOM     22  C   UNL     1      36.346 -25.273 -12.358  0.00  0.00    +0.118 C 
BRANCH  22  24
ATOM     23  N   UNL     1      38.735 -26.918 -14.762  0.00  0.00    -0.243 NA
ATOM     24  C   UNL     1      37.607 -25.581 -13.112  0.00  0.00    +0.017 C 
ATOM     25  C   UNL     1      38.761 -24.856 -12.875  0.00  0.00    +0.001 C 
ATOM     26  C   UNL     1      37.634 -26.590 -14.049  0.00  0.00    +0.096 C 
ATOM     27  C   UNL     1      39.915 -25.164 -13.588  0.00  0.00    +0.020 C 
ATOM     28  C   UNL     1      39.850 -26.195 -14.512  0.00  0.00    +0.099 C 
ENDBRANCH  22  24
ENDBRANCH  19  22
ENDBRANCH   2  20
BRANCH   4  29
ATOM     29  O   UNL     1      30.699 -22.801 -17.146  0.00  0.00    -0.471 OA
ATOM     30  C   UNL     1      29.441 -22.818 -16.475  0.00  0.00    +0.252 C 
ENDBRANCH   4  29
TORSDOF 7
ENDMDL
MODEL 5
REMARK VINA RESULT:     -10.8      7.393     12.556
REMARK  Name = 4814
REMARK  7 active torsions:
REMARK  status: ('A' for Active; 'I' for Inactive)
REMARK    1  A    between atoms: C_1  and  C_9
REMARK    2  A    between atoms: C_2  and  C_20
REMARK    3  A    between atoms: C_4  and  O_29
REMARK    4  A    between atoms: N_8  and  C_11
REMARK    5  A    between atoms: C_11  and  C_13
REMARK    6  A    between atoms: N_19  and  C_22
REMARK    7  A    between atoms: C_22  and  C_24
REMARK                            x       y       z     vdW  Elec       q    Type
REMARK                         _______ _______ _______ _____ _____    ______ ____
ROOT
ATOM      1  C   UNL     1      35.487 -23.830 -14.413  0.00  0.00    +0.087 C 
ATOM      2  C   UNL     1      36.826 -22.676 -16.059  0.00  0.00    +0.054 C 
ATOM      3  C   UNL     1      35.596 -22.888 -15.436  0.00  0.00    +0.012 C 
ATOM      4  C   UNL     1      36.607 -24.559 -14.014  0.00  0.00    +0.143 C 
ATOM      5  C   UNL     1      37.946 -23.404 -15.660  0.00  0.00    +0.008 C 
ATOM      6  C   UNL     1      37.837 -24.347 -14.637  0.00  0.00    +0.037 C 
ENDROOT
BRANCH   1   9
ATOM      7  O   UNL     1      34.044 -23.798 -12.564  0.00  0.00    -0.270 OA
ATOM      8  N   UNL     1      33.151 -24.488 -14.590  0.00  0.00    -0.297 N 
ATOM      9  C   UNL     1      34.195 -24.037 -13.774  0.00  0.00    +0.249 C 
ATOM     10  H   UNL     1      33.342 -24.657 -15.541  0.00  0.00    +0.150 HD
BRANCH   8  11
ATOM     11  C   UNL     1      31.807 -24.718 -14.110  0.00  0.00    +0.118 C 
BRANCH  11  13
ATOM     12  N   UNL     1      30.258 -22.617 -16.828  0.00  0.00    -0.243 NA
ATOM     13  C   UNL     1      30.775 -24.121 -15.022  0.00  0.00    +0.017 C 
ATOM     14  C   UNL     1      29.446 -24.491 -14.919  0.00  0.00    +0.001 C 
ATOM     15  C   UNL     1      31.135 -23.193 -15.976  0.00  0.00    +0.096 C 
ATOM     16  C   UNL     1      28.513 -23.920 -15.777  0.00  0.00    +0.020 C 
ATOM     17  C   UNL     1      28.966 -22.997 -16.706  0.00  0.00    +0.099 C 
ENDBRANCH  11  13
ENDBRANCH   8  11
ENDBRANCH   1   9
BRANCH   2  20
ATOM     18  O   UNL     1      37.476 -20.591 -16.913  0.00  0.00    -0.270 OA
ATOM     19  N   UNL     1      36.442 -22.056 -18.381  0.00  0.00    -0.297 N 
ATOM     20  C   UNL     1      36.940 -21.692 -17.124  0.00  0.00    +0.246 C 
ATOM     21  H   UNL     1      36.029 -22.944 -18.478  0.00  0.00    +0.150 HD
BRANCH  19  22
ATOM     22  C   UNL     1      36.502 -21.199 -19.544  0.00  0.00    +0.118 C 
BRANCH  22  24
ATOM     23  N   UNL     1      32.752 -21.031 -19.869  0.00  0.00    -0.243 NA
ATOM     24  C   UNL     1      35.138 -20.751 -19.983  0.00  0.00    +0.017 C 
ATOM     25  C   UNL     1      34.996 -19.696 -20.867  0.00  0.00    +0.001 C 
ATOM     26  C   UNL     1      34.008 -21.384 -19.514  0.00  0.00    +0.096 C 
ATOM     27  C   UNL     1      33.720 -19.304 -21.257  0.00  0.00    +0.020 C 
ATOM     28  C   UNL     1      32.641 -19.998 -20.734  0.00  0.00    +0.099 C 
ENDBRANCH  22  24
ENDBRANCH  19  22
ENDBRANCH   2  20
BRANCH   4  29
ATOM     29  O   UNL     1      36.521 -25.483 -13.015  0.00  0.00    -0.471 OA
ATOM     30  C   UNL     1      37.747 -25.953 -12.460  0.00  0.00    +0.252 C 
ENDBRANCH   4  29
TORSDOF 7
ENDMDL
MODEL 6
REMARK VINA RESULT:     -10.7      6.978     13.153
REMARK  Name = 4814
REMARK  7 active torsions:
REMARK  status: ('A' for Active; 'I' for Inactive)
REMARK    1  A    between atoms: C_1  and  C_9
REMARK    2  A    between atoms: C_2  and  C_20
REMARK    3  A    between atoms: C_4  and  O_29
REMARK    4  A    between atoms: N_8  and  C_11
REMARK    5  A    between atoms: C_11  and  C_13
REMARK    6  A    between atoms: N_19  and  C_22
REMARK    7  A    between atoms: C_22  and  C_24
REMARK                            x       y       z     vdW  Elec       q    Type
REMARK                         _______ _______ _______ _____ _____    ______ ____
ROOT
ATOM      1  C   UNL     1      33.963 -23.520 -15.150  0.00  0.00    +0.087 C 
ATOM      2  C   UNL     1      33.105 -22.987 -17.344  0.00  0.00    +0.054 C 
ATOM      3  C   UNL     1      34.186 -23.158 -16.478  0.00  0.00    +0.012 C 
ATOM      4  C   UNL     1      32.661 -23.711 -14.687  0.00  0.00    +0.143 C 
ATOM      5  C   UNL     1      31.804 -23.178 -16.882  0.00  0.00    +0.008 C 
ATOM      6  C   UNL     1      31.581 -23.540 -15.553  0.00  0.00    +0.037 C 
ENDROOT
BRANCH   1   9
ATOM      7  O   UNL     1      35.988 -22.824 -14.193  0.00  0.00    -0.270 OA
ATOM      8  N   UNL     1      35.133 -24.861 -13.489  0.00  0.00    -0.297 N 
ATOM      9  C   UNL     1      35.104 -23.694 -14.261  0.00  0.00    +0.249 C 
ATOM     10  H   UNL     1      34.397 -25.508 -13.594  0.00  0.00    +0.150 HD
BRANCH   8  11
ATOM     11  C   UNL     1      36.183 -25.166 -12.544  0.00  0.00    +0.118 C 
BRANCH  11  13
ATOM     12  N   UNL     1      38.649 -26.891 -14.812  0.00  0.00    -0.243 NA
ATOM     13  C   UNL     1      37.473 -25.511 -13.230  0.00  0.00    +0.017 C 
ATOM     14  C   UNL     1      38.632 -24.814 -12.941  0.00  0.00    +0.001 C 
ATOM     15  C   UNL     1      37.522 -26.529 -14.159  0.00  0.00    +0.096 C 
ATOM     16  C   UNL     1      39.812 -25.158 -13.592  0.00  0.00    +0.020 C 
ATOM     17  C   UNL     1      39.767 -26.194 -14.511  0.00  0.00    +0.099 C 
ENDBRANCH  11  13
ENDBRANCH   8  11
ENDBRANCH   1   9
BRANCH   2  20
ATOM     18  O   UNL     1      33.868 -23.411 -19.521  0.00  0.00    -0.270 OA
ATOM     19  N   UNL     1      32.921 -21.333 -19.120  0.00  0.00    -0.297 N 
ATOM     20  C   UNL     1      33.338 -22.611 -18.730  0.00  0.00    +0.246 C 
ATOM     21  H   UNL     1      32.509 -20.751 -18.442  0.00  0.00    +0.150 HD
BRANCH  19  22
ATOM     22  C   UNL     1      33.061 -20.823 -20.465  0.00  0.00    +0.118 C 
BRANCH  22  24
ATOM     23  N   UNL     1      36.724 -19.985 -20.176  0.00  0.00    -0.243 NA
ATOM     24  C   UNL     1      34.373 -20.120 -20.666  0.00  0.00    +0.017 C 
ATOM     25  C   UNL     1      34.455 -19.007 -21.485  0.00  0.00    +0.001 C 
ATOM     26  C   UNL     1      35.513 -20.571 -20.038  0.00  0.00    +0.096 C 
ATOM     27  C   UNL     1      35.683 -18.377 -21.652  0.00  0.00    +0.020 C 
ATOM     28  C   UNL     1      36.777 -18.900 -20.981  0.00  0.00    +0.099 C 
ENDBRANCH  22  24
ENDBRANCH  19  22
ENDBRANCH   2  20
BRANCH   4  29
ATOM     29  O   UNL     1      32.423 -24.066 -13.393  0.00  0.00    -0.471 OA
ATOM     30  C   UNL     1      31.215 -24.774 -13.127  0.00  0.00    +0.252 C 
ENDBRANCH   4  29
TORSDOF 7
ENDMDL
MODEL 7
REMARK VINA RESULT:     -10.5      1.718      2.848
REMARK  Name = 4814
REMARK  7 active torsions:
REMARK  status: ('A' for Active; 'I' for Inactive)
REMARK    1  A    between atoms: C_1  and  C_9
REMARK    2  A    between atoms: C_2  and  C_20
REMARK    3  A    between atoms: C_4  and  O_29
REMARK    4  A    between atoms: N_8  and  C_11
REMARK    5  A    between atoms: C_11  and  C_13
REMARK    6  A    between atoms: N_19  and  C_22
REMARK    7  A    between atoms: C_22  and  C_24
REMARK                            x       y       z     vdW  Elec       q    Type
REMARK                         _______ _______ _______ _____ _____    ______ ____
ROOT
ATOM      1  C   UNL     1      33.435 -15.010 -22.000  0.00  0.00    +0.087 C 
ATOM      2  C   UNL     1      34.785 -16.881 -22.714  0.00  0.00    +0.054 C 
ATOM      3  C   UNL     1      34.071 -16.218 -21.716  0.00  0.00    +0.012 C 
ATOM      4  C   UNL     1      33.514 -14.464 -23.281  0.00  0.00    +0.143 C 
ATOM      5  C   UNL     1      34.863 -16.336 -23.995  0.00  0.00    +0.008 C 
ATOM      6  C   UNL     1      34.228 -15.127 -24.279  0.00  0.00    +0.037 C 
ENDROOT
BRANCH   1   9
ATOM      7  O   UNL     1      32.438 -14.919 -19.879  0.00  0.00    -0.270 OA
ATOM      8  N   UNL     1      32.317 -13.007 -21.186  0.00  0.00    -0.297 N 
ATOM      9  C   UNL     1      32.694 -14.333 -20.944  0.00  0.00    +0.249 C 
ATOM     10  H   UNL     1      32.554 -12.606 -22.053  0.00  0.00    +0.150 HD
BRANCH   8  11
ATOM     11  C   UNL     1      31.599 -12.196 -20.229  0.00  0.00    +0.118 C 
BRANCH  11  13
ATOM     12  N   UNL     1      32.155  -8.520 -19.612  0.00  0.00    -0.243 NA
ATOM     13  C   UNL     1      31.780 -10.729 -20.490  0.00  0.00    +0.017 C 
ATOM     14  C   UNL     1      31.741 -10.234 -21.781  0.00  0.00    +0.001 C 
ATOM     15  C   UNL     1      31.986  -9.851 -19.447  0.00  0.00    +0.096 C 
ATOM     16  C   UNL     1      31.910  -8.870 -21.991  0.00  0.00    +0.020 C 
ATOM     17  C   UNL     1      32.112  -8.063 -20.883  0.00  0.00    +0.099 C 
ENDBRANCH  11  13
ENDBRANCH   8  11
ENDBRANCH   1   9
BRANCH   2  20
ATOM     18  O   UNL     1      35.701 -18.951 -23.327  0.00  0.00    -0.270 OA
ATOM     19  N   UNL     1      35.794 -18.379 -21.083  0.00  0.00    -0.297 N 
ATOM     20  C   UNL     1      35.447 -18.142 -22.418  0.00  0.00    +0.246 C 
ATOM     21  H   UNL     1      35.562 -17.695 -20.413  0.00  0.00    +0.150 HD
BRANCH  19  22
ATOM     22  C   UNL     1      36.476 -19.572 -20.633  0.00  0.00    +0.118 C 
BRANCH  22  24
ATOM     23  N   UNL     1      35.208 -22.432 -18.533  0.00  0.00    -0.243 NA
ATOM     24  C   UNL     1      35.533 -20.552 -19.997  0.00  0.00    +0.017 C 
ATOM     25  C   UNL     1      34.176 -20.497 -20.267  0.00  0.00    +0.001 C 
ATOM     26  C   UNL     1      36.003 -21.521 -19.138  0.00  0.00    +0.096 C 
ATOM     27  C   UNL     1      33.327 -21.418 -19.663  0.00  0.00    +0.020 C 
ATOM     28  C   UNL     1      33.888 -22.358 -18.813  0.00  0.00    +0.099 C 
ENDBRANCH  22  24
ENDBRANCH  19  22
ENDBRANCH   2  20
BRANCH   4  29
ATOM     29  O   UNL     1      32.898 -13.285 -23.578  0.00  0.00    -0.471 OA
ATOM     30  C   UNL     1      33.636 -12.348 -24.360  0.00  0.00    +0.252 C 
ENDBRANCH   4  29
TORSDOF 7
ENDMDL
MODEL 8
REMARK VINA RESULT:     -10.5      1.145      1.396
REMARK  Name = 4814
REMARK  7 active torsions:
REMARK  status: ('A' for Active; 'I' for Inactive)
REMARK    1  A    between atoms: C_1  and  C_9
REMARK    2  A    between atoms: C_2  and  C_20
REMARK    3  A    between atoms: C_4  and  O_29
REMARK    4  A    between atoms: N_8  and  C_11
REMARK    5  A    between atoms: C_11  and  C_13
REMARK    6  A    between atoms: N_19  and  C_22
REMARK    7  A    between atoms: C_22  and  C_24
REMARK                            x       y       z     vdW  Elec       q    Type
REMARK                         _______ _______ _______ _____ _____    ______ ____
ROOT
ATOM      1  C   UNL     1      33.587 -13.043 -23.446  0.00  0.00    +0.087 C 
ATOM      2  C   UNL     1      33.976 -15.332 -22.781  0.00  0.00    +0.054 C 
ATOM      3  C   UNL     1      34.300 -14.234 -23.578  0.00  0.00    +0.012 C 
ATOM      4  C   UNL     1      32.551 -12.950 -22.517  0.00  0.00    +0.143 C 
ATOM      5  C   UNL     1      32.941 -15.239 -21.852  0.00  0.00    +0.008 C 
ATOM      6  C   UNL     1      32.227 -14.048 -21.719  0.00  0.00    +0.037 C 
ENDROOT
BRANCH   1   9
ATOM      7  O   UNL     1      33.938 -12.016 -25.524  0.00  0.00    -0.270 OA
ATOM      8  N   UNL     1      34.252 -10.709 -23.634  0.00  0.00    -0.297 N 
ATOM      9  C   UNL     1      33.940 -11.908 -24.286  0.00  0.00    +0.249 C 
ATOM     10  H   UNL     1      34.234 -10.696 -22.649  0.00  0.00    +0.150 HD
BRANCH   8  11
ATOM     11  C   UNL     1      34.599  -9.490 -24.329  0.00  0.00    +0.118 C 
BRANCH  11  13
ATOM     12  N   UNL     1      32.274  -7.403 -22.223  0.00  0.00    -0.243 NA
ATOM     13  C   UNL     1      33.784  -8.322 -23.855  0.00  0.00    +0.017 C 
ATOM     14  C   UNL     1      33.775  -7.136 -24.566  0.00  0.00    +0.001 C 
ATOM     15  C   UNL     1      33.030  -8.414 -22.704  0.00  0.00    +0.096 C 
ATOM     16  C   UNL     1      33.009  -6.072 -24.102  0.00  0.00    +0.020 C 
ATOM     17  C   UNL     1      32.284  -6.254 -22.936  0.00  0.00    +0.099 C 
ENDBRANCH  11  13
ENDBRANCH   8  11
ENDBRANCH   1   9
BRANCH   2  20
ATOM     18  O   UNL     1      35.079 -16.975 -24.039  0.00  0.00    -0.270 OA
ATOM     19  N   UNL     1      35.026 -17.265 -21.740  0.00  0.00    -0.297 N 
ATOM     20  C   UNL     1      34.722 -16.574 -22.918  0.00  0.00    +0.246 C 
ATOM     21  H   UNL     1      34.712 -16.891 -20.886  0.00  0.00    +0.150 HD
BRANCH  19  22
ATOM     22  C   UNL     1      35.780 -18.499 -21.709  0.00  0.00    +0.118 C 
BRANCH  22  24
ATOM     23  N   UNL     1      35.185 -21.572 -19.610  0.00  0.00    -0.243 NA
ATOM     24  C   UNL     1      35.063 -19.576 -20.948  0.00  0.00    +0.017 C 
ATOM     25  C   UNL     1      33.681 -19.583 -20.875  0.00  0.00    +0.001 C 
ATOM     26  C   UNL     1      35.769 -20.573 -20.311  0.00  0.00    +0.096 C 
ATOM     27  C   UNL     1      33.044 -20.594 -20.163  0.00  0.00    +0.020 C 
ATOM     28  C   UNL     1      33.834 -21.556 -19.555  0.00  0.00    +0.099 C 
ENDBRANCH  22  24
ENDBRANCH  19  22
ENDBRANCH   2  20
BRANCH   4  29
ATOM     29  O   UNL     1      31.843 -11.794 -22.372  0.00  0.00    -0.471 OA
ATOM     30  C   UNL     1      31.108 -11.632 -21.161  0.00  0.00    +0.252 C 
ENDBRANCH   4  29
TORSDOF 7
ENDMDL
MODEL 9
REMARK VINA RESULT:     -10.5      2.105      9.364
REMARK  Name = 4814
REMARK  7 active torsions:
REMARK  status: ('A' for Active; 'I' for Inactive)
REMARK    1  A    between atoms: C_1  and  C_9
REMARK    2  A    between atoms: C_2  and  C_20
REMARK    3  A    between atoms: C_4  and  O_29
REMARK    4  A    between atoms: N_8  and  C_11
REMARK    5  A    between atoms: C_11  and  C_13
REMARK    6  A    between atoms: N_19  and  C_22
REMARK    7  A    between atoms: C_22  and  C_24
REMARK                            x       y       z     vdW  Elec       q    Type
REMARK                         _______ _______ _______ _____ _____    ______ ____
ROOT
ATOM      1  C   UNL     1      34.598 -16.042 -22.822  0.00  0.00    +0.087 C 
ATOM      2  C   UNL     1      33.596 -14.022 -23.687  0.00  0.00    +0.054 C 
ATOM      3  C   UNL     1      34.146 -14.738 -22.624  0.00  0.00    +0.012 C 
ATOM      4  C   UNL     1      34.499 -16.630 -24.083  0.00  0.00    +0.143 C 
ATOM      5  C   UNL     1      33.497 -14.609 -24.947  0.00  0.00    +0.008 C 
ATOM      6  C   UNL     1      33.948 -15.914 -25.146  0.00  0.00    +0.037 C 
ENDROOT
BRANCH   1   9
ATOM      7  O   UNL     1      35.140 -16.294 -20.555  0.00  0.00    -0.270 OA
ATOM      8  N   UNL     1      35.722 -18.029 -21.979  0.00  0.00    -0.297 N 
ATOM      9  C   UNL     1      35.170 -16.774 -21.700  0.00  0.00    +0.249 C 
ATOM     10  H   UNL     1      35.711 -18.347 -22.911  0.00  0.00    +0.150 HD
BRANCH   8  11
ATOM     11  C   UNL     1      36.305 -18.885 -20.970  0.00  0.00    +0.118 C 
BRANCH  11  13
ATOM     12  N   UNL     1      34.962 -22.013 -19.356  0.00  0.00    -0.243 NA
ATOM     13  C   UNL     1      35.334 -19.920 -20.481  0.00  0.00    +0.017 C 
ATOM     14  C   UNL     1      33.975 -19.762 -20.687  0.00  0.00    +0.001 C 
ATOM     15  C   UNL     1      35.781 -21.044 -19.821  0.00  0.00    +0.096 C 
ATOM     16  C   UNL     1      33.100 -20.738 -20.223  0.00  0.00    +0.020 C 
ATOM     17  C   UNL     1      33.639 -21.834 -19.570  0.00  0.00    +0.099 C 
ENDBRANCH  11  13
ENDBRANCH   8  11
ENDBRANCH   1   9
BRANCH   2  20
ATOM     18  O   UNL     1      33.823 -11.692 -23.829  0.00  0.00    -0.270 OA
ATOM     19  N   UNL     1      31.864 -12.506 -22.896  0.00  0.00    -0.297 N 
ATOM     20  C   UNL     1      33.127 -12.660 -23.479  0.00  0.00    +0.246 C 
ATOM     21  H   UNL     1      31.366 -13.316 -22.642  0.00  0.00    +0.150 HD
BRANCH  19  22
ATOM     22  C   UNL     1      31.250 -11.220 -22.646  0.00  0.00    +0.118 C 
BRANCH  22  24
ATOM     23  N   UNL     1      32.345  -8.954 -19.842  0.00  0.00    -0.243 NA
ATOM     24  C   UNL     1      31.536 -10.721 -21.260  0.00  0.00    +0.017 C 
ATOM     25  C   UNL     1      31.274 -11.517 -20.159  0.00  0.00    +0.001 C 
ATOM     26  C   UNL     1      32.064  -9.464 -21.063  0.00  0.00    +0.096 C 
ATOM     27  C   UNL     1      31.550 -11.028 -18.886  0.00  0.00    +0.020 C 
ATOM     28  C   UNL     1      32.080  -9.752 -18.783  0.00  0.00    +0.099 C 
ENDBRANCH  22  24
ENDBRANCH  19  22
ENDBRANCH   2  20
BRANCH   4  29
ATOM     29  O   UNL     1      34.935 -17.904 -24.298  0.00  0.00    -0.471 OA
ATOM     30  C   UNL     1      34.156 -18.717 -25.172  0.00  0.00    +0.252 C 
ENDBRANCH   4  29
TORSDOF 7
ENDMDL
