MODEL 1
REMARK VINA RESULT:      -6.2      0.000      0.000
REMARK  Name = 2733981
REMARK  2 active torsions:
REMARK  status: ('A' for Active; 'I' for Inactive)
REMARK    1  A    between atoms: C_5  and  N_12
REMARK    2  A    between atoms: C_8  and  O_15
REMARK                            x       y       z     vdW  Elec       q    Type
REMARK                         _______ _______ _______ _____ _____    ______ ____
ROOT
ATOM      1  O   UNL     1      37.656 -22.905 -14.308  0.00  0.00    -0.273 OA
ATOM      2  N   UNL     1      35.592 -23.832 -13.888  0.00  0.00    -0.246 N 
ATOM      3  N   UNL     1      34.906 -24.388 -11.714  0.00  0.00    -0.341 NA
ATOM      4  N   UNL     1      33.483 -24.768 -13.538  0.00  0.00    -0.321 N 
ATOM      5  C   UNL     1      37.095 -23.420 -12.050  0.00  0.00    +0.218 C 
ATOM      6  C   UNL     1      36.832 -23.352 -13.517  0.00  0.00    +0.253 C 
ATOM      7  C   UNL     1      34.663 -24.335 -12.992  0.00  0.00    +0.241 C 
ATOM      8  C   UNL     1      36.122 -23.927 -11.270  0.00  0.00    +0.275 C 
ATOM      9  H   UNL     1      35.356 -23.816 -14.844  0.00  0.00    +0.159 HD
ATOM     10  H   UNL     1      33.340 -24.709 -14.511  0.00  0.00    +0.146 HD
ATOM     11  H   UNL     1      32.779 -25.138 -12.958  0.00  0.00    +0.146 HD
ENDROOT
BRANCH   5  12
ATOM     12  N   UNL     1      38.314 -22.952 -11.653  0.00  0.00    -0.307 NA
ATOM     13  H   UNL     1      38.711 -23.267 -10.810  0.00  0.00    +0.120 HD
ATOM     14  H   UNL     1      38.796 -22.298 -12.211  0.00  0.00    +0.120 HD
ENDBRANCH   5  12
BRANCH   8  15
ATOM     15  O   UNL     1      36.305 -24.018  -9.896  0.00  0.00    -0.485 OA
ATOM     16  H   UNL     1      35.749 -23.534  -9.316  0.00  0.00    +0.295 HD
ENDBRANCH   8  15
TORSDOF 2
ENDMDL
MODEL 2
REMARK VINA RESULT:      -6.0      2.071      3.012
REMARK  Name = 2733981
REMARK  2 active torsions:
REMARK  status: ('A' for Active; 'I' for Inactive)
REMARK    1  A    between atoms: C_5  and  N_12
REMARK    2  A    between atoms: C_8  and  O_15
REMARK                            x       y       z     vdW  Elec       q    Type
REMARK                         _______ _______ _______ _____ _____    ______ ____
ROOT
ATOM      1  O   UNL     1      34.654 -24.965 -11.599  0.00  0.00    -0.273 OA
ATOM      2  N   UNL     1      36.050 -25.188 -13.415  0.00  0.00    -0.246 N 
ATOM      3  N   UNL     1      38.223 -24.301 -13.420  0.00  0.00    -0.341 NA
ATOM      4  N   UNL     1      37.410 -25.455 -15.293  0.00  0.00    -0.321 N 
ATOM      5  C   UNL     1      36.834 -24.012 -11.463  0.00  0.00    +0.218 C 
ATOM      6  C   UNL     1      35.735 -24.759 -12.141  0.00  0.00    +0.253 C 
ATOM      7  C   UNL     1      37.272 -24.955 -14.025  0.00  0.00    +0.241 C 
ATOM      8  C   UNL     1      37.981 -23.843 -12.148  0.00  0.00    +0.275 C 
ATOM      9  H   UNL     1      35.366 -25.687 -13.918  0.00  0.00    +0.159 HD
ATOM     10  H   UNL     1      36.666 -25.944 -15.712  0.00  0.00    +0.146 HD
ATOM     11  H   UNL     1      38.253 -25.325 -15.784  0.00  0.00    +0.146 HD
ENDROOT
BRANCH   5  12
ATOM     12  N   UNL     1      36.552 -23.575 -10.201  0.00  0.00    -0.307 NA
ATOM     13  H   UNL     1      36.088 -24.168  -9.567  0.00  0.00    +0.120 HD
ATOM     14  H   UNL     1      36.812 -22.666  -9.925  0.00  0.00    +0.120 HD
ENDBRANCH   5  12
BRANCH   8  15
ATOM     15  O   UNL     1      39.043 -23.156 -11.572  0.00  0.00    -0.485 OA
ATOM     16  H   UNL     1      39.882 -23.156 -11.990  0.00  0.00    +0.295 HD
ENDBRANCH   8  15
TORSDOF 2
ENDMDL
MODEL 3
REMARK VINA RESULT:      -6.0      2.894      3.794
REMARK  Name = 2733981
REMARK  2 active torsions:
REMARK  status: ('A' for Active; 'I' for Inactive)
REMARK    1  A    between atoms: C_5  and  N_12
REMARK    2  A    between atoms: C_8  and  O_15
REMARK                            x       y       z     vdW  Elec       q    Type
REMARK                         _______ _______ _______ _____ _____    ______ ____
ROOT
ATOM      1  O   UNL     1      39.193 -24.514 -13.048  0.00  0.00    -0.273 OA
ATOM      2  N   UNL     1      37.078 -23.911 -13.729  0.00  0.00    -0.246 N 
ATOM      3  N   UNL     1      35.855 -25.209 -15.255  0.00  0.00    -0.341 NA
ATOM      4  N   UNL     1      34.939 -23.239 -14.373  0.00  0.00    -0.321 N 
ATOM      5  C   UNL     1      38.069 -25.927 -14.604  0.00  0.00    +0.218 C 
ATOM      6  C   UNL     1      38.189 -24.731 -13.719  0.00  0.00    +0.253 C 
ATOM      7  C   UNL     1      35.946 -24.161 -14.487  0.00  0.00    +0.241 C 
ATOM      8  C   UNL     1      36.924 -26.071 -15.296  0.00  0.00    +0.275 C 
ATOM      9  H   UNL     1      37.094 -23.104 -13.166  0.00  0.00    +0.159 HD
ATOM     10  H   UNL     1      35.048 -22.461 -13.780  0.00  0.00    +0.146 HD
ATOM     11  H   UNL     1      34.106 -23.355 -14.885  0.00  0.00    +0.146 HD
ENDROOT
BRANCH   5  12
ATOM     12  N   UNL     1      39.153 -26.757 -14.614  0.00  0.00    -0.307 NA
ATOM     13  H   UNL     1      39.328 -27.346 -13.846  0.00  0.00    +0.120 HD
ATOM     14  H   UNL     1      39.759 -26.765 -15.390  0.00  0.00    +0.120 HD
ENDBRANCH   5  12
BRANCH   8  15
ATOM     15  O   UNL     1      36.750 -27.163 -16.138  0.00  0.00    -0.485 OA
ATOM     16  H   UNL     1      35.892 -27.512 -16.282  0.00  0.00    +0.295 HD
ENDBRANCH   8  15
TORSDOF 2
ENDMDL
MODEL 4
REMARK VINA RESULT:      -6.0      2.955      3.955
REMARK  Name = 2733981
REMARK  2 active torsions:
REMARK  status: ('A' for Active; 'I' for Inactive)
REMARK    1  A    between atoms: C_5  and  N_12
REMARK    2  A    between atoms: C_8  and  O_15
REMARK                            x       y       z     vdW  Elec       q    Type
REMARK                         _______ _______ _______ _____ _____    ______ ____
ROOT
ATOM      1  O   UNL     1      36.270 -23.924 -15.842  0.00  0.00    -0.273 OA
ATOM      2  N   UNL     1      38.316 -24.813 -15.275  0.00  0.00    -0.246 N 
ATOM      3  N   UNL     1      38.612 -26.089 -13.327  0.00  0.00    -0.341 NA
ATOM      4  N   UNL     1      40.420 -25.684 -14.765  0.00  0.00    -0.321 N 
ATOM      5  C   UNL     1      36.423 -25.197 -13.833  0.00  0.00    +0.218 C 
ATOM      6  C   UNL     1      36.970 -24.579 -15.076  0.00  0.00    +0.253 C 
ATOM      7  C   UNL     1      39.103 -25.554 -14.409  0.00  0.00    +0.241 C 
ATOM      8  C   UNL     1      37.277 -25.897 -13.063  0.00  0.00    +0.275 C 
ATOM      9  H   UNL     1      38.739 -24.431 -16.078  0.00  0.00    +0.159 HD
ATOM     10  H   UNL     1      40.749 -25.265 -15.592  0.00  0.00    +0.146 HD
ATOM     11  H   UNL     1      41.035 -26.198 -14.194  0.00  0.00    +0.146 HD
ENDROOT
BRANCH   5  12
ATOM     12  N   UNL     1      35.093 -24.982 -13.610  0.00  0.00    -0.307 NA
ATOM     13  H   UNL     1      34.431 -25.251 -14.286  0.00  0.00    +0.120 HD
ATOM     14  H   UNL     1      34.797 -24.558 -12.772  0.00  0.00    +0.120 HD
ENDBRANCH   5  12
BRANCH   8  15
ATOM     15  O   UNL     1      36.830 -26.498 -11.893  0.00  0.00    -0.485 OA
ATOM     16  H   UNL     1      36.505 -27.377 -11.911  0.00  0.00    +0.295 HD
ENDBRANCH   8  15
TORSDOF 2
ENDMDL
MODEL 5
REMARK VINA RESULT:      -5.9      2.904      4.120
REMARK  Name = 2733981
REMARK  2 active torsions:
REMARK  status: ('A' for Active; 'I' for Inactive)
REMARK    1  A    between atoms: C_5  and  N_12
REMARK    2  A    between atoms: C_8  and  O_15
REMARK                            x       y       z     vdW  Elec       q    Type
REMARK                         _______ _______ _______ _____ _____    ______ ____
ROOT
ATOM      1  O   UNL     1      39.428 -26.782 -14.833  0.00  0.00    -0.273 OA
ATOM      2  N   UNL     1      38.764 -25.247 -13.251  0.00  0.00    -0.246 N 
ATOM      3  N   UNL     1      36.547 -24.489 -13.119  0.00  0.00    -0.341 NA
ATOM      4  N   UNL     1      38.164 -23.691 -11.619  0.00  0.00    -0.321 N 
ATOM      5  C   UNL     1      37.144 -26.101 -14.818  0.00  0.00    +0.218 C 
ATOM      6  C   UNL     1      38.551 -26.092 -14.322  0.00  0.00    +0.253 C 
ATOM      7  C   UNL     1      37.772 -24.471 -12.675  0.00  0.00    +0.241 C 
ATOM      8  C   UNL     1      36.261 -25.307 -14.185  0.00  0.00    +0.275 C 
ATOM      9  H   UNL     1      39.673 -25.194 -12.876  0.00  0.00    +0.159 HD
ATOM     10  H   UNL     1      39.100 -23.708 -11.315  0.00  0.00    +0.146 HD
ATOM     11  H   UNL     1      37.508 -23.115 -11.164  0.00  0.00    +0.146 HD
ENDROOT
BRANCH   5  12
ATOM     12  N   UNL     1      36.904 -26.927 -15.878  0.00  0.00    -0.307 NA
ATOM     13  H   UNL     1      36.881 -27.902 -15.746  0.00  0.00    +0.120 HD
ATOM     14  H   UNL     1      36.753 -26.548 -16.774  0.00  0.00    +0.120 HD
ENDBRANCH   5  12
BRANCH   8  15
ATOM     15  O   UNL     1      34.934 -25.270 -14.598  0.00  0.00    -0.485 OA
ATOM     16  H   UNL     1      34.690 -24.759 -15.345  0.00  0.00    +0.295 HD
ENDBRANCH   8  15
TORSDOF 2
ENDMDL
MODEL 6
REMARK VINA RESULT:      -5.9      3.161      4.470
REMARK  Name = 2733981
REMARK  2 active torsions:
REMARK  status: ('A' for Active; 'I' for Inactive)
REMARK    1  A    between atoms: C_5  and  N_12
REMARK    2  A    between atoms: C_8  and  O_15
REMARK                            x       y       z     vdW  Elec       q    Type
REMARK                         _______ _______ _______ _____ _____    ______ ____
ROOT
ATOM      1  O   UNL     1      37.960 -24.334 -11.397  0.00  0.00    -0.273 OA
ATOM      2  N   UNL     1      39.186 -25.131 -13.175  0.00  0.00    -0.246 N 
ATOM      3  N   UNL     1      38.181 -26.295 -14.947  0.00  0.00    -0.341 NA
ATOM      4  N   UNL     1      40.493 -25.908 -14.945  0.00  0.00    -0.321 N 
ATOM      5  C   UNL     1      36.805 -25.500 -13.126  0.00  0.00    +0.218 C 
ATOM      6  C   UNL     1      38.017 -24.929 -12.469  0.00  0.00    +0.253 C 
ATOM      7  C   UNL     1      39.247 -25.801 -14.385  0.00  0.00    +0.241 C 
ATOM      8  C   UNL     1      36.979 -26.132 -14.301  0.00  0.00    +0.275 C 
ATOM      9  H   UNL     1      40.024 -24.779 -12.795  0.00  0.00    +0.159 HD
ATOM     10  H   UNL     1      41.273 -25.519 -14.487  0.00  0.00    +0.146 HD
ATOM     11  H   UNL     1      40.608 -26.373 -15.805  0.00  0.00    +0.146 HD
ENDROOT
BRANCH   5  12
ATOM     12  N   UNL     1      35.633 -25.316 -12.450  0.00  0.00    -0.307 NA
ATOM     13  H   UNL     1      35.631 -24.834 -11.592  0.00  0.00    +0.120 HD
ATOM     14  H   UNL     1      34.790 -25.664 -12.822  0.00  0.00    +0.120 HD
ENDBRANCH   5  12
BRANCH   8  15
ATOM     15  O   UNL     1      35.890 -26.687 -14.964  0.00  0.00    -0.485 OA
ATOM     16  H   UNL     1      35.575 -27.535 -14.719  0.00  0.00    +0.295 HD
ENDBRANCH   8  15
TORSDOF 2
ENDMDL
MODEL 7
REMARK VINA RESULT:      -5.8      2.910      3.345
REMARK  Name = 2733981
REMARK  2 active torsions:
REMARK  status: ('A' for Active; 'I' for Inactive)
REMARK    1  A    between atoms: C_5  and  N_12
REMARK    2  A    between atoms: C_8  and  O_15
REMARK                            x       y       z     vdW  Elec       q    Type
REMARK                         _______ _______ _______ _____ _____    ______ ____
ROOT
ATOM      1  O   UNL     1      36.784 -27.281 -16.037  0.00  0.00    -0.273 OA
ATOM      2  N   UNL     1      35.641 -25.686 -14.834  0.00  0.00    -0.246 N 
ATOM      3  N   UNL     1      36.724 -24.297 -13.282  0.00  0.00    -0.341 NA
ATOM      4  N   UNL     1      34.418 -24.089 -13.650  0.00  0.00    -0.321 N 
ATOM      5  C   UNL     1      38.013 -25.943 -14.495  0.00  0.00    +0.218 C 
ATOM      6  C   UNL     1      36.775 -26.381 -15.203  0.00  0.00    +0.253 C 
ATOM      7  C   UNL     1      35.635 -24.669 -13.892  0.00  0.00    +0.241 C 
ATOM      8  C   UNL     1      37.893 -24.946 -13.599  0.00  0.00    +0.275 C 
ATOM      9  H   UNL     1      34.789 -25.927 -15.264  0.00  0.00    +0.159 HD
ATOM     10  H   UNL     1      33.619 -24.401 -14.135  0.00  0.00    +0.146 HD
ATOM     11  H   UNL     1      34.342 -23.361 -12.993  0.00  0.00    +0.146 HD
ENDROOT
BRANCH   5  12
ATOM     12  N   UNL     1      39.151 -26.613 -14.840  0.00  0.00    -0.307 NA
ATOM     13  H   UNL     1      39.116 -27.328 -15.516  0.00  0.00    +0.120 HD
ATOM     14  H   UNL     1      40.008 -26.381 -14.413  0.00  0.00    +0.120 HD
ENDBRANCH   5  12
BRANCH   8  15
ATOM     15  O   UNL     1      39.009 -24.492 -12.906  0.00  0.00    -0.485 OA
ATOM     16  H   UNL     1      39.710 -25.081 -12.708  0.00  0.00    +0.295 HD
ENDBRANCH   8  15
TORSDOF 2
ENDMDL
MODEL 8
REMARK VINA RESULT:      -5.8      2.403      3.260
REMARK  Name = 2733981
REMARK  2 active torsions:
REMARK  status: ('A' for Active; 'I' for Inactive)
REMARK    1  A    between atoms: C_5  and  N_12
REMARK    2  A    between atoms: C_8  and  O_15
REMARK                            x       y       z     vdW  Elec       q    Type
REMARK                         _______ _______ _______ _____ _____    ______ ____
ROOT
ATOM      1  O   UNL     1      35.880 -23.958 -11.668  0.00  0.00    -0.273 OA
ATOM      2  N   UNL     1      36.074 -25.445 -13.415  0.00  0.00    -0.246 N 
ATOM      3  N   UNL     1      38.142 -25.893 -14.431  0.00  0.00    -0.341 NA
ATOM      4  N   UNL     1      36.195 -26.965 -15.181  0.00  0.00    -0.321 N 
ATOM      5  C   UNL     1      38.043 -24.314 -12.604  0.00  0.00    +0.218 C 
ATOM      6  C   UNL     1      36.571 -24.538 -12.500  0.00  0.00    +0.253 C 
ATOM      7  C   UNL     1      36.858 -26.098 -14.352  0.00  0.00    +0.241 C 
ATOM      8  C   UNL     1      38.707 -25.002 -13.551  0.00  0.00    +0.275 C 
ATOM      9  H   UNL     1      35.109 -25.636 -13.400  0.00  0.00    +0.159 HD
ATOM     10  H   UNL     1      35.224 -27.091 -15.086  0.00  0.00    +0.146 HD
ATOM     11  H   UNL     1      36.692 -27.463 -15.870  0.00  0.00    +0.146 HD
ENDROOT
BRANCH   5  12
ATOM     12  N   UNL     1      38.563 -23.422 -11.712  0.00  0.00    -0.307 NA
ATOM     13  H   UNL     1      38.146 -22.537 -11.601  0.00  0.00    +0.120 HD
ATOM     14  H   UNL     1      39.355 -23.663 -11.178  0.00  0.00    +0.120 HD
ENDBRANCH   5  12
BRANCH   8  15
ATOM     15  O   UNL     1      40.079 -24.839 -13.700  0.00  0.00    -0.485 OA
ATOM     16  H   UNL     1      40.533 -24.197 -13.190  0.00  0.00    +0.295 HD
ENDBRANCH   8  15
TORSDOF 2
ENDMDL
MODEL 9
REMARK VINA RESULT:      -5.8      2.255      3.447
REMARK  Name = 2733981
REMARK  2 active torsions:
REMARK  status: ('A' for Active; 'I' for Inactive)
REMARK    1  A    between atoms: C_5  and  N_12
REMARK    2  A    between atoms: C_8  and  O_15
REMARK                            x       y       z     vdW  Elec       q    Type
REMARK                         _______ _______ _______ _____ _____    ______ ____
ROOT
ATOM      1  O   UNL     1      37.047 -26.533 -11.927  0.00  0.00    -0.273 OA
ATOM      2  N   UNL     1      35.781 -24.959 -13.031  0.00  0.00    -0.246 N 
ATOM      3  N   UNL     1      36.657 -23.690 -14.802  0.00  0.00    -0.341 NA
ATOM      4  N   UNL     1      34.439 -23.380 -14.104  0.00  0.00    -0.321 N 
ATOM      5  C   UNL     1      38.067 -25.319 -13.706  0.00  0.00    +0.218 C 
ATOM      6  C   UNL     1      36.938 -25.675 -12.798  0.00  0.00    +0.253 C 
ATOM      7  C   UNL     1      35.662 -23.991 -14.016  0.00  0.00    +0.241 C 
ATOM      8  C   UNL     1      37.841 -24.364 -14.628  0.00  0.00    +0.275 C 
ATOM      9  H   UNL     1      34.998 -25.146 -12.465  0.00  0.00    +0.159 HD
ATOM     10  H   UNL     1      33.714 -23.639 -13.491  0.00  0.00    +0.146 HD
ATOM     11  H   UNL     1      34.286 -22.683 -14.782  0.00  0.00    +0.146 HD
ENDROOT
BRANCH   5  12
ATOM     12  N   UNL     1      39.225 -26.012 -13.499  0.00  0.00    -0.307 NA
ATOM     13  H   UNL     1      39.694 -25.939 -12.637  0.00  0.00    +0.120 HD
ATOM     14  H   UNL     1      39.591 -26.584 -14.212  0.00  0.00    +0.120 HD
ENDBRANCH   5  12
BRANCH   8  15
ATOM     15  O   UNL     1      38.852 -23.986 -15.504  0.00  0.00    -0.485 OA
ATOM     16  H   UNL     1      38.720 -24.056 -16.429  0.00  0.00    +0.295 HD
ENDBRANCH   8  15
TORSDOF 2
ENDMDL
