MODEL 1
REMARK VINA RESULT:      -9.4      0.000      0.000
REMARK  Name = 446856
REMARK  8 active torsions:
REMARK  status: ('A' for Active; 'I' for Inactive)
REMARK    1  A    between atoms: C_2  and  O_15
REMARK    2  A    between atoms: C_3  and  N_6
REMARK    3  A    between atoms: C_4  and  O_17
REMARK    4  A    between atoms: C_5  and  C_19
REMARK    5  A    between atoms: C_19  and  O_20
REMARK    6  A    between atoms: O_20  and  P_21
REMARK    7  A    between atoms: P_21  and  O_23
REMARK    8  A    between atoms: P_21  and  O_25
REMARK                            x       y       z     vdW  Elec       q    Type
REMARK                         _______ _______ _______ _____ _____    ______ ____
ROOT
ATOM      1  O   UNL     1      35.787 -25.250 -15.527  0.00  0.00    -0.333 OA
ATOM      2  C   UNL     1      35.611 -23.548 -13.866  0.00  0.00    +0.187 C 
ATOM      3  C   UNL     1      34.821 -24.533 -14.724  0.00  0.00    +0.224 C 
ATOM      4  C   UNL     1      36.868 -24.359 -13.620  0.00  0.00    +0.171 C 
ATOM      5  C   UNL     1      37.098 -24.993 -14.987  0.00  0.00    +0.176 C 
ENDROOT
BRANCH   3   6
ATOM      6  N   UNL     1      33.787 -23.948 -15.569  0.00  0.00    -0.262 N 
ATOM      7  N   UNL     1      32.840 -23.045 -17.374  0.00  0.00    -0.251 NA
ATOM      8  C   UNL     1      32.477 -23.709 -15.224  0.00  0.00    +0.065 C 
ATOM      9  C   UNL     1      33.949 -23.532 -16.866  0.00  0.00    +0.221 C 
ATOM     10  C   UNL     1      31.910 -23.147 -16.365  0.00  0.00    +0.073 C 
ATOM     11  C   UNL     1      31.765 -23.931 -14.046  0.00  0.00    +0.015 C 
ATOM     12  C   UNL     1      30.554 -22.778 -16.346  0.00  0.00    +0.073 C 
ATOM     13  C   UNL     1      30.416 -23.559 -14.044  0.00  0.00    -0.003 C 
ATOM     14  C   UNL     1      29.820 -22.992 -15.173  0.00  0.00    -0.020 C 
ENDBRANCH   3   6
BRANCH   2  15
ATOM     15  O   UNL     1      35.929 -22.374 -14.608  0.00  0.00    -0.378 OA
ATOM     16  H   UNL     1      36.764 -22.509 -15.084  0.00  0.00    +0.211 HD
ENDBRANCH   2  15
BRANCH   4  17
ATOM     17  O   UNL     1      37.969 -23.577 -13.209  0.00  0.00    -0.379 OA
ATOM     18  H   UNL     1      38.498 -23.332 -13.984  0.00  0.00    +0.211 HD
ENDBRANCH   4  17
BRANCH   5  19
ATOM     19  C   UNL     1      37.886 -26.289 -14.922  0.00  0.00    +0.186 C 
BRANCH  19  20
ATOM     20  O   UNL     1      38.913 -26.152 -13.954  0.00  0.00    -0.271 OA
BRANCH  20  21
ATOM     21  P   UNL     1      40.439 -25.986 -14.466  0.00  0.00    +0.473 P 
ATOM     22  O   UNL     1      41.390 -27.040 -13.979  0.00  0.00    -0.227 OA
BRANCH  21  23
ATOM     23  O   UNL     1      40.820 -24.469 -14.055  0.00  0.00    -0.303 OA
ATOM     24  H   UNL     1      40.221 -24.164 -13.356  0.00  0.00    +0.222 HD
ENDBRANCH  21  23
BRANCH  21  25
ATOM     25  O   UNL     1      40.273 -25.906 -16.073  0.00  0.00    -0.303 OA
ATOM     26  H   UNL     1      40.878 -25.236 -16.427  0.00  0.00    +0.222 HD
ENDBRANCH  21  25
ENDBRANCH  20  21
ENDBRANCH  19  20
ENDBRANCH   5  19
TORSDOF 8
ENDMDL
MODEL 2
REMARK VINA RESULT:      -8.9      9.342     11.483
REMARK  Name = 446856
REMARK  8 active torsions:
REMARK  status: ('A' for Active; 'I' for Inactive)
REMARK    1  A    between atoms: C_2  and  O_15
REMARK    2  A    between atoms: C_3  and  N_6
REMARK    3  A    between atoms: C_4  and  O_17
REMARK    4  A    between atoms: C_5  and  C_19
REMARK    5  A    between atoms: C_19  and  O_20
REMARK    6  A    between atoms: O_20  and  P_21
REMARK    7  A    between atoms: P_21  and  O_23
REMARK    8  A    between atoms: P_21  and  O_25
REMARK                            x       y       z     vdW  Elec       q    Type
REMARK                         _______ _______ _______ _____ _____    ______ ____
ROOT
ATOM      1  O   UNL     1      34.237 -18.832 -23.446  0.00  0.00    -0.333 OA
ATOM      2  C   UNL     1      35.220 -17.454 -21.767  0.00  0.00    +0.187 C 
ATOM      3  C   UNL     1      35.005 -18.895 -22.223  0.00  0.00    +0.224 C 
ATOM      4  C   UNL     1      35.339 -16.765 -23.112  0.00  0.00    +0.171 C 
ATOM      5  C   UNL     1      34.253 -17.470 -23.916  0.00  0.00    +0.176 C 
ENDROOT
BRANCH   3   6
ATOM      6  N   UNL     1      34.358 -19.775 -21.257  0.00  0.00    -0.262 N 
ATOM      7  N   UNL     1      32.718 -20.842 -20.188  0.00  0.00    -0.251 NA
ATOM      8  C   UNL     1      34.973 -20.528 -20.285  0.00  0.00    +0.065 C 
ATOM      9  C   UNL     1      33.008 -20.001 -21.154  0.00  0.00    +0.221 C 
ATOM     10  C   UNL     1      33.930 -21.183 -19.634  0.00  0.00    +0.073 C 
ATOM     11  C   UNL     1      36.314 -20.686 -19.933  0.00  0.00    +0.015 C 
ATOM     12  C   UNL     1      34.224 -22.049 -18.567  0.00  0.00    +0.073 C 
ATOM     13  C   UNL     1      36.589 -21.552 -18.868  0.00  0.00    -0.003 C 
ATOM     14  C   UNL     1      35.564 -22.221 -18.197  0.00  0.00    -0.020 C 
ENDBRANCH   3   6
BRANCH   2  15
ATOM     15  O   UNL     1      34.074 -16.968 -21.072  0.00  0.00    -0.378 OA
ATOM     16  H   UNL     1      34.091 -15.998 -21.062  0.00  0.00    +0.211 HD
ENDBRANCH   2  15
BRANCH   4  17
ATOM     17  O   UNL     1      35.127 -15.371 -23.048  0.00  0.00    -0.379 OA
ATOM     18  H   UNL     1      34.255 -15.160 -23.416  0.00  0.00    +0.211 HD
ENDBRANCH   4  17
BRANCH   5  19
ATOM     19  C   UNL     1      34.506 -17.449 -25.413  0.00  0.00    +0.186 C 
BRANCH  19  20
ATOM     20  O   UNL     1      34.659 -16.103 -25.833  0.00  0.00    -0.271 OA
BRANCH  20  21
ATOM     21  P   UNL     1      33.327 -15.223 -26.100  0.00  0.00    +0.473 P 
ATOM     22  O   UNL     1      32.853 -14.417 -24.927  0.00  0.00    -0.227 OA
BRANCH  21  23
ATOM     23  O   UNL     1      32.265 -16.298 -26.675  0.00  0.00    -0.303 OA
ATOM     24  H   UNL     1      32.660 -16.777 -27.420  0.00  0.00    +0.222 HD
ENDBRANCH  21  23
BRANCH  21  25
ATOM     25  O   UNL     1      33.725 -14.358 -27.408  0.00  0.00    -0.303 OA
ATOM     26  H   UNL     1      34.468 -14.784 -27.862  0.00  0.00    +0.222 HD
ENDBRANCH  21  25
ENDBRANCH  20  21
ENDBRANCH  19  20
ENDBRANCH   5  19
TORSDOF 8
ENDMDL
MODEL 3
REMARK VINA RESULT:      -8.8      9.122     11.495
REMARK  Name = 446856
REMARK  8 active torsions:
REMARK  status: ('A' for Active; 'I' for Inactive)
REMARK    1  A    between atoms: C_2  and  O_15
REMARK    2  A    between atoms: C_3  and  N_6
REMARK    3  A    between atoms: C_4  and  O_17
REMARK    4  A    between atoms: C_5  and  C_19
REMARK    5  A    between atoms: C_19  and  O_20
REMARK    6  A    between atoms: O_20  and  P_21
REMARK    7  A    between atoms: P_21  and  O_23
REMARK    8  A    between atoms: P_21  and  O_25
REMARK                            x       y       z     vdW  Elec       q    Type
REMARK                         _______ _______ _______ _____ _____    ______ ____
ROOT
ATOM      1  O   UNL     1      34.938 -16.554 -22.111  0.00  0.00    -0.333 OA
ATOM      2  C   UNL     1      34.571 -18.200 -23.796  0.00  0.00    +0.187 C 
ATOM      3  C   UNL     1      34.451 -17.902 -22.304  0.00  0.00    +0.224 C 
ATOM      4  C   UNL     1      34.276 -16.827 -24.366  0.00  0.00    +0.171 C 
ATOM      5  C   UNL     1      35.038 -15.924 -23.402  0.00  0.00    +0.176 C 
ENDROOT
BRANCH   3   6
ATOM      6  N   UNL     1      35.143 -18.828 -21.416  0.00  0.00    -0.262 N 
ATOM      7  N   UNL     1      36.825 -19.779 -20.302  0.00  0.00    -0.251 NA
ATOM      8  C   UNL     1      34.583 -19.864 -20.704  0.00  0.00    +0.065 C 
ATOM      9  C   UNL     1      36.487 -18.823 -21.137  0.00  0.00    +0.221 C 
ATOM     10  C   UNL     1      35.651 -20.439 -20.020  0.00  0.00    +0.073 C 
ATOM     11  C   UNL     1      33.272 -20.330 -20.606  0.00  0.00    +0.015 C 
ATOM     12  C   UNL     1      35.415 -21.544 -19.185  0.00  0.00    +0.073 C 
ATOM     13  C   UNL     1      33.054 -21.431 -19.771  0.00  0.00    -0.003 C 
ATOM     14  C   UNL     1      34.106 -22.028 -19.073  0.00  0.00    -0.020 C 
ENDBRANCH   3   6
BRANCH   2  15
ATOM     15  O   UNL     1      35.901 -18.588 -24.128  0.00  0.00    -0.378 OA
ATOM     16  H   UNL     1      36.303 -17.911 -24.695  0.00  0.00    +0.211 HD
ENDBRANCH   2  15
BRANCH   4  17
ATOM     17  O   UNL     1      34.715 -16.667 -25.698  0.00  0.00    -0.379 OA
ATOM     18  H   UNL     1      33.970 -16.809 -26.302  0.00  0.00    +0.211 HD
ENDBRANCH   4  17
BRANCH   5  19
ATOM     19  C   UNL     1      34.475 -14.516 -23.328  0.00  0.00    +0.186 C 
BRANCH  19  20
ATOM     20  O   UNL     1      34.175 -14.214 -21.975  0.00  0.00    -0.271 OA
BRANCH  20  21
ATOM     21  P   UNL     1      32.626 -13.992 -21.560  0.00  0.00    +0.473 P 
ATOM     22  O   UNL     1      32.408 -13.082 -20.387  0.00  0.00    -0.227 OA
BRANCH  21  23
ATOM     23  O   UNL     1      32.056 -15.495 -21.384  0.00  0.00    -0.303 OA
ATOM     24  H   UNL     1      32.578 -16.105 -21.928  0.00  0.00    +0.222 HD
ENDBRANCH  21  23
BRANCH  21  25
ATOM     25  O   UNL     1      31.950 -13.498 -22.943  0.00  0.00    -0.303 OA
ATOM     26  H   UNL     1      32.570 -12.922 -23.418  0.00  0.00    +0.222 HD
ENDBRANCH  21  25
ENDBRANCH  20  21
ENDBRANCH  19  20
ENDBRANCH   5  19
TORSDOF 8
ENDMDL
MODEL 4
REMARK VINA RESULT:      -8.8      2.271      3.717
REMARK  Name = 446856
REMARK  8 active torsions:
REMARK  status: ('A' for Active; 'I' for Inactive)
REMARK    1  A    between atoms: C_2  and  O_15
REMARK    2  A    between atoms: C_3  and  N_6
REMARK    3  A    between atoms: C_4  and  O_17
REMARK    4  A    between atoms: C_5  and  C_19
REMARK    5  A    between atoms: C_19  and  O_20
REMARK    6  A    between atoms: O_20  and  P_21
REMARK    7  A    between atoms: P_21  and  O_23
REMARK    8  A    between atoms: P_21  and  O_25
REMARK                            x       y       z     vdW  Elec       q    Type
REMARK                         _______ _______ _______ _____ _____    ______ ____
ROOT
ATOM      1  O   UNL     1      35.977 -23.202 -15.389  0.00  0.00    -0.333 OA
ATOM      2  C   UNL     1      33.856 -23.918 -14.568  0.00  0.00    +0.187 C 
ATOM      3  C   UNL     1      34.753 -23.851 -15.801  0.00  0.00    +0.224 C 
ATOM      4  C   UNL     1      34.903 -24.116 -13.489  0.00  0.00    +0.171 C 
ATOM      5  C   UNL     1      36.002 -23.166 -13.949  0.00  0.00    +0.176 C 
ENDROOT
BRANCH   3   6
ATOM      6  N   UNL     1      34.183 -23.178 -16.962  0.00  0.00    -0.262 N 
ATOM      7  N   UNL     1      32.645 -22.505 -18.430  0.00  0.00    -0.251 NA
ATOM      8  C   UNL     1      34.855 -22.405 -17.881  0.00  0.00    +0.065 C 
ATOM      9  C   UNL     1      32.864 -23.204 -17.340  0.00  0.00    +0.221 C 
ATOM     10  C   UNL     1      33.874 -21.998 -18.783  0.00  0.00    +0.073 C 
ATOM     11  C   UNL     1      36.196 -22.038 -17.992  0.00  0.00    +0.015 C 
ATOM     12  C   UNL     1      34.237 -21.179 -19.866  0.00  0.00    +0.073 C 
ATOM     13  C   UNL     1      36.539 -21.223 -19.075  0.00  0.00    -0.003 C 
ATOM     14  C   UNL     1      35.578 -20.800 -19.996  0.00  0.00    -0.020 C 
ENDBRANCH   3   6
BRANCH   2  15
ATOM     15  O   UNL     1      33.181 -22.679 -14.367  0.00  0.00    -0.378 OA
ATOM     16  H   UNL     1      32.917 -22.312 -15.226  0.00  0.00    +0.211 HD
ENDBRANCH   2  15
BRANCH   4  17
ATOM     17  O   UNL     1      34.440 -23.801 -12.194  0.00  0.00    -0.379 OA
ATOM     18  H   UNL     1      34.520 -24.582 -11.624  0.00  0.00    +0.211 HD
ENDBRANCH   4  17
BRANCH   5  19
ATOM     19  C   UNL     1      37.382 -23.560 -13.452  0.00  0.00    +0.186 C 
BRANCH  19  20
ATOM     20  O   UNL     1      37.517 -24.969 -13.545  0.00  0.00    -0.271 OA
BRANCH  20  21
ATOM     21  P   UNL     1      38.442 -25.579 -14.724  0.00  0.00    +0.473 P 
ATOM     22  O   UNL     1      39.505 -26.534 -14.265  0.00  0.00    -0.227 OA
BRANCH  21  23
ATOM     23  O   UNL     1      38.980 -24.270 -15.507  0.00  0.00    -0.303 OA
ATOM     24  H   UNL     1      39.411 -23.671 -14.878  0.00  0.00    +0.222 HD
ENDBRANCH  21  23
BRANCH  21  25
ATOM     25  O   UNL     1      37.357 -26.204 -15.747  0.00  0.00    -0.303 OA
ATOM     26  H   UNL     1      36.634 -26.609 -15.242  0.00  0.00    +0.222 HD
ENDBRANCH  21  25
ENDBRANCH  20  21
ENDBRANCH  19  20
ENDBRANCH   5  19
TORSDOF 8
ENDMDL
MODEL 5
REMARK VINA RESULT:      -8.5      4.990      8.023
REMARK  Name = 446856
REMARK  8 active torsions:
REMARK  status: ('A' for Active; 'I' for Inactive)
REMARK    1  A    between atoms: C_2  and  O_15
REMARK    2  A    between atoms: C_3  and  N_6
REMARK    3  A    between atoms: C_4  and  O_17
REMARK    4  A    between atoms: C_5  and  C_19
REMARK    5  A    between atoms: C_19  and  O_20
REMARK    6  A    between atoms: O_20  and  P_21
REMARK    7  A    between atoms: P_21  and  O_23
REMARK    8  A    between atoms: P_21  and  O_25
REMARK                            x       y       z     vdW  Elec       q    Type
REMARK                         _______ _______ _______ _____ _____    ______ ____
ROOT
ATOM      1  O   UNL     1      32.645 -23.338 -15.762  0.00  0.00    -0.333 OA
ATOM      2  C   UNL     1      32.206 -24.314 -13.632  0.00  0.00    +0.187 C 
ATOM      3  C   UNL     1      33.200 -23.478 -14.435  0.00  0.00    +0.224 C 
ATOM      4  C   UNL     1      30.903 -23.836 -14.241  0.00  0.00    +0.171 C 
ATOM      5  C   UNL     1      31.266 -23.752 -15.719  0.00  0.00    +0.176 C 
ENDROOT
BRANCH   3   6
ATOM      6  N   UNL     1      34.559 -23.999 -14.500  0.00  0.00    -0.262 N 
ATOM      7  N   UNL     1      36.398 -24.911 -15.371  0.00  0.00    -0.251 NA
ATOM      8  C   UNL     1      35.468 -24.067 -13.469  0.00  0.00    +0.065 C 
ATOM      9  C   UNL     1      35.169 -24.518 -15.614  0.00  0.00    +0.221 C 
ATOM     10  C   UNL     1      36.604 -24.638 -14.038  0.00  0.00    +0.073 C 
ATOM     11  C   UNL     1      35.392 -23.687 -12.129  0.00  0.00    +0.015 C 
ATOM     12  C   UNL     1      37.738 -24.851 -13.237  0.00  0.00    +0.073 C 
ATOM     13  C   UNL     1      36.530 -23.906 -11.346  0.00  0.00    -0.003 C 
ATOM     14  C   UNL     1      37.683 -24.478 -11.888  0.00  0.00    -0.020 C 
ENDBRANCH   3   6
BRANCH   2  15
ATOM     15  O   UNL     1      32.386 -25.703 -13.899  0.00  0.00    -0.378 OA
ATOM     16  H   UNL     1      33.306 -25.865 -14.162  0.00  0.00    +0.211 HD
ENDBRANCH   2  15
BRANCH   4  17
ATOM     17  O   UNL     1      29.822 -24.713 -14.012  0.00  0.00    -0.379 OA
ATOM     18  H   UNL     1      29.324 -24.416 -13.234  0.00  0.00    +0.211 HD
ENDBRANCH   4  17
BRANCH   5  19
ATOM     19  C   UNL     1      30.412 -22.765 -16.492  0.00  0.00    +0.186 C 
BRANCH  19  20
ATOM     20  O   UNL     1      29.200 -22.556 -15.784  0.00  0.00    -0.271 OA
BRANCH  20  21
ATOM     21  P   UNL     1      27.802 -22.839 -16.549  0.00  0.00    +0.473 P 
ATOM     22  O   UNL     1      27.774 -24.089 -17.379  0.00  0.00    -0.227 OA
BRANCH  21  23
ATOM     23  O   UNL     1      27.521 -21.466 -17.357  0.00  0.00    -0.303 OA
ATOM     24  H   UNL     1      26.604 -21.186 -17.209  0.00  0.00    +0.222 HD
ENDBRANCH  21  23
BRANCH  21  25
ATOM     25  O   UNL     1      26.719 -22.792 -15.348  0.00  0.00    -0.303 OA
ATOM     26  H   UNL     1      26.160 -22.006 -15.448  0.00  0.00    +0.222 HD
ENDBRANCH  21  25
ENDBRANCH  20  21
ENDBRANCH  19  20
ENDBRANCH   5  19
TORSDOF 8
ENDMDL
MODEL 6
REMARK VINA RESULT:      -8.4      8.753     10.384
REMARK  Name = 446856
REMARK  8 active torsions:
REMARK  status: ('A' for Active; 'I' for Inactive)
REMARK    1  A    between atoms: C_2  and  O_15
REMARK    2  A    between atoms: C_3  and  N_6
REMARK    3  A    between atoms: C_4  and  O_17
REMARK    4  A    between atoms: C_5  and  C_19
REMARK    5  A    between atoms: C_19  and  O_20
REMARK    6  A    between atoms: O_20  and  P_21
REMARK    7  A    between atoms: P_21  and  O_23
REMARK    8  A    between atoms: P_21  and  O_25
REMARK                            x       y       z     vdW  Elec       q    Type
REMARK                         _______ _______ _______ _____ _____    ______ ____
ROOT
ATOM      1  O   UNL     1      33.838 -18.922 -22.099  0.00  0.00    -0.333 OA
ATOM      2  C   UNL     1      35.946 -17.860 -21.760  0.00  0.00    +0.187 C 
ATOM      3  C   UNL     1      34.511 -17.650 -22.237  0.00  0.00    +0.224 C 
ATOM      4  C   UNL     1      35.713 -18.872 -20.656  0.00  0.00    +0.171 C 
ATOM      5  C   UNL     1      34.664 -19.780 -21.287  0.00  0.00    +0.176 C 
ENDROOT
BRANCH   3   6
ATOM      6  N   UNL     1      34.364 -17.138 -23.594  0.00  0.00    -0.262 N 
ATOM      7  N   UNL     1      34.431 -17.102 -25.823  0.00  0.00    -0.251 NA
ATOM      8  C   UNL     1      33.903 -15.896 -23.963  0.00  0.00    +0.065 C 
ATOM      9  C   UNL     1      34.665 -17.819 -24.747  0.00  0.00    +0.221 C 
ATOM     10  C   UNL     1      33.955 -15.899 -25.355  0.00  0.00    +0.073 C 
ATOM     11  C   UNL     1      33.459 -14.804 -23.217  0.00  0.00    +0.015 C 
ATOM     12  C   UNL     1      33.544 -14.755 -26.059  0.00  0.00    +0.073 C 
ATOM     13  C   UNL     1      33.054 -13.673 -23.933  0.00  0.00    -0.003 C 
ATOM     14  C   UNL     1      33.095 -13.647 -25.329  0.00  0.00    -0.020 C 
ENDBRANCH   3   6
BRANCH   2  15
ATOM     15  O   UNL     1      36.741 -18.440 -22.791  0.00  0.00    -0.378 OA
ATOM     16  H   UNL     1      37.239 -19.191 -22.430  0.00  0.00    +0.211 HD
ENDBRANCH   2  15
BRANCH   4  17
ATOM     17  O   UNL     1      36.877 -19.583 -20.293  0.00  0.00    -0.379 OA
ATOM     18  H   UNL     1      36.914 -20.416 -20.789  0.00  0.00    +0.211 HD
ENDBRANCH   4  17
BRANCH   5  19
ATOM     19  C   UNL     1      33.802 -20.501 -20.267  0.00  0.00    +0.186 C 
BRANCH  19  20
ATOM     20  O   UNL     1      34.615 -21.407 -19.539  0.00  0.00    -0.271 OA
BRANCH  20  21
ATOM     21  P   UNL     1      33.894 -22.593 -18.707  0.00  0.00    +0.473 P 
ATOM     22  O   UNL     1      32.471 -22.320 -18.318  0.00  0.00    -0.227 OA
BRANCH  21  23
ATOM     23  O   UNL     1      34.906 -22.869 -17.476  0.00  0.00    -0.303 OA
ATOM     24  H   UNL     1      34.428 -22.778 -16.637  0.00  0.00    +0.222 HD
ENDBRANCH  21  23
BRANCH  21  25
ATOM     25  O   UNL     1      34.107 -23.883 -19.660  0.00  0.00    -0.303 OA
ATOM     26  H   UNL     1      33.259 -24.336 -19.783  0.00  0.00    +0.222 HD
ENDBRANCH  21  25
ENDBRANCH  20  21
ENDBRANCH  19  20
ENDBRANCH   5  19
TORSDOF 8
ENDMDL
MODEL 7
REMARK VINA RESULT:      -8.3      2.202      2.914
REMARK  Name = 446856
REMARK  8 active torsions:
REMARK  status: ('A' for Active; 'I' for Inactive)
REMARK    1  A    between atoms: C_2  and  O_15
REMARK    2  A    between atoms: C_3  and  N_6
REMARK    3  A    between atoms: C_4  and  O_17
REMARK    4  A    between atoms: C_5  and  C_19
REMARK    5  A    between atoms: C_19  and  O_20
REMARK    6  A    between atoms: O_20  and  P_21
REMARK    7  A    between atoms: P_21  and  O_23
REMARK    8  A    between atoms: P_21  and  O_25
REMARK                            x       y       z     vdW  Elec       q    Type
REMARK                         _______ _______ _______ _____ _____    ______ ____
ROOT
ATOM      1  O   UNL     1      35.245 -24.489 -14.875  0.00  0.00    -0.333 OA
ATOM      2  C   UNL     1      36.181 -22.551 -15.901  0.00  0.00    +0.187 C 
ATOM      3  C   UNL     1      34.936 -23.122 -15.227  0.00  0.00    +0.224 C 
ATOM      4  C   UNL     1      37.261 -23.274 -15.120  0.00  0.00    +0.171 C 
ATOM      5  C   UNL     1      36.669 -24.673 -14.999  0.00  0.00    +0.176 C 
ENDROOT
BRANCH   3   6
ATOM      6  N   UNL     1      33.708 -23.060 -16.011  0.00  0.00    -0.262 N 
ATOM      7  N   UNL     1      32.388 -22.922 -17.803  0.00  0.00    -0.251 NA
ATOM      8  C   UNL     1      32.419 -23.092 -15.530  0.00  0.00    +0.065 C 
ATOM      9  C   UNL     1      33.630 -22.958 -17.377  0.00  0.00    +0.221 C 
ATOM     10  C   UNL     1      31.618 -23.005 -16.666  0.00  0.00    +0.073 C 
ATOM     11  C   UNL     1      31.906 -23.188 -14.236  0.00  0.00    +0.015 C 
ATOM     12  C   UNL     1      30.220 -23.011 -16.520  0.00  0.00    +0.073 C 
ATOM     13  C   UNL     1      30.513 -23.193 -14.110  0.00  0.00    -0.003 C 
ATOM     14  C   UNL     1      29.684 -23.106 -15.230  0.00  0.00    -0.020 C 
ENDBRANCH   3   6
BRANCH   2  15
ATOM     15  O   UNL     1      36.234 -22.936 -17.272  0.00  0.00    -0.378 OA
ATOM     16  H   UNL     1      35.632 -23.683 -17.421  0.00  0.00    +0.211 HD
ENDBRANCH   2  15
BRANCH   4  17
ATOM     17  O   UNL     1      38.513 -23.284 -15.771  0.00  0.00    -0.379 OA
ATOM     18  H   UNL     1      38.543 -24.022 -16.400  0.00  0.00    +0.211 HD
ENDBRANCH   4  17
BRANCH   5  19
ATOM     19  C   UNL     1      37.190 -25.445 -13.801  0.00  0.00    +0.186 C 
BRANCH  19  20
ATOM     20  O   UNL     1      36.147 -25.572 -12.849  0.00  0.00    -0.271 OA
BRANCH  20  21
ATOM     21  P   UNL     1      36.186 -24.633 -11.531  0.00  0.00    +0.473 P 
ATOM     22  O   UNL     1      35.368 -25.128 -10.375  0.00  0.00    -0.227 OA
BRANCH  21  23
ATOM     23  O   UNL     1      35.779 -23.170 -12.089  0.00  0.00    -0.303 OA
ATOM     24  H   UNL     1      34.938 -23.229 -12.568  0.00  0.00    +0.222 HD
ENDBRANCH  21  23
BRANCH  21  25
ATOM     25  O   UNL     1      37.770 -24.491 -11.237  0.00  0.00    -0.303 OA
ATOM     26  H   UNL     1      37.936 -24.635 -10.292  0.00  0.00    +0.222 HD
ENDBRANCH  21  25
ENDBRANCH  20  21
ENDBRANCH  19  20
ENDBRANCH   5  19
TORSDOF 8
ENDMDL
MODEL 8
REMARK VINA RESULT:      -8.2      1.164      2.630
REMARK  Name = 446856
REMARK  8 active torsions:
REMARK  status: ('A' for Active; 'I' for Inactive)
REMARK    1  A    between atoms: C_2  and  O_15
REMARK    2  A    between atoms: C_3  and  N_6
REMARK    3  A    between atoms: C_4  and  O_17
REMARK    4  A    between atoms: C_5  and  C_19
REMARK    5  A    between atoms: C_19  and  O_20
REMARK    6  A    between atoms: O_20  and  P_21
REMARK    7  A    between atoms: P_21  and  O_23
REMARK    8  A    between atoms: P_21  and  O_25
REMARK                            x       y       z     vdW  Elec       q    Type
REMARK                         _______ _______ _______ _____ _____    ______ ____
ROOT
ATOM      1  O   UNL     1      35.797 -25.165 -15.625  0.00  0.00    -0.333 OA
ATOM      2  C   UNL     1      35.539 -23.524 -13.914  0.00  0.00    +0.187 C 
ATOM      3  C   UNL     1      34.792 -24.464 -14.858  0.00  0.00    +0.224 C 
ATOM      4  C   UNL     1      36.767 -24.364 -13.621  0.00  0.00    +0.171 C 
ATOM      5  C   UNL     1      37.074 -24.950 -14.994  0.00  0.00    +0.176 C 
ENDROOT
BRANCH   3   6
ATOM      6  N   UNL     1      33.821 -23.832 -15.743  0.00  0.00    -0.262 N 
ATOM      7  N   UNL     1      31.840 -23.174 -16.527  0.00  0.00    -0.251 NA
ATOM      8  C   UNL     1      34.088 -23.141 -16.902  0.00  0.00    +0.065 C 
ATOM      9  C   UNL     1      32.460 -23.820 -15.566  0.00  0.00    +0.221 C 
ATOM     10  C   UNL     1      32.838 -22.742 -17.370  0.00  0.00    +0.073 C 
ATOM     11  C   UNL     1      35.282 -22.842 -17.559  0.00  0.00    +0.015 C 
ATOM     12  C   UNL     1      32.756 -22.002 -18.561  0.00  0.00    +0.073 C 
ATOM     13  C   UNL     1      35.183 -22.104 -18.743  0.00  0.00    -0.003 C 
ATOM     14  C   UNL     1      33.943 -21.691 -19.237  0.00  0.00    -0.020 C 
ENDBRANCH   3   6
BRANCH   2  15
ATOM     15  O   UNL     1      35.919 -22.328 -14.590  0.00  0.00    -0.378 OA
ATOM     16  H   UNL     1      36.063 -21.622 -13.939  0.00  0.00    +0.211 HD
ENDBRANCH   2  15
BRANCH   4  17
ATOM     17  O   UNL     1      37.850 -23.615 -13.113  0.00  0.00    -0.379 OA
ATOM     18  H   UNL     1      37.847 -23.661 -12.144  0.00  0.00    +0.211 HD
ENDBRANCH   4  17
BRANCH   5  19
ATOM     19  C   UNL     1      37.839 -26.259 -14.930  0.00  0.00    +0.186 C 
BRANCH  19  20
ATOM     20  O   UNL     1      38.888 -26.131 -13.984  0.00  0.00    -0.271 OA
BRANCH  20  21
ATOM     21  P   UNL     1      40.361 -25.720 -14.515  0.00  0.00    +0.473 P 
ATOM     22  O   UNL     1      40.857 -24.386 -14.041  0.00  0.00    -0.227 OA
BRANCH  21  23
ATOM     23  O   UNL     1      40.251 -25.887 -16.119  0.00  0.00    -0.303 OA
ATOM     24  H   UNL     1      40.946 -25.364 -16.547  0.00  0.00    +0.222 HD
ENDBRANCH  21  23
BRANCH  21  25
ATOM     25  O   UNL     1      41.268 -26.983 -14.071  0.00  0.00    -0.303 OA
ATOM     26  H   UNL     1      41.691 -26.793 -13.219  0.00  0.00    +0.222 HD
ENDBRANCH  21  25
ENDBRANCH  20  21
ENDBRANCH  19  20
ENDBRANCH   5  19
TORSDOF 8
ENDMDL
MODEL 9
REMARK VINA RESULT:      -8.1      2.659      3.771
REMARK  Name = 446856
REMARK  8 active torsions:
REMARK  status: ('A' for Active; 'I' for Inactive)
REMARK    1  A    between atoms: C_2  and  O_15
REMARK    2  A    between atoms: C_3  and  N_6
REMARK    3  A    between atoms: C_4  and  O_17
REMARK    4  A    between atoms: C_5  and  C_19
REMARK    5  A    between atoms: C_19  and  O_20
REMARK    6  A    between atoms: O_20  and  P_21
REMARK    7  A    between atoms: P_21  and  O_23
REMARK    8  A    between atoms: P_21  and  O_25
REMARK                            x       y       z     vdW  Elec       q    Type
REMARK                         _______ _______ _______ _____ _____    ______ ____
ROOT
ATOM      1  O   UNL     1      34.483 -23.843 -13.927  0.00  0.00    -0.333 OA
ATOM      2  C   UNL     1      34.144 -23.088 -16.163  0.00  0.00    +0.187 C 
ATOM      3  C   UNL     1      33.496 -23.232 -14.788  0.00  0.00    +0.224 C 
ATOM      4  C   UNL     1      35.577 -22.810 -15.754  0.00  0.00    +0.171 C 
ATOM      5  C   UNL     1      35.760 -23.782 -14.593  0.00  0.00    +0.176 C 
ENDROOT
BRANCH   3   6
ATOM      6  N   UNL     1      32.249 -23.985 -14.752  0.00  0.00    -0.262 N 
ATOM      7  N   UNL     1      30.806 -25.596 -14.207  0.00  0.00    -0.251 NA
ATOM      8  C   UNL     1      31.080 -23.680 -15.411  0.00  0.00    +0.065 C 
ATOM      9  C   UNL     1      32.028 -25.142 -14.047  0.00  0.00    +0.221 C 
ATOM     10  C   UNL     1      30.199 -24.698 -15.054  0.00  0.00    +0.073 C 
ATOM     11  C   UNL     1      30.733 -22.630 -16.262  0.00  0.00    +0.015 C 
ATOM     12  C   UNL     1      28.891 -24.684 -15.569  0.00  0.00    +0.073 C 
ATOM     13  C   UNL     1      29.428 -22.631 -16.765  0.00  0.00    -0.003 C 
ATOM     14  C   UNL     1      28.522 -23.639 -16.425  0.00  0.00    -0.020 C 
ENDBRANCH   3   6
BRANCH   2  15
ATOM     15  O   UNL     1      34.075 -24.315 -16.884  0.00  0.00    -0.378 OA
ATOM     16  H   UNL     1      33.155 -24.485 -17.146  0.00  0.00    +0.211 HD
ENDBRANCH   2  15
BRANCH   4  17
ATOM     17  O   UNL     1      36.510 -23.040 -16.787  0.00  0.00    -0.379 OA
ATOM     18  H   UNL     1      37.347 -23.345 -16.404  0.00  0.00    +0.211 HD
ENDBRANCH   4  17
BRANCH   5  19
ATOM     19  C   UNL     1      36.829 -23.346 -13.609  0.00  0.00    +0.186 C 
BRANCH  19  20
ATOM     20  O   UNL     1      36.223 -23.116 -12.347  0.00  0.00    -0.271 OA
BRANCH  20  21
ATOM     21  P   UNL     1      36.245 -24.308 -11.252  0.00  0.00    +0.473 P 
ATOM     22  O   UNL     1      36.436 -23.862  -9.832  0.00  0.00    -0.227 OA
BRANCH  21  23
ATOM     23  O   UNL     1      37.369 -25.326 -11.814  0.00  0.00    -0.303 OA
ATOM     24  H   UNL     1      37.375 -25.298 -12.783  0.00  0.00    +0.222 HD
ENDBRANCH  21  23
BRANCH  21  25
ATOM     25  O   UNL     1      34.858 -25.089 -11.543  0.00  0.00    -0.303 OA
ATOM     26  H   UNL     1      34.152 -24.704 -11.000  0.00  0.00    +0.222 HD
ENDBRANCH  21  25
ENDBRANCH  20  21
ENDBRANCH  19  20
ENDBRANCH   5  19
TORSDOF 8
ENDMDL
