MODEL 1
REMARK VINA RESULT:      -8.9      0.000      0.000
REMARK  Name = 3440
REMARK  7 active torsions:
REMARK  status: ('A' for Active; 'I' for Inactive)
REMARK    1  A    between atoms: C_2  and  N_18
REMARK    2  A    between atoms: C_3  and  S_8
REMARK    3  A    between atoms: C_4  and  C_15
REMARK    4  A    between atoms: S_8  and  N_11
REMARK    5  A    between atoms: C_15  and  O_16
REMARK    6  A    between atoms: N_18  and  C_20
REMARK    7  A    between atoms: C_20  and  C_22
REMARK                            x       y       z     vdW  Elec       q    Type
REMARK                         _______ _______ _______ _____ _____    ______ ____
ROOT
ATOM      1 CL   UNL     1      37.900 -24.126 -14.646  0.00  0.00    -0.081 Cl
ATOM      2  C   UNL     1      34.019 -23.506 -15.330  0.00  0.00    +0.052 C 
ATOM      3  C   UNL     1      35.597 -24.349 -13.190  0.00  0.00    +0.132 C 
ATOM      4  C   UNL     1      33.425 -23.832 -14.111  0.00  0.00    +0.090 C 
ATOM      5  C   UNL     1      34.214 -24.253 -13.041  0.00  0.00    +0.028 C 
ATOM      6  C   UNL     1      35.402 -23.602 -15.479  0.00  0.00    +0.027 C 
ATOM      7  C   UNL     1      36.191 -24.024 -14.410  0.00  0.00    +0.077 C 
ENDROOT
BRANCH   3   8
ATOM      8  S   UNL     1      36.538 -24.883 -11.811  0.00  0.00    +0.058 S 
ATOM      9  O   UNL     1      37.019 -26.228 -12.086  0.00  0.00    -0.153 OA
ATOM     10  O   UNL     1      37.478 -23.830 -11.464  0.00  0.00    -0.153 OA
BRANCH   8  11
ATOM     11  N   UNL     1      35.327 -24.961 -10.610  0.00  0.00    -0.203 NA
ATOM     12  H   UNL     1      34.607 -25.625 -10.896  0.00  0.00    +0.144 HD
ATOM     13  H   UNL     1      34.909 -24.038 -10.487  0.00  0.00    +0.144 HD
ENDBRANCH   8  11
ENDBRANCH   3   8
BRANCH   4  15
ATOM     14  O   UNL     1      31.269 -22.812 -14.310  0.00  0.00    -0.245 OA
ATOM     15  C   UNL     1      31.982 -23.742 -13.923  0.00  0.00    +0.339 C 
BRANCH  15  16
ATOM     16  O   UNL     1      31.479 -24.816 -13.260  0.00  0.00    -0.477 OA
ATOM     17  H   UNL     1      30.708 -24.725 -12.735  0.00  0.00    +0.295 HD
ENDBRANCH  15  16
ENDBRANCH   4  15
BRANCH   2  18
ATOM     18  N   UNL     1      33.238 -23.078 -16.426  0.00  0.00    -0.326 N 
ATOM     19  H   UNL     1      32.506 -22.439 -16.262  0.00  0.00    +0.147 HD
BRANCH  18  20
ATOM     20  C   UNL     1      33.463 -23.530 -17.763  0.00  0.00    +0.153 C 
BRANCH  20  22
ATOM     21  O   UNL     1      32.707 -21.750 -19.188  0.00  0.00    -0.453 OA
ATOM     22  C   UNL     1      33.779 -22.392 -18.696  0.00  0.00    +0.143 C 
ATOM     23  C   UNL     1      34.950 -21.884 -19.139  0.00  0.00    +0.038 C 
ATOM     24  C   UNL     1      34.586 -20.818 -19.996  0.00  0.00    +0.043 C 
ATOM     25  C   UNL     1      33.211 -20.778 -19.993  0.00  0.00    +0.179 C 
ENDBRANCH  20  22
ENDBRANCH  18  20
ENDBRANCH   2  18
TORSDOF 7
ENDMDL
MODEL 2
REMARK VINA RESULT:      -8.5      2.946      4.381
REMARK  Name = 3440
REMARK  7 active torsions:
REMARK  status: ('A' for Active; 'I' for Inactive)
REMARK    1  A    between atoms: C_2  and  N_18
REMARK    2  A    between atoms: C_3  and  S_8
REMARK    3  A    between atoms: C_4  and  C_15
REMARK    4  A    between atoms: S_8  and  N_11
REMARK    5  A    between atoms: C_15  and  O_16
REMARK    6  A    between atoms: N_18  and  C_20
REMARK    7  A    between atoms: C_20  and  C_22
REMARK                            x       y       z     vdW  Elec       q    Type
REMARK                         _______ _______ _______ _____ _____    ______ ____
ROOT
ATOM      1 CL   UNL     1      30.472 -23.731 -16.138  0.00  0.00    -0.081 Cl
ATOM      2  C   UNL     1      34.048 -22.682 -17.561  0.00  0.00    +0.052 C 
ATOM      3  C   UNL     1      33.021 -23.655 -15.156  0.00  0.00    +0.132 C 
ATOM      4  C   UNL     1      34.900 -22.909 -16.479  0.00  0.00    +0.090 C 
ATOM      5  C   UNL     1      34.387 -23.396 -15.278  0.00  0.00    +0.028 C 
ATOM      6  C   UNL     1      32.683 -22.941 -17.439  0.00  0.00    +0.027 C 
ATOM      7  C   UNL     1      32.170 -23.427 -16.238  0.00  0.00    +0.077 C 
ENDROOT
BRANCH   3   8
ATOM      8  S   UNL     1      32.433 -24.266 -13.622  0.00  0.00    +0.058 S 
ATOM      9  O   UNL     1      31.753 -23.180 -12.935  0.00  0.00    -0.153 OA
ATOM     10  O   UNL     1      31.741 -25.521 -13.866  0.00  0.00    -0.153 OA
BRANCH   8  11
ATOM     11  N   UNL     1      33.906 -24.593 -12.823  0.00  0.00    -0.203 NA
ATOM     12  H   UNL     1      33.743 -24.641 -11.817  0.00  0.00    +0.144 HD
ATOM     13  H   UNL     1      34.575 -23.849 -13.024  0.00  0.00    +0.144 HD
ENDBRANCH   8  11
ENDBRANCH   3   8
BRANCH   4  15
ATOM     14  O   UNL     1      36.842 -21.658 -17.102  0.00  0.00    -0.245 OA
ATOM     15  C   UNL     1      36.331 -22.649 -16.574  0.00  0.00    +0.339 C 
BRANCH  15  16
ATOM     16  O   UNL     1      37.074 -23.635 -16.006  0.00  0.00    -0.477 OA
ATOM     17  H   UNL     1      36.654 -24.321 -15.527  0.00  0.00    +0.295 HD
ENDBRANCH  15  16
ENDBRANCH   4  15
BRANCH   2  18
ATOM     18  N   UNL     1      34.548 -22.190 -18.787  0.00  0.00    -0.326 N 
ATOM     19  H   UNL     1      35.484 -22.383 -19.025  0.00  0.00    +0.147 HD
BRANCH  18  20
ATOM     20  C   UNL     1      33.755 -21.423 -19.695  0.00  0.00    +0.153 C 
BRANCH  20  22
ATOM     21  O   UNL     1      35.863 -20.330 -20.059  0.00  0.00    -0.453 OA
ATOM     22  C   UNL     1      34.550 -20.322 -20.344  0.00  0.00    +0.143 C 
ATOM     23  C   UNL     1      34.194 -19.314 -21.170  0.00  0.00    +0.038 C 
ATOM     24  C   UNL     1      35.396 -18.614 -21.433  0.00  0.00    +0.043 C 
ATOM     25  C   UNL     1      36.382 -19.271 -20.734  0.00  0.00    +0.179 C 
ENDBRANCH  20  22
ENDBRANCH  18  20
ENDBRANCH   2  18
TORSDOF 7
ENDMDL
MODEL 3
REMARK VINA RESULT:      -8.4      3.511      6.528
REMARK  Name = 3440
REMARK  7 active torsions:
REMARK  status: ('A' for Active; 'I' for Inactive)
REMARK    1  A    between atoms: C_2  and  N_18
REMARK    2  A    between atoms: C_3  and  S_8
REMARK    3  A    between atoms: C_4  and  C_15
REMARK    4  A    between atoms: S_8  and  N_11
REMARK    5  A    between atoms: C_15  and  O_16
REMARK    6  A    between atoms: N_18  and  C_20
REMARK    7  A    between atoms: C_20  and  C_22
REMARK                            x       y       z     vdW  Elec       q    Type
REMARK                         _______ _______ _______ _____ _____    ______ ____
ROOT
ATOM      1 CL   UNL     1      30.452 -23.909 -13.067  0.00  0.00    -0.081 Cl
ATOM      2  C   UNL     1      33.365 -23.330 -15.731  0.00  0.00    +0.052 C 
ATOM      3  C   UNL     1      30.576 -23.281 -15.724  0.00  0.00    +0.132 C 
ATOM      4  C   UNL     1      32.670 -23.039 -16.905  0.00  0.00    +0.090 C 
ATOM      5  C   UNL     1      31.275 -23.015 -16.901  0.00  0.00    +0.028 C 
ATOM      6  C   UNL     1      32.666 -23.596 -14.554  0.00  0.00    +0.027 C 
ATOM      7  C   UNL     1      31.272 -23.572 -14.551  0.00  0.00    +0.077 C 
ENDROOT
BRANCH   3   8
ATOM      8  S   UNL     1      28.825 -23.236 -15.780  0.00  0.00    +0.058 S 
ATOM      9  O   UNL     1      28.322 -24.469 -15.194  0.00  0.00    -0.153 OA
ATOM     10  O   UNL     1      28.385 -21.951 -15.262  0.00  0.00    -0.153 OA
BRANCH   8  11
ATOM     11  N   UNL     1      28.558 -23.273 -17.466  0.00  0.00    -0.203 NA
ATOM     12  H   UNL     1      27.626 -23.643 -17.654  0.00  0.00    +0.144 HD
ATOM     13  H   UNL     1      29.257 -23.872 -17.908  0.00  0.00    +0.144 HD
ENDBRANCH   8  11
ENDBRANCH   3   8
BRANCH   4  15
ATOM     14  O   UNL     1      34.500 -23.161 -18.441  0.00  0.00    -0.245 OA
ATOM     15  C   UNL     1      33.371 -22.756 -18.151  0.00  0.00    +0.339 C 
BRANCH  15  16
ATOM     16  O   UNL     1      32.639 -21.979 -18.991  0.00  0.00    -0.477 OA
ATOM     17  H   UNL     1      31.705 -22.055 -19.006  0.00  0.00    +0.295 HD
ENDBRANCH  15  16
ENDBRANCH   4  15
BRANCH   2  18
ATOM     18  N   UNL     1      34.777 -23.360 -15.713  0.00  0.00    -0.326 N 
ATOM     19  H   UNL     1      35.261 -23.270 -16.566  0.00  0.00    +0.147 HD
BRANCH  18  20
ATOM     20  C   UNL     1      35.534 -23.514 -14.511  0.00  0.00    +0.153 C 
BRANCH  20  22
ATOM     21  O   UNL     1      36.030 -25.636 -15.522  0.00  0.00    -0.453 OA
ATOM     22  C   UNL     1      36.244 -24.840 -14.460  0.00  0.00    +0.143 C 
ATOM     23  C   UNL     1      37.065 -25.393 -13.541  0.00  0.00    +0.038 C 
ATOM     24  C   UNL     1      37.405 -26.661 -14.069  0.00  0.00    +0.043 C 
ATOM     25  C   UNL     1      36.751 -26.762 -15.274  0.00  0.00    +0.179 C 
ENDBRANCH  20  22
ENDBRANCH  18  20
ENDBRANCH   2  18
TORSDOF 7
ENDMDL
MODEL 4
REMARK VINA RESULT:      -8.3     10.397     13.230
REMARK  Name = 3440
REMARK  7 active torsions:
REMARK  status: ('A' for Active; 'I' for Inactive)
REMARK    1  A    between atoms: C_2  and  N_18
REMARK    2  A    between atoms: C_3  and  S_8
REMARK    3  A    between atoms: C_4  and  C_15
REMARK    4  A    between atoms: S_8  and  N_11
REMARK    5  A    between atoms: C_15  and  O_16
REMARK    6  A    between atoms: N_18  and  C_20
REMARK    7  A    between atoms: C_20  and  C_22
REMARK                            x       y       z     vdW  Elec       q    Type
REMARK                         _______ _______ _______ _____ _____    ______ ____
ROOT
ATOM      1 CL   UNL     1      34.888 -15.866 -20.662  0.00  0.00    -0.081 Cl
ATOM      2  C   UNL     1      33.620 -14.180 -24.049  0.00  0.00    +0.052 C 
ATOM      3  C   UNL     1      34.474 -16.707 -23.230  0.00  0.00    +0.132 C 
ATOM      4  C   UNL     1      33.667 -15.232 -24.964  0.00  0.00    +0.090 C 
ATOM      5  C   UNL     1      34.093 -16.495 -24.555  0.00  0.00    +0.028 C 
ATOM      6  C   UNL     1      34.000 -14.392 -22.724  0.00  0.00    +0.027 C 
ATOM      7  C   UNL     1      34.427 -15.655 -22.314  0.00  0.00    +0.077 C 
ENDROOT
BRANCH   3   8
ATOM      8  S   UNL     1      35.001 -18.315 -22.773  0.00  0.00    +0.058 S 
ATOM      9  O   UNL     1      36.420 -18.254 -22.464  0.00  0.00    -0.153 OA
ATOM     10  O   UNL     1      34.064 -18.841 -21.794  0.00  0.00    -0.153 OA
BRANCH   8  11
ATOM     11  N   UNL     1      34.788 -19.151 -24.246  0.00  0.00    -0.203 NA
ATOM     12  H   UNL     1      34.007 -18.742 -24.759  0.00  0.00    +0.144 HD
ATOM     13  H   UNL     1      34.590 -20.134 -24.054  0.00  0.00    +0.144 HD
ENDBRANCH   8  11
ENDBRANCH   3   8
BRANCH   4  15
ATOM     14  O   UNL     1      33.746 -14.195 -27.119  0.00  0.00    -0.245 OA
ATOM     15  C   UNL     1      33.276 -15.042 -26.356  0.00  0.00    +0.339 C 
BRANCH  15  16
ATOM     16  O   UNL     1      32.312 -15.918 -26.746  0.00  0.00    -0.477 OA
ATOM     17  H   UNL     1      31.585 -16.096 -26.183  0.00  0.00    +0.295 HD
ENDBRANCH  15  16
ENDBRANCH   4  15
BRANCH   2  18
ATOM     18  N   UNL     1      33.191 -12.894 -24.443  0.00  0.00    -0.326 N 
ATOM     19  H   UNL     1      32.224 -12.716 -24.496  0.00  0.00    +0.147 HD
BRANCH  18  20
ATOM     20  C   UNL     1      34.099 -11.839 -24.768  0.00  0.00    +0.153 C 
BRANCH  20  22
ATOM     21  O   UNL     1      32.719 -10.652 -23.200  0.00  0.00    -0.453 OA
ATOM     22  C   UNL     1      33.774 -10.570 -24.028  0.00  0.00    +0.143 C 
ATOM     23  C   UNL     1      34.346  -9.346 -24.035  0.00  0.00    +0.038 C 
ATOM     24  C   UNL     1      33.580  -8.578 -23.126  0.00  0.00    +0.043 C 
ATOM     25  C   UNL     1      32.603  -9.417 -22.645  0.00  0.00    +0.179 C 
ENDBRANCH  20  22
ENDBRANCH  18  20
ENDBRANCH   2  18
TORSDOF 7
ENDMDL
MODEL 5
REMARK VINA RESULT:      -8.2      3.056      4.726
REMARK  Name = 3440
REMARK  7 active torsions:
REMARK  status: ('A' for Active; 'I' for Inactive)
REMARK    1  A    between atoms: C_2  and  N_18
REMARK    2  A    between atoms: C_3  and  S_8
REMARK    3  A    between atoms: C_4  and  C_15
REMARK    4  A    between atoms: S_8  and  N_11
REMARK    5  A    between atoms: C_15  and  O_16
REMARK    6  A    between atoms: N_18  and  C_20
REMARK    7  A    between atoms: C_20  and  C_22
REMARK                            x       y       z     vdW  Elec       q    Type
REMARK                         _______ _______ _______ _____ _____    ______ ____
ROOT
ATOM      1 CL   UNL     1      34.844 -24.249 -12.676  0.00  0.00    -0.081 Cl
ATOM      2  C   UNL     1      32.720 -23.407 -15.946  0.00  0.00    +0.052 C 
ATOM      3  C   UNL     1      35.419 -23.599 -15.267  0.00  0.00    +0.132 C 
ATOM      4  C   UNL     1      33.701 -23.171 -16.910  0.00  0.00    +0.090 C 
ATOM      5  C   UNL     1      35.050 -23.267 -16.571  0.00  0.00    +0.028 C 
ATOM      6  C   UNL     1      33.090 -23.739 -14.643  0.00  0.00    +0.027 C 
ATOM      7  C   UNL     1      34.439 -23.835 -14.303  0.00  0.00    +0.077 C 
ENDROOT
BRANCH   3   8
ATOM      8  S   UNL     1      37.129 -23.706 -14.899  0.00  0.00    +0.058 S 
ATOM      9  O   UNL     1      37.392 -22.886 -13.727  0.00  0.00    -0.153 OA
ATOM     10  O   UNL     1      37.511 -25.109 -14.907  0.00  0.00    -0.153 OA
BRANCH   8  11
ATOM     11  N   UNL     1      37.800 -22.944 -16.272  0.00  0.00    -0.203 NA
ATOM     12  H   UNL     1      37.864 -23.617 -17.036  0.00  0.00    +0.144 HD
ATOM     13  H   UNL     1      38.732 -22.595 -16.047  0.00  0.00    +0.144 HD
ENDBRANCH   8  11
ENDBRANCH   3   8
BRANCH   4  15
ATOM     14  O   UNL     1      32.535 -21.953 -18.608  0.00  0.00    -0.245 OA
ATOM     15  C   UNL     1      33.347 -22.822 -18.281  0.00  0.00    +0.339 C 
BRANCH  15  16
ATOM     16  O   UNL     1      34.022 -23.569 -19.194  0.00  0.00    -0.477 OA
ATOM     17  H   UNL     1      34.655 -23.165 -19.754  0.00  0.00    +0.295 HD
ENDBRANCH  15  16
ENDBRANCH   4  15
BRANCH   2  18
ATOM     18  N   UNL     1      31.348 -23.314 -16.269  0.00  0.00    -0.326 N 
ATOM     19  H   UNL     1      31.090 -23.275 -17.219  0.00  0.00    +0.147 HD
BRANCH  18  20
ATOM     20  C   UNL     1      30.319 -23.275 -15.278  0.00  0.00    +0.153 C 
BRANCH  20  22
ATOM     21  O   UNL     1      28.829 -23.163 -17.159  0.00  0.00    -0.453 OA
ATOM     22  C   UNL     1      28.995 -22.861 -15.860  0.00  0.00    +0.143 C 
ATOM     23  C   UNL     1      27.924 -22.236 -15.321  0.00  0.00    +0.038 C 
ATOM     24  C   UNL     1      26.991 -22.131 -16.379  0.00  0.00    +0.043 C 
ATOM     25  C   UNL     1      27.588 -22.708 -17.475  0.00  0.00    +0.179 C 
ENDBRANCH  20  22
ENDBRANCH  18  20
ENDBRANCH   2  18
TORSDOF 7
ENDMDL
MODEL 6
REMARK VINA RESULT:      -8.2     10.287     13.106
REMARK  Name = 3440
REMARK  7 active torsions:
REMARK  status: ('A' for Active; 'I' for Inactive)
REMARK    1  A    between atoms: C_2  and  N_18
REMARK    2  A    between atoms: C_3  and  S_8
REMARK    3  A    between atoms: C_4  and  C_15
REMARK    4  A    between atoms: S_8  and  N_11
REMARK    5  A    between atoms: C_15  and  O_16
REMARK    6  A    between atoms: N_18  and  C_20
REMARK    7  A    between atoms: C_20  and  C_22
REMARK                            x       y       z     vdW  Elec       q    Type
REMARK                         _______ _______ _______ _____ _____    ______ ____
ROOT
ATOM      1 CL   UNL     1      34.819 -16.158 -20.638  0.00  0.00    -0.081 Cl
ATOM      2  C   UNL     1      33.457 -14.435 -23.969  0.00  0.00    +0.052 C 
ATOM      3  C   UNL     1      34.515 -16.914 -23.247  0.00  0.00    +0.132 C 
ATOM      4  C   UNL     1      33.608 -15.436 -24.929  0.00  0.00    +0.090 C 
ATOM      5  C   UNL     1      34.136 -16.675 -24.568  0.00  0.00    +0.028 C 
ATOM      6  C   UNL     1      33.836 -14.674 -22.648  0.00  0.00    +0.027 C 
ATOM      7  C   UNL     1      34.365 -15.912 -22.287  0.00  0.00    +0.077 C 
ENDROOT
BRANCH   3   8
ATOM      8  S   UNL     1      35.173 -18.489 -22.852  0.00  0.00    +0.058 S 
ATOM      9  O   UNL     1      36.590 -18.329 -22.569  0.00  0.00    -0.153 OA
ATOM     10  O   UNL     1      34.301 -19.115 -21.871  0.00  0.00    -0.153 OA
BRANCH   8  11
ATOM     11  N   UNL     1      34.991 -19.295 -24.347  0.00  0.00    -0.203 NA
ATOM     12  H   UNL     1      35.385 -18.720 -25.092  0.00  0.00    +0.144 HD
ATOM     13  H   UNL     1      34.000 -19.455 -24.529  0.00  0.00    +0.144 HD
ENDBRANCH   8  11
ENDBRANCH   3   8
BRANCH   4  15
ATOM     14  O   UNL     1      33.667 -14.332 -27.051  0.00  0.00    -0.245 OA
ATOM     15  C   UNL     1      33.221 -15.218 -26.318  0.00  0.00    +0.339 C 
BRANCH  15  16
ATOM     16  O   UNL     1      32.292 -16.115 -26.742  0.00  0.00    -0.477 OA
ATOM     17  H   UNL     1      31.610 -16.391 -26.164  0.00  0.00    +0.295 HD
ENDBRANCH  15  16
ENDBRANCH   4  15
BRANCH   2  18
ATOM     18  N   UNL     1      32.923 -13.174 -24.313  0.00  0.00    -0.326 N 
ATOM     19  H   UNL     1      32.406 -13.093 -25.147  0.00  0.00    +0.147 HD
BRANCH  18  20
ATOM     20  C   UNL     1      33.103 -12.009 -23.505  0.00  0.00    +0.153 C 
BRANCH  20  22
ATOM     21  O   UNL     1      34.074  -9.812 -23.536  0.00  0.00    -0.453 OA
ATOM     22  C   UNL     1      33.987 -10.991 -24.174  0.00  0.00    +0.143 C 
ATOM     23  C   UNL     1      34.721 -11.036 -25.308  0.00  0.00    +0.038 C 
ATOM     24  C   UNL     1      35.331  -9.762 -25.398  0.00  0.00    +0.043 C 
ATOM     25  C   UNL     1      34.907  -9.055 -24.298  0.00  0.00    +0.179 C 
ENDBRANCH  20  22
ENDBRANCH  18  20
ENDBRANCH   2  18
TORSDOF 7
ENDMDL
MODEL 7
REMARK VINA RESULT:      -8.2      3.426      5.828
REMARK  Name = 3440
REMARK  7 active torsions:
REMARK  status: ('A' for Active; 'I' for Inactive)
REMARK    1  A    between atoms: C_2  and  N_18
REMARK    2  A    between atoms: C_3  and  S_8
REMARK    3  A    between atoms: C_4  and  C_15
REMARK    4  A    between atoms: S_8  and  N_11
REMARK    5  A    between atoms: C_15  and  O_16
REMARK    6  A    between atoms: N_18  and  C_20
REMARK    7  A    between atoms: C_20  and  C_22
REMARK                            x       y       z     vdW  Elec       q    Type
REMARK                         _______ _______ _______ _____ _____    ______ ____
ROOT
ATOM      1 CL   UNL     1      31.980 -23.209 -17.096  0.00  0.00    -0.081 Cl
ATOM      2  C   UNL     1      35.072 -23.297 -14.576  0.00  0.00    +0.052 C 
ATOM      3  C   UNL     1      32.376 -24.010 -14.513  0.00  0.00    +0.132 C 
ATOM      4  C   UNL     1      34.521 -23.843 -13.416  0.00  0.00    +0.090 C 
ATOM      5  C   UNL     1      33.174 -24.200 -13.385  0.00  0.00    +0.028 C 
ATOM      6  C   UNL     1      34.274 -23.108 -15.704  0.00  0.00    +0.027 C 
ATOM      7  C   UNL     1      32.926 -23.464 -15.673  0.00  0.00    +0.077 C 
ENDROOT
BRANCH   3   8
ATOM      8  S   UNL     1      30.689 -24.477 -14.416  0.00  0.00    +0.058 S 
ATOM      9  O   UNL     1      29.878 -23.310 -14.721  0.00  0.00    -0.153 OA
ATOM     10  O   UNL     1      30.512 -25.706 -15.172  0.00  0.00    -0.153 OA
BRANCH   8  11
ATOM     11  N   UNL     1      30.552 -24.829 -12.750  0.00  0.00    -0.203 NA
ATOM     12  H   UNL     1      30.390 -23.965 -12.233  0.00  0.00    +0.144 HD
ATOM     13  H   UNL     1      31.414 -25.266 -12.422  0.00  0.00    +0.144 HD
ENDBRANCH   8  11
ENDBRANCH   3   8
BRANCH   4  15
ATOM     14  O   UNL     1      36.250 -23.324 -11.846  0.00  0.00    -0.245 OA
ATOM     15  C   UNL     1      35.329 -24.053 -12.221  0.00  0.00    +0.339 C 
BRANCH  15  16
ATOM     16  O   UNL     1      34.956 -25.166 -11.535  0.00  0.00    -0.477 OA
ATOM     17  H   UNL     1      34.522 -25.867 -11.980  0.00  0.00    +0.295 HD
ENDBRANCH  15  16
ENDBRANCH   4  15
BRANCH   2  18
ATOM     18  N   UNL     1      36.435 -22.929 -14.629  0.00  0.00    -0.326 N 
ATOM     19  H   UNL     1      36.765 -22.254 -13.992  0.00  0.00    +0.147 HD
BRANCH  18  20
ATOM     20  C   UNL     1      37.355 -23.493 -15.566  0.00  0.00    +0.153 C 
BRANCH  20  22
ATOM     21  O   UNL     1      39.602 -24.289 -15.273  0.00  0.00    -0.453 OA
ATOM     22  C   UNL     1      38.319 -24.441 -14.906  0.00  0.00    +0.143 C 
ATOM     23  C   UNL     1      38.141 -25.429 -14.002  0.00  0.00    +0.038 C 
ATOM     24  C   UNL     1      39.435 -25.955 -13.774  0.00  0.00    +0.043 C 
ATOM     25  C   UNL     1      40.288 -25.229 -14.571  0.00  0.00    +0.179 C 
ENDBRANCH  20  22
ENDBRANCH  18  20
ENDBRANCH   2  18
TORSDOF 7
ENDMDL
MODEL 8
REMARK VINA RESULT:      -8.0      2.738      5.995
REMARK  Name = 3440
REMARK  7 active torsions:
REMARK  status: ('A' for Active; 'I' for Inactive)
REMARK    1  A    between atoms: C_2  and  N_18
REMARK    2  A    between atoms: C_3  and  S_8
REMARK    3  A    between atoms: C_4  and  C_15
REMARK    4  A    between atoms: S_8  and  N_11
REMARK    5  A    between atoms: C_15  and  O_16
REMARK    6  A    between atoms: N_18  and  C_20
REMARK    7  A    between atoms: C_20  and  C_22
REMARK                            x       y       z     vdW  Elec       q    Type
REMARK                         _______ _______ _______ _____ _____    ______ ____
ROOT
ATOM      1 CL   UNL     1      36.971 -22.044 -17.526  0.00  0.00    -0.081 Cl
ATOM      2  C   UNL     1      35.004 -23.296 -14.288  0.00  0.00    +0.052 C 
ATOM      3  C   UNL     1      34.422 -22.867 -16.983  0.00  0.00    +0.132 C 
ATOM      4  C   UNL     1      33.719 -23.544 -14.773  0.00  0.00    +0.090 C 
ATOM      5  C   UNL     1      33.428 -23.330 -16.120  0.00  0.00    +0.028 C 
ATOM      6  C   UNL     1      35.997 -22.833 -15.151  0.00  0.00    +0.027 C 
ATOM      7  C   UNL     1      35.706 -22.618 -16.498  0.00  0.00    +0.077 C 
ENDROOT
BRANCH   3   8
ATOM      8  S   UNL     1      33.998 -22.617 -18.665  0.00  0.00    +0.058 S 
ATOM      9  O   UNL     1      34.813 -21.527 -19.179  0.00  0.00    -0.153 OA
ATOM     10  O   UNL     1      34.002 -23.908 -19.333  0.00  0.00    -0.153 OA
BRANCH   8  11
ATOM     11  N   UNL     1      32.385 -22.079 -18.511  0.00  0.00    -0.203 NA
ATOM     12  H   UNL     1      31.757 -22.883 -18.516  0.00  0.00    +0.144 HD
ATOM     13  H   UNL     1      32.155 -21.464 -19.292  0.00  0.00    +0.144 HD
ENDBRANCH   8  11
ENDBRANCH   3   8
BRANCH   4  15
ATOM     14  O   UNL     1      32.115 -25.132 -13.979  0.00  0.00    -0.245 OA
ATOM     15  C   UNL     1      32.659 -24.028 -13.897  0.00  0.00    +0.339 C 
BRANCH  15  16
ATOM     16  O   UNL     1      32.318 -23.117 -12.947  0.00  0.00    -0.477 OA
ATOM     17  H   UNL     1      32.984 -22.641 -12.493  0.00  0.00    +0.295 HD
ENDBRANCH  15  16
ENDBRANCH   4  15
BRANCH   2  18
ATOM     18  N   UNL     1      35.319 -23.506 -12.928  0.00  0.00    -0.326 N 
ATOM     19  H   UNL     1      35.229 -22.751 -12.302  0.00  0.00    +0.147 HD
BRANCH  18  20
ATOM     20  C   UNL     1      35.762 -24.766 -12.420  0.00  0.00    +0.153 C 
BRANCH  20  22
ATOM     21  O   UNL     1      37.048 -26.045 -13.996  0.00  0.00    -0.453 OA
ATOM     22  C   UNL     1      37.100 -25.161 -12.986  0.00  0.00    +0.143 C 
ATOM     23  C   UNL     1      38.361 -24.792 -12.669  0.00  0.00    +0.038 C 
ATOM     24  C   UNL     1      39.188 -25.512 -13.564  0.00  0.00    +0.043 C 
ATOM     25  C   UNL     1      38.342 -26.259 -14.349  0.00  0.00    +0.179 C 
ENDBRANCH  20  22
ENDBRANCH  18  20
ENDBRANCH   2  18
TORSDOF 7
ENDMDL
MODEL 9
REMARK VINA RESULT:      -7.9     10.387     12.951
REMARK  Name = 3440
REMARK  7 active torsions:
REMARK  status: ('A' for Active; 'I' for Inactive)
REMARK    1  A    between atoms: C_2  and  N_18
REMARK    2  A    between atoms: C_3  and  S_8
REMARK    3  A    between atoms: C_4  and  C_15
REMARK    4  A    between atoms: S_8  and  N_11
REMARK    5  A    between atoms: C_15  and  O_16
REMARK    6  A    between atoms: N_18  and  C_20
REMARK    7  A    between atoms: C_20  and  C_22
REMARK                            x       y       z     vdW  Elec       q    Type
REMARK                         _______ _______ _______ _____ _____    ______ ____
ROOT
ATOM      1 CL   UNL     1      34.949 -16.630 -20.615  0.00  0.00    -0.081 Cl
ATOM      2  C   UNL     1      33.587 -13.859 -23.142  0.00  0.00    +0.052 C 
ATOM      3  C   UNL     1      34.413 -16.519 -23.293  0.00  0.00    +0.132 C 
ATOM      4  C   UNL     1      33.573 -14.526 -24.368  0.00  0.00    +0.090 C 
ATOM      5  C   UNL     1      33.986 -15.855 -24.443  0.00  0.00    +0.028 C 
ATOM      6  C   UNL     1      34.015 -14.523 -21.993  0.00  0.00    +0.027 C 
ATOM      7  C   UNL     1      34.428 -15.852 -22.068  0.00  0.00    +0.077 C 
ENDROOT
BRANCH   3   8
ATOM      8  S   UNL     1      34.920 -18.190 -23.449  0.00  0.00    +0.058 S 
ATOM      9  O   UNL     1      34.191 -18.977 -22.467  0.00  0.00    -0.153 OA
ATOM     10  O   UNL     1      34.872 -18.552 -24.856  0.00  0.00    -0.153 OA
BRANCH   8  11
ATOM     11  N   UNL     1      36.554 -18.074 -22.964  0.00  0.00    -0.203 NA
ATOM     12  H   UNL     1      36.857 -17.101 -23.022  0.00  0.00    +0.144 HD
ATOM     13  H   UNL     1      37.133 -18.647 -23.579  0.00  0.00    +0.144 HD
ENDBRANCH   8  11
ENDBRANCH   3   8
BRANCH   4  15
ATOM     14  O   UNL     1      33.493 -12.741 -25.960  0.00  0.00    -0.245 OA
ATOM     15  C   UNL     1      33.132 -13.860 -25.587  0.00  0.00    +0.339 C 
BRANCH  15  16
ATOM     16  O   UNL     1      32.255 -14.615 -26.300  0.00  0.00    -0.477 OA
ATOM     17  H   UNL     1      32.071 -15.495 -26.035  0.00  0.00    +0.295 HD
ENDBRANCH  15  16
ENDBRANCH   4  15
BRANCH   2  18
ATOM     18  N   UNL     1      33.173 -12.512 -23.044  0.00  0.00    -0.326 N 
ATOM     19  H   UNL     1      33.831 -11.803 -23.227  0.00  0.00    +0.147 HD
BRANCH  18  20
ATOM     20  C   UNL     1      31.841 -12.134 -22.691  0.00  0.00    +0.153 C 
BRANCH  20  22
ATOM     21  O   UNL     1      31.905 -10.074 -21.458  0.00  0.00    -0.453 OA
ATOM     22  C   UNL     1      31.793 -11.410 -21.373  0.00  0.00    +0.143 C 
ATOM     23  C   UNL     1      31.656 -11.851 -20.103  0.00  0.00    +0.038 C 
ATOM     24  C   UNL     1      31.686 -10.682 -19.305  0.00  0.00    +0.043 C 
ATOM     25  C   UNL     1      31.839  -9.629 -20.175  0.00  0.00    +0.179 C 
ENDBRANCH  20  22
ENDBRANCH  18  20
ENDBRANCH   2  18
TORSDOF 7
ENDMDL
