MODEL 1
REMARK VINA RESULT:      -8.1      0.000      0.000
REMARK  Name = 6433427
REMARK  6 active torsions:
REMARK  status: ('A' for Active; 'I' for Inactive)
REMARK    1  A    between atoms: N_1  and  C_2
REMARK    2  A    between atoms: N_1  and  N_5
REMARK    3  A    between atoms: C_2  and  C_13
REMARK    4  A    between atoms: C_6  and  C_9
REMARK    5  A    between atoms: C_9  and  S_10
REMARK    6  A    between atoms: C_15  and  N_19
REMARK                            x       y       z     vdW  Elec       q    Type
REMARK                         _______ _______ _______ _____ _____    ______ ____
ROOT
ATOM      1  N   UNL     1      34.149 -18.636 -21.470  0.00  0.00    -0.117 NA
ENDROOT
BRANCH   1   4
ATOM      2  O   UNL     1      35.228 -15.430 -22.391  0.00  0.00    -0.435 OA
ATOM      3  O   UNL     1      34.939 -16.180 -20.247  0.00  0.00    -0.225 OA
ATOM      4  N   UNL     1      34.503 -17.514 -22.110  0.00  0.00    -0.169 N 
ATOM      5  C   UNL     1      34.872 -15.922 -23.704  0.00  0.00    +0.203 C 
ATOM      6  C   UNL     1      34.666 -17.415 -23.521  0.00  0.00    +0.161 C 
ATOM      7  C   UNL     1      34.883 -16.373 -21.453  0.00  0.00    +0.420 C 
BRANCH   5   8
ATOM      8  C   UNL     1      33.614 -15.199 -24.168  0.00  0.00    +0.103 C 
BRANCH   8   9
ATOM      9  S   UNL     1      33.680 -13.451 -23.699  0.00  0.00    -0.135 S 
ATOM     10  C   UNL     1      32.327 -13.445 -22.500  0.00  0.00    +0.069 C 
ENDBRANCH   8   9
ENDBRANCH   5   8
ENDBRANCH   1   4
BRANCH   1  11
ATOM     11  C   UNL     1      35.035 -19.575 -21.541  0.00  0.00    +0.176 C 
BRANCH  11  13
ATOM     12  O   UNL     1      34.201 -21.109 -19.917  0.00  0.00    -0.436 OA
ATOM     13  C   UNL     1      35.276 -20.492 -20.438  0.00  0.00    +0.144 C 
ATOM     14  C   UNL     1      36.431 -20.845 -19.824  0.00  0.00    +0.040 C 
ATOM     15  C   UNL     1      34.683 -21.896 -18.919  0.00  0.00    +0.289 C 
ATOM     16  C   UNL     1      36.049 -21.769 -18.822  0.00  0.00    +0.066 C 
BRANCH  15  19
ATOM     17  O   UNL     1      32.495 -22.411 -18.407  0.00  0.00    -0.123 OA
ATOM     18  O   UNL     1      34.094 -23.547 -17.421  0.00  0.00    -0.123 OA
ATOM     19  N   UNL     1      33.727 -22.642 -18.227  0.00  0.00    +0.093 N 
ENDBRANCH  15  19
ENDBRANCH  11  13
ENDBRANCH   1  11
TORSDOF 6
ENDMDL
MODEL 2
REMARK VINA RESULT:      -7.9      7.733      9.969
REMARK  Name = 6433427
REMARK  6 active torsions:
REMARK  status: ('A' for Active; 'I' for Inactive)
REMARK    1  A    between atoms: N_1  and  C_2
REMARK    2  A    between atoms: N_1  and  N_5
REMARK    3  A    between atoms: C_2  and  C_13
REMARK    4  A    between atoms: C_6  and  C_9
REMARK    5  A    between atoms: C_9  and  S_10
REMARK    6  A    between atoms: C_15  and  N_19
REMARK                            x       y       z     vdW  Elec       q    Type
REMARK                         _______ _______ _______ _____ _____    ______ ____
ROOT
ATOM      1  N   UNL     1      32.889 -23.869 -13.166  0.00  0.00    -0.117 NA
ENDROOT
BRANCH   1   4
ATOM      2  O   UNL     1      36.250 -24.859 -13.052  0.00  0.00    -0.435 OA
ATOM      3  O   UNL     1      34.968 -24.268 -11.249  0.00  0.00    -0.225 OA
ATOM      4  N   UNL     1      34.146 -24.246 -13.433  0.00  0.00    -0.169 N 
ATOM      5  C   UNL     1      36.103 -24.765 -14.487  0.00  0.00    +0.203 C 
ATOM      6  C   UNL     1      34.608 -24.637 -14.721  0.00  0.00    +0.161 C 
ATOM      7  C   UNL     1      35.089 -24.429 -12.455  0.00  0.00    +0.420 C 
BRANCH   5   8
ATOM      8  C   UNL     1      36.888 -23.556 -14.977  0.00  0.00    +0.103 C 
BRANCH   8   9
ATOM      9  S   UNL     1      35.917 -22.619 -16.186  0.00  0.00    -0.135 S 
ATOM     10  C   UNL     1      37.235 -21.555 -16.818  0.00  0.00    +0.069 C 
ENDBRANCH   8   9
ENDBRANCH   5   8
ENDBRANCH   1   4
BRANCH   1  11
ATOM     11  C   UNL     1      32.276 -23.352 -14.181  0.00  0.00    +0.176 C 
BRANCH  11  13
ATOM     12  O   UNL     1      30.359 -23.119 -15.580  0.00  0.00    -0.436 OA
ATOM     13  C   UNL     1      30.977 -23.833 -14.623  0.00  0.00    +0.144 C 
ATOM     14  C   UNL     1      30.256 -24.911 -14.227  0.00  0.00    +0.040 C 
ATOM     15  C   UNL     1      29.185 -23.764 -15.813  0.00  0.00    +0.289 C 
ATOM     16  C   UNL     1      29.075 -24.871 -15.006  0.00  0.00    +0.066 C 
BRANCH  15  19
ATOM     17  O   UNL     1      27.716 -23.929 -17.583  0.00  0.00    -0.123 OA
ATOM     18  O   UNL     1      28.277 -21.928 -16.873  0.00  0.00    -0.123 OA
ATOM     19  N   UNL     1      28.367 -23.189 -16.787  0.00  0.00    +0.093 N 
ENDBRANCH  15  19
ENDBRANCH  11  13
ENDBRANCH   1  11
TORSDOF 6
ENDMDL
MODEL 3
REMARK VINA RESULT:      -7.8      2.013      2.674
REMARK  Name = 6433427
REMARK  6 active torsions:
REMARK  status: ('A' for Active; 'I' for Inactive)
REMARK    1  A    between atoms: N_1  and  C_2
REMARK    2  A    between atoms: N_1  and  N_5
REMARK    3  A    between atoms: C_2  and  C_13
REMARK    4  A    between atoms: C_6  and  C_9
REMARK    5  A    between atoms: C_9  and  S_10
REMARK    6  A    between atoms: C_15  and  N_19
REMARK                            x       y       z     vdW  Elec       q    Type
REMARK                         _______ _______ _______ _____ _____    ______ ____
ROOT
ATOM      1  N   UNL     1      35.409 -17.794 -23.028  0.00  0.00    -0.117 NA
ENDROOT
BRANCH   1   4
ATOM      2  O   UNL     1      33.574 -15.354 -24.751  0.00  0.00    -0.435 OA
ATOM      3  O   UNL     1      34.872 -16.978 -25.711  0.00  0.00    -0.225 OA
ATOM      4  N   UNL     1      34.649 -16.756 -23.399  0.00  0.00    -0.169 N 
ATOM      5  C   UNL     1      33.394 -14.849 -23.408  0.00  0.00    +0.203 C 
ATOM      6  C   UNL     1      33.877 -15.966 -22.500  0.00  0.00    +0.161 C 
ATOM      7  C   UNL     1      34.427 -16.431 -24.713  0.00  0.00    +0.420 C 
BRANCH   5   8
ATOM      8  C   UNL     1      34.203 -13.568 -23.259  0.00  0.00    +0.103 C 
BRANCH   8   9
ATOM      9  S   UNL     1      33.166 -12.122 -23.601  0.00  0.00    -0.135 S 
ATOM     10  C   UNL     1      33.960 -11.582 -25.133  0.00  0.00    +0.069 C 
ENDBRANCH   8   9
ENDBRANCH   5   8
ENDBRANCH   1   4
BRANCH   1  11
ATOM     11  C   UNL     1      35.458 -17.969 -21.747  0.00  0.00    +0.176 C 
BRANCH  11  13
ATOM     12  O   UNL     1      35.522 -19.928 -20.389  0.00  0.00    -0.436 OA
ATOM     13  C   UNL     1      34.765 -19.068 -21.093  0.00  0.00    +0.144 C 
ATOM     14  C   UNL     1      33.448 -19.386 -21.066  0.00  0.00    +0.040 C 
ATOM     15  C   UNL     1      34.654 -20.846 -19.886  0.00  0.00    +0.289 C 
ATOM     16  C   UNL     1      33.367 -20.556 -20.274  0.00  0.00    +0.066 C 
BRANCH  15  19
ATOM     17  O   UNL     1      34.681 -22.994 -19.046  0.00  0.00    -0.123 OA
ATOM     18  O   UNL     1      36.296 -21.625 -18.466  0.00  0.00    -0.123 OA
ATOM     19  N   UNL     1      35.229 -21.853 -19.109  0.00  0.00    +0.093 N 
ENDBRANCH  15  19
ENDBRANCH  11  13
ENDBRANCH   1  11
TORSDOF 6
ENDMDL
MODEL 4
REMARK VINA RESULT:      -7.8      3.427      7.452
REMARK  Name = 6433427
REMARK  6 active torsions:
REMARK  status: ('A' for Active; 'I' for Inactive)
REMARK    1  A    between atoms: N_1  and  C_2
REMARK    2  A    between atoms: N_1  and  N_5
REMARK    3  A    between atoms: C_2  and  C_13
REMARK    4  A    between atoms: C_6  and  C_9
REMARK    5  A    between atoms: C_9  and  S_10
REMARK    6  A    between atoms: C_15  and  N_19
REMARK                            x       y       z     vdW  Elec       q    Type
REMARK                         _______ _______ _______ _____ _____    ______ ____
ROOT
ATOM      1  N   UNL     1      35.039 -18.812 -20.672  0.00  0.00    -0.117 NA
ENDROOT
BRANCH   1   4
ATOM      2  O   UNL     1      33.520 -21.879 -19.914  0.00  0.00    -0.435 OA
ATOM      3  O   UNL     1      32.427 -19.949 -20.484  0.00  0.00    -0.225 OA
ATOM      4  N   UNL     1      34.751 -20.070 -20.317  0.00  0.00    -0.169 N 
ATOM      5  C   UNL     1      34.878 -22.216 -19.547  0.00  0.00    +0.203 C 
ATOM      6  C   UNL     1      35.726 -21.085 -20.101  0.00  0.00    +0.161 C 
ATOM      7  C   UNL     1      33.468 -20.550 -20.260  0.00  0.00    +0.420 C 
BRANCH   5   8
ATOM      8  C   UNL     1      34.956 -22.331 -18.031  0.00  0.00    +0.103 C 
BRANCH   8   9
ATOM      9  S   UNL     1      33.498 -23.191 -17.386  0.00  0.00    -0.135 S 
ATOM     10  C   UNL     1      34.101 -23.521 -15.714  0.00  0.00    +0.069 C 
ENDBRANCH   8   9
ENDBRANCH   5   8
ENDBRANCH   1   4
BRANCH   1  11
ATOM     11  C   UNL     1      35.768 -18.728 -21.738  0.00  0.00    +0.176 C 
BRANCH  11  13
ATOM     12  O   UNL     1      34.884 -17.170 -23.312  0.00  0.00    -0.436 OA
ATOM     13  C   UNL     1      35.192 -18.451 -23.044  0.00  0.00    +0.144 C 
ATOM     14  C   UNL     1      34.902 -19.285 -24.072  0.00  0.00    +0.040 C 
ATOM     15  C   UNL     1      34.371 -17.177 -24.572  0.00  0.00    +0.289 C 
ATOM     16  C   UNL     1      34.360 -18.454 -25.081  0.00  0.00    +0.066 C 
BRANCH  15  19
ATOM     17  O   UNL     1      33.759 -14.974 -24.266  0.00  0.00    -0.123 OA
ATOM     18  O   UNL     1      33.838 -15.763 -26.313  0.00  0.00    -0.123 OA
ATOM     19  N   UNL     1      33.977 -15.932 -25.066  0.00  0.00    +0.093 N 
ENDBRANCH  15  19
ENDBRANCH  11  13
ENDBRANCH   1  11
TORSDOF 6
ENDMDL
MODEL 5
REMARK VINA RESULT:      -7.8      1.461      2.062
REMARK  Name = 6433427
REMARK  6 active torsions:
REMARK  status: ('A' for Active; 'I' for Inactive)
REMARK    1  A    between atoms: N_1  and  C_2
REMARK    2  A    between atoms: N_1  and  N_5
REMARK    3  A    between atoms: C_2  and  C_13
REMARK    4  A    between atoms: C_6  and  C_9
REMARK    5  A    between atoms: C_9  and  S_10
REMARK    6  A    between atoms: C_15  and  N_19
REMARK                            x       y       z     vdW  Elec       q    Type
REMARK                         _______ _______ _______ _____ _____    ______ ____
ROOT
ATOM      1  N   UNL     1      35.602 -18.120 -22.314  0.00  0.00    -0.117 NA
ENDROOT
BRANCH   1   4
ATOM      2  O   UNL     1      34.634 -14.800 -21.734  0.00  0.00    -0.435 OA
ATOM      3  O   UNL     1      34.923 -16.410 -20.130  0.00  0.00    -0.225 OA
ATOM      4  N   UNL     1      35.229 -16.837 -22.404  0.00  0.00    -0.169 N 
ATOM      5  C   UNL     1      34.556 -14.797 -23.178  0.00  0.00    +0.203 C 
ATOM      6  C   UNL     1      35.240 -16.082 -23.611  0.00  0.00    +0.161 C 
ATOM      7  C   UNL     1      34.928 -16.073 -21.305  0.00  0.00    +0.420 C 
BRANCH   5   8
ATOM      8  C   UNL     1      33.090 -14.736 -23.584  0.00  0.00    +0.103 C 
BRANCH   8   9
ATOM      9  S   UNL     1      32.893 -13.754 -25.093  0.00  0.00    -0.135 S 
ATOM     10  C   UNL     1      32.920 -15.105 -26.295  0.00  0.00    +0.069 C 
ENDBRANCH   8   9
ENDBRANCH   5   8
ENDBRANCH   1   4
BRANCH   1  11
ATOM     11  C   UNL     1      34.620 -18.954 -22.423  0.00  0.00    +0.176 C 
BRANCH  11  13
ATOM     12  O   UNL     1      35.127 -20.471 -20.654  0.00  0.00    -0.436 OA
ATOM     13  C   UNL     1      34.179 -19.775 -21.306  0.00  0.00    +0.144 C 
ATOM     14  C   UNL     1      32.940 -19.967 -20.791  0.00  0.00    +0.040 C 
ATOM     15  C   UNL     1      34.470 -21.145 -19.672  0.00  0.00    +0.289 C 
ATOM     16  C   UNL     1      33.124 -20.868 -19.715  0.00  0.00    +0.066 C 
BRANCH  15  19
ATOM     17  O   UNL     1      34.758 -22.922 -18.232  0.00  0.00    -0.123 OA
ATOM     18  O   UNL     1      36.506 -21.697 -18.741  0.00  0.00    -0.123 OA
ATOM     19  N   UNL     1      35.270 -21.946 -18.856  0.00  0.00    +0.093 N 
ENDBRANCH  15  19
ENDBRANCH  11  13
ENDBRANCH   1  11
TORSDOF 6
ENDMDL
MODEL 6
REMARK VINA RESULT:      -7.8      1.569      2.176
REMARK  Name = 6433427
REMARK  6 active torsions:
REMARK  status: ('A' for Active; 'I' for Inactive)
REMARK    1  A    between atoms: N_1  and  C_2
REMARK    2  A    between atoms: N_1  and  N_5
REMARK    3  A    between atoms: C_2  and  C_13
REMARK    4  A    between atoms: C_6  and  C_9
REMARK    5  A    between atoms: C_9  and  S_10
REMARK    6  A    between atoms: C_15  and  N_19
REMARK                            x       y       z     vdW  Elec       q    Type
REMARK                         _______ _______ _______ _____ _____    ______ ____
ROOT
ATOM      1  N   UNL     1      35.202 -17.364 -20.972  0.00  0.00    -0.117 NA
ENDROOT
BRANCH   1   4
ATOM      2  O   UNL     1      33.339 -15.008 -22.780  0.00  0.00    -0.435 OA
ATOM      3  O   UNL     1      35.396 -15.824 -23.369  0.00  0.00    -0.225 OA
ATOM      4  N   UNL     1      34.298 -16.482 -21.418  0.00  0.00    -0.169 N 
ATOM      5  C   UNL     1      32.518 -15.063 -21.591  0.00  0.00    +0.203 C 
ATOM      6  C   UNL     1      33.023 -16.270 -20.821  0.00  0.00    +0.161 C 
ATOM      7  C   UNL     1      34.456 -15.786 -22.589  0.00  0.00    +0.420 C 
BRANCH   5   8
ATOM      8  C   UNL     1      32.685 -13.756 -20.827  0.00  0.00    +0.103 C 
BRANCH   8   9
ATOM      9  S   UNL     1      31.928 -12.388 -21.741  0.00  0.00    -0.135 S 
ATOM     10  C   UNL     1      31.339 -11.420 -20.332  0.00  0.00    +0.069 C 
ENDBRANCH   8   9
ENDBRANCH   5   8
ENDBRANCH   1   4
BRANCH   1  11
ATOM     11  C   UNL     1      35.058 -18.550 -21.470  0.00  0.00    +0.176 C 
BRANCH  11  13
ATOM     12  O   UNL     1      34.199 -20.483 -20.369  0.00  0.00    -0.436 OA
ATOM     13  C   UNL     1      35.283 -19.749 -20.679  0.00  0.00    +0.144 C 
ATOM     14  C   UNL     1      36.430 -20.274 -20.184  0.00  0.00    +0.040 C 
ATOM     15  C   UNL     1      34.668 -21.530 -19.640  0.00  0.00    +0.289 C 
ATOM     16  C   UNL     1      36.034 -21.447 -19.498  0.00  0.00    +0.066 C 
BRANCH  15  19
ATOM     17  O   UNL     1      33.921 -23.683 -19.287  0.00  0.00    -0.123 OA
ATOM     18  O   UNL     1      32.609 -22.016 -18.724  0.00  0.00    -0.123 OA
ATOM     19  N   UNL     1      33.702 -22.438 -19.203  0.00  0.00    +0.093 N 
ENDBRANCH  15  19
ENDBRANCH  11  13
ENDBRANCH   1  11
TORSDOF 6
ENDMDL
MODEL 7
REMARK VINA RESULT:      -7.8      2.394      3.363
REMARK  Name = 6433427
REMARK  6 active torsions:
REMARK  status: ('A' for Active; 'I' for Inactive)
REMARK    1  A    between atoms: N_1  and  C_2
REMARK    2  A    between atoms: N_1  and  N_5
REMARK    3  A    between atoms: C_2  and  C_13
REMARK    4  A    between atoms: C_6  and  C_9
REMARK    5  A    between atoms: C_9  and  S_10
REMARK    6  A    between atoms: C_15  and  N_19
REMARK                            x       y       z     vdW  Elec       q    Type
REMARK                         _______ _______ _______ _____ _____    ______ ____
ROOT
ATOM      1  N   UNL     1      35.361 -16.104 -23.248  0.00  0.00    -0.117 NA
ENDROOT
BRANCH   1   4
ATOM      2  O   UNL     1      33.121 -15.327 -25.831  0.00  0.00    -0.435 OA
ATOM      3  O   UNL     1      34.613 -17.064 -25.831  0.00  0.00    -0.225 OA
ATOM      4  N   UNL     1      34.442 -15.560 -24.056  0.00  0.00    -0.169 N 
ATOM      5  C   UNL     1      32.915 -14.156 -25.009  0.00  0.00    +0.203 C 
ATOM      6  C   UNL     1      33.592 -14.478 -23.689  0.00  0.00    +0.161 C 
ATOM      7  C   UNL     1      34.127 -16.086 -25.283  0.00  0.00    +0.420 C 
BRANCH   5   8
ATOM      8  C   UNL     1      33.527 -12.954 -25.715  0.00  0.00    +0.103 C 
BRANCH   8   9
ATOM      9  S   UNL     1      33.829 -11.613 -24.535  0.00  0.00    -0.135 S 
ATOM     10  C   UNL     1      34.996 -10.648 -25.522  0.00  0.00    +0.069 C 
ENDBRANCH   8   9
ENDBRANCH   5   8
ENDBRANCH   1   4
BRANCH   1  11
ATOM     11  C   UNL     1      34.892 -16.464 -22.097  0.00  0.00    +0.176 C 
BRANCH  11  13
ATOM     12  O   UNL     1      33.982 -18.473 -21.191  0.00  0.00    -0.436 OA
ATOM     13  C   UNL     1      35.085 -17.806 -21.573  0.00  0.00    +0.144 C 
ATOM     14  C   UNL     1      36.220 -18.526 -21.395  0.00  0.00    +0.040 C 
ATOM     15  C   UNL     1      34.424 -19.680 -20.746  0.00  0.00    +0.289 C 
ATOM     16  C   UNL     1      35.792 -19.761 -20.851  0.00  0.00    +0.066 C 
BRANCH  15  19
ATOM     17  O   UNL     1      32.310 -20.593 -20.879  0.00  0.00    -0.123 OA
ATOM     18  O   UNL     1      33.657 -21.301 -19.297  0.00  0.00    -0.123 OA
ATOM     19  N   UNL     1      33.433 -20.552 -20.293  0.00  0.00    +0.093 N 
ENDBRANCH  15  19
ENDBRANCH  11  13
ENDBRANCH   1  11
TORSDOF 6
ENDMDL
MODEL 8
REMARK VINA RESULT:      -7.7      7.851      9.829
REMARK  Name = 6433427
REMARK  6 active torsions:
REMARK  status: ('A' for Active; 'I' for Inactive)
REMARK    1  A    between atoms: N_1  and  C_2
REMARK    2  A    between atoms: N_1  and  N_5
REMARK    3  A    between atoms: C_2  and  C_13
REMARK    4  A    between atoms: C_6  and  C_9
REMARK    5  A    between atoms: C_9  and  S_10
REMARK    6  A    between atoms: C_15  and  N_19
REMARK                            x       y       z     vdW  Elec       q    Type
REMARK                         _______ _______ _______ _____ _____    ______ ____
ROOT
ATOM      1  N   UNL     1      33.119 -23.047 -15.407  0.00  0.00    -0.117 NA
ENDROOT
BRANCH   1   4
ATOM      2  O   UNL     1      36.544 -23.447 -16.044  0.00  0.00    -0.435 OA
ATOM      3  O   UNL     1      34.987 -22.671 -17.534  0.00  0.00    -0.225 OA
ATOM      4  N   UNL     1      34.429 -23.325 -15.365  0.00  0.00    -0.169 N 
ATOM      5  C   UNL     1      36.490 -24.090 -14.750  0.00  0.00    +0.203 C 
ATOM      6  C   UNL     1      35.123 -23.735 -14.192  0.00  0.00    +0.161 C 
ATOM      7  C   UNL     1      35.269 -23.106 -16.426  0.00  0.00    +0.420 C 
BRANCH   5   8
ATOM      8  C   UNL     1      36.684 -25.587 -14.944  0.00  0.00    +0.103 C 
BRANCH   8   9
ATOM      9  S   UNL     1      38.359 -26.076 -14.459  0.00  0.00    -0.135 S 
ATOM     10  C   UNL     1      38.568 -24.954 -13.057  0.00  0.00    +0.069 C 
ENDBRANCH   8   9
ENDBRANCH   5   8
ENDBRANCH   1   4
BRANCH   1  11
ATOM     11  C   UNL     1      32.403 -23.806 -14.642  0.00  0.00    +0.176 C 
BRANCH  11  13
ATOM     12  O   UNL     1      30.408 -23.338 -15.860  0.00  0.00    -0.436 OA
ATOM     13  C   UNL     1      31.014 -24.112 -14.942  0.00  0.00    +0.144 C 
ATOM     14  C   UNL     1      30.196 -25.071 -14.444  0.00  0.00    +0.040 C 
ATOM     15  C   UNL     1      29.140 -23.818 -15.959  0.00  0.00    +0.289 C 
ATOM     16  C   UNL     1      28.960 -24.884 -15.108  0.00  0.00    +0.066 C 
BRANCH  15  19
ATOM     17  O   UNL     1      28.247 -21.890 -16.855  0.00  0.00    -0.123 OA
ATOM     18  O   UNL     1      27.637 -23.819 -17.708  0.00  0.00    -0.123 OA
ATOM     19  N   UNL     1      28.316 -23.155 -16.869  0.00  0.00    +0.093 N 
ENDBRANCH  15  19
ENDBRANCH  11  13
ENDBRANCH   1  11
TORSDOF 6
ENDMDL
MODEL 9
REMARK VINA RESULT:      -7.7      3.372      7.618
REMARK  Name = 6433427
REMARK  6 active torsions:
REMARK  status: ('A' for Active; 'I' for Inactive)
REMARK    1  A    between atoms: N_1  and  C_2
REMARK    2  A    between atoms: N_1  and  N_5
REMARK    3  A    between atoms: C_2  and  C_13
REMARK    4  A    between atoms: C_6  and  C_9
REMARK    5  A    between atoms: C_9  and  S_10
REMARK    6  A    between atoms: C_15  and  N_19
REMARK                            x       y       z     vdW  Elec       q    Type
REMARK                         _______ _______ _______ _____ _____    ______ ____
ROOT
ATOM      1  N   UNL     1      34.321 -19.258 -20.768  0.00  0.00    -0.117 NA
ENDROOT
BRANCH   1   4
ATOM      2  O   UNL     1      34.897 -22.312 -19.145  0.00  0.00    -0.435 OA
ATOM      3  O   UNL     1      32.845 -21.387 -19.565  0.00  0.00    -0.225 OA
ATOM      4  N   UNL     1      34.840 -20.340 -20.173  0.00  0.00    -0.169 N 
ATOM      5  C   UNL     1      36.264 -21.844 -19.214  0.00  0.00    +0.203 C 
ATOM      6  C   UNL     1      36.226 -20.661 -20.165  0.00  0.00    +0.161 C 
ATOM      7  C   UNL     1      34.065 -21.330 -19.626  0.00  0.00    +0.420 C 
BRANCH   5   8
ATOM      8  C   UNL     1      36.719 -21.467 -17.811  0.00  0.00    +0.103 C 
BRANCH   8   9
ATOM      9  S   UNL     1      35.955 -22.559 -16.584  0.00  0.00    -0.135 S 
ATOM     10  C   UNL     1      37.428 -22.929 -15.604  0.00  0.00    +0.069 C 
ENDBRANCH   8   9
ENDBRANCH   5   8
ENDBRANCH   1   4
BRANCH   1  11
ATOM     11  C   UNL     1      35.157 -18.635 -21.533  0.00  0.00    +0.176 C 
BRANCH  11  13
ATOM     12  O   UNL     1      34.507 -17.068 -23.208  0.00  0.00    -0.436 OA
ATOM     13  C   UNL     1      34.854 -18.335 -22.923  0.00  0.00    +0.144 C 
ATOM     14  C   UNL     1      34.861 -19.136 -24.017  0.00  0.00    +0.040 C 
ATOM     15  C   UNL     1      34.278 -17.049 -24.549  0.00  0.00    +0.289 C 
ATOM     16  C   UNL     1      34.482 -18.296 -25.091  0.00  0.00    +0.066 C 
BRANCH  15  19
ATOM     17  O   UNL     1      33.845 -15.650 -26.330  0.00  0.00    -0.123 OA
ATOM     18  O   UNL     1      33.607 -14.857 -24.297  0.00  0.00    -0.123 OA
ATOM     19  N   UNL     1      33.898 -15.813 -25.075  0.00  0.00    +0.093 N 
ENDBRANCH  15  19
ENDBRANCH  11  13
ENDBRANCH   1  11
TORSDOF 6
ENDMDL
