MODEL 1
REMARK VINA RESULT:     -11.8      0.000      0.000
REMARK  Name = 5326929
REMARK  3 active torsions:
REMARK  status: ('A' for Active; 'I' for Inactive)
REMARK    1  A    between atoms: C_7  and  C_21
REMARK    2  A    between atoms: C_21  and  C_22
REMARK    3  A    between atoms: C_22  and  C_23
REMARK                            x       y       z     vdW  Elec       q    Type
REMARK                         _______ _______ _______ _____ _____    ______ ____
ROOT
ATOM      1  O   UNL     1      34.607 -24.844 -12.052  0.00  0.00    -0.209 OA
ATOM      2  N   UNL     1      34.643 -22.933 -15.571  0.00  0.00    -0.275 N 
ATOM      3  N   UNL     1      29.810 -25.157 -14.172  0.00  0.00    -0.315 N 
ATOM      4  N   UNL     1      29.862 -24.088 -16.119  0.00  0.00    -0.316 N 
ATOM      5  N   UNL     1      35.784 -23.647 -13.609  0.00  0.00    -0.302 NA
ATOM      6  N   UNL     1      36.859 -22.414 -15.286  0.00  0.00    -0.320 N 
ATOM      7  C   UNL     1      32.290 -23.430 -15.975  0.00  0.00    +0.007 C 
ATOM      8  C   UNL     1      33.438 -23.516 -15.170  0.00  0.00    +0.060 C 
ATOM      9  C   UNL     1      31.102 -24.033 -15.525  0.00  0.00    +0.056 C 
ATOM     10  C   UNL     1      31.095 -24.695 -14.303  0.00  0.00    +0.060 C 
ATOM     11  C   UNL     1      33.391 -24.194 -13.942  0.00  0.00    +0.109 C 
ATOM     12  C   UNL     1      32.215 -24.802 -13.477  0.00  0.00    +0.029 C 
ATOM     13  C   UNL     1      34.639 -24.254 -13.127  0.00  0.00    +0.208 C 
ATOM     14  C   UNL     1      29.113 -24.768 -15.282  0.00  0.00    +0.182 C 
ATOM     15  C   UNL     1      35.752 -23.033 -14.763  0.00  0.00    +0.248 C 
ATOM     16  H   UNL     1      34.699 -22.454 -16.429  0.00  0.00    +0.156 HD
ATOM     17  H   UNL     1      29.454 -25.674 -13.415  0.00  0.00    +0.148 HD
ATOM     18  H   UNL     1      29.594 -23.702 -16.984  0.00  0.00    +0.148 HD
ATOM     19  H   UNL     1      36.802 -21.960 -16.159  0.00  0.00    +0.146 HD
ATOM     20  H   UNL     1      37.709 -22.423 -14.791  0.00  0.00    +0.146 HD
ENDROOT
BRANCH   7  21
ATOM     21  C   UNL     1      32.332 -22.709 -17.285  0.00  0.00    +0.034 C 
BRANCH  21  22
ATOM     22  C   UNL     1      33.484 -23.155 -18.205  0.00  0.00    +0.031 C 
BRANCH  22  23
ATOM     23  C   UNL     1      34.024 -22.041 -19.067  0.00  0.00    -0.022 C 
ATOM     24  C   UNL     1      33.140 -21.171 -19.687  0.00  0.00    -0.005 C 
ATOM     25  C   UNL     1      35.394 -21.906 -19.223  0.00  0.00    -0.005 C 
ATOM     26  C   UNL     1      35.018 -19.994 -20.651  0.00  0.00    -0.022 C 
ATOM     27  C   UNL     1      33.641 -20.141 -20.484  0.00  0.00    -0.005 C 
ATOM     28  C   UNL     1      35.895 -20.876 -20.020  0.00  0.00    -0.005 C 
ATOM     29  C   UNL     1      35.552 -18.892 -21.501  0.00  0.00    +0.031 C 
ENDBRANCH  22  23
ENDBRANCH  21  22
ENDBRANCH   7  21
TORSDOF 3
ENDMDL
MODEL 2
REMARK VINA RESULT:     -11.3      1.214      3.920
REMARK  Name = 5326929
REMARK  3 active torsions:
REMARK  status: ('A' for Active; 'I' for Inactive)
REMARK    1  A    between atoms: C_7  and  C_21
REMARK    2  A    between atoms: C_21  and  C_22
REMARK    3  A    between atoms: C_22  and  C_23
REMARK                            x       y       z     vdW  Elec       q    Type
REMARK                         _______ _______ _______ _____ _____    ______ ____
ROOT
ATOM      1  O   UNL     1      31.156 -25.062 -12.793  0.00  0.00    -0.209 OA
ATOM      2  N   UNL     1      30.702 -23.510 -16.457  0.00  0.00    -0.275 N 
ATOM      3  N   UNL     1      35.871 -23.584 -14.578  0.00  0.00    -0.315 N 
ATOM      4  N   UNL     1      35.587 -22.730 -16.609  0.00  0.00    -0.316 N 
ATOM      5  N   UNL     1      29.753 -24.505 -14.515  0.00  0.00    -0.302 NA
ATOM      6  N   UNL     1      28.442 -23.886 -16.355  0.00  0.00    -0.320 N 
ATOM      7  C   UNL     1      33.090 -23.066 -16.671  0.00  0.00    +0.007 C 
ATOM      8  C   UNL     1      31.998 -23.551 -15.934  0.00  0.00    +0.060 C 
ATOM      9  C   UNL     1      34.374 -23.131 -16.099  0.00  0.00    +0.056 C 
ATOM     10  C   UNL     1      34.525 -23.671 -14.827  0.00  0.00    +0.060 C 
ATOM     11  C   UNL     1      32.191 -24.089 -14.652  0.00  0.00    +0.109 C 
ATOM     12  C   UNL     1      33.464 -24.162 -14.065  0.00  0.00    +0.029 C 
ATOM     13  C   UNL     1      30.996 -24.589 -13.914  0.00  0.00    +0.208 C 
ATOM     14  C   UNL     1      36.462 -23.015 -15.672  0.00  0.00    +0.182 C 
ATOM     15  C   UNL     1      29.650 -23.992 -15.713  0.00  0.00    +0.248 C 
ATOM     16  H   UNL     1      30.543 -23.136 -17.354  0.00  0.00    +0.156 HD
ATOM     17  H   UNL     1      36.330 -23.878 -13.758  0.00  0.00    +0.148 HD
ATOM     18  H   UNL     1      35.761 -22.318 -17.486  0.00  0.00    +0.148 HD
ATOM     19  H   UNL     1      28.397 -23.493 -17.258  0.00  0.00    +0.146 HD
ATOM     20  H   UNL     1      27.620 -24.200 -15.914  0.00  0.00    +0.146 HD
ENDROOT
BRANCH   7  21
ATOM     21  C   UNL     1      32.892 -22.492 -18.038  0.00  0.00    +0.034 C 
BRANCH  21  22
ATOM     22  C   UNL     1      34.118 -22.636 -18.958  0.00  0.00    +0.031 C 
BRANCH  22  23
ATOM     23  C   UNL     1      34.430 -21.381 -19.735  0.00  0.00    -0.022 C 
ATOM     24  C   UNL     1      33.389 -20.606 -20.224  0.00  0.00    -0.005 C 
ATOM     25  C   UNL     1      35.752 -21.022 -19.947  0.00  0.00    -0.005 C 
ATOM     26  C   UNL     1      35.004 -19.075 -21.164  0.00  0.00    -0.022 C 
ATOM     27  C   UNL     1      33.678 -19.447 -20.943  0.00  0.00    -0.005 C 
ATOM     28  C   UNL     1      36.041 -19.863 -20.665  0.00  0.00    -0.005 C 
ATOM     29  C   UNL     1      35.312 -17.834 -21.931  0.00  0.00    +0.031 C 
ENDBRANCH  22  23
ENDBRANCH  21  22
ENDBRANCH   7  21
TORSDOF 3
ENDMDL
MODEL 3
REMARK VINA RESULT:     -10.7      7.439     11.075
REMARK  Name = 5326929
REMARK  3 active torsions:
REMARK  status: ('A' for Active; 'I' for Inactive)
REMARK    1  A    between atoms: C_7  and  C_21
REMARK    2  A    between atoms: C_21  and  C_22
REMARK    3  A    between atoms: C_22  and  C_23
REMARK                            x       y       z     vdW  Elec       q    Type
REMARK                         _______ _______ _______ _____ _____    ______ ____
ROOT
ATOM      1  O   UNL     1      32.830 -13.995 -26.565  0.00  0.00    -0.209 OA
ATOM      2  N   UNL     1      34.170 -16.617 -23.850  0.00  0.00    -0.275 N 
ATOM      3  N   UNL     1      31.803 -12.108 -21.771  0.00  0.00    -0.315 N 
ATOM      4  N   UNL     1      32.555 -13.583 -20.289  0.00  0.00    -0.316 N 
ATOM      5  N   UNL     1      33.865 -15.990 -26.126  0.00  0.00    -0.302 NA
ATOM      6  N   UNL     1      34.906 -18.001 -25.525  0.00  0.00    -0.320 N 
ATOM      7  C   UNL     1      33.427 -15.222 -21.994  0.00  0.00    +0.007 C 
ATOM      8  C   UNL     1      33.560 -15.454 -23.372  0.00  0.00    +0.060 C 
ATOM      9  C   UNL     1      32.805 -14.036 -21.564  0.00  0.00    +0.056 C 
ATOM     10  C   UNL     1      32.341 -13.129 -22.511  0.00  0.00    +0.060 C 
ATOM     11  C   UNL     1      33.079 -14.514 -24.298  0.00  0.00    +0.109 C 
ATOM     12  C   UNL     1      32.457 -13.325 -23.889  0.00  0.00    +0.029 C 
ATOM     13  C   UNL     1      33.248 -14.811 -25.749  0.00  0.00    +0.208 C 
ATOM     14  C   UNL     1      31.955 -12.426 -20.449  0.00  0.00    +0.182 C 
ATOM     15  C   UNL     1      34.287 -16.818 -25.207  0.00  0.00    +0.248 C 
ATOM     16  H   UNL     1      34.515 -17.289 -23.220  0.00  0.00    +0.156 HD
ATOM     17  H   UNL     1      31.382 -11.292 -22.126  0.00  0.00    +0.148 HD
ATOM     18  H   UNL     1      32.779 -14.029 -19.441  0.00  0.00    +0.148 HD
ATOM     19  H   UNL     1      35.213 -18.604 -24.809  0.00  0.00    +0.146 HD
ATOM     20  H   UNL     1      35.043 -18.247 -26.467  0.00  0.00    +0.146 HD
ENDROOT
BRANCH   7  21
ATOM     21  C   UNL     1      33.936 -16.219 -21.002  0.00  0.00    +0.034 C 
BRANCH  21  22
ATOM     22  C   UNL     1      34.861 -17.288 -21.612  0.00  0.00    +0.031 C 
BRANCH  22  23
ATOM     23  C   UNL     1      34.658 -18.661 -21.020  0.00  0.00    -0.022 C 
ATOM     24  C   UNL     1      35.764 -19.427 -20.682  0.00  0.00    -0.005 C 
ATOM     25  C   UNL     1      33.370 -19.133 -20.823  0.00  0.00    -0.005 C 
ATOM     26  C   UNL     1      34.285 -21.183 -19.931  0.00  0.00    -0.022 C 
ATOM     27  C   UNL     1      35.575 -20.696 -20.134  0.00  0.00    -0.005 C 
ATOM     28  C   UNL     1      33.182 -20.401 -20.275  0.00  0.00    -0.005 C 
ATOM     29  C   UNL     1      34.083 -22.539 -19.345  0.00  0.00    +0.031 C 
ENDBRANCH  22  23
ENDBRANCH  21  22
ENDBRANCH   7  21
TORSDOF 3
ENDMDL
MODEL 4
REMARK VINA RESULT:     -10.5      7.991     11.669
REMARK  Name = 5326929
REMARK  3 active torsions:
REMARK  status: ('A' for Active; 'I' for Inactive)
REMARK    1  A    between atoms: C_7  and  C_21
REMARK    2  A    between atoms: C_21  and  C_22
REMARK    3  A    between atoms: C_22  and  C_23
REMARK                            x       y       z     vdW  Elec       q    Type
REMARK                         _______ _______ _______ _____ _____    ______ ____
ROOT
ATOM      1  O   UNL     1      34.934 -19.636 -25.044  0.00  0.00    -0.209 OA
ATOM      2  N   UNL     1      34.641 -17.229 -21.856  0.00  0.00    -0.275 N 
ATOM      3  N   UNL     1      33.302 -14.911 -26.662  0.00  0.00    -0.315 N 
ATOM      4  N   UNL     1      33.148 -13.601 -24.874  0.00  0.00    -0.316 N 
ATOM      5  N   UNL     1      35.156 -19.360 -22.781  0.00  0.00    -0.302 NA
ATOM      6  N   UNL     1      35.334 -18.931 -20.485  0.00  0.00    -0.320 N 
ATOM      7  C   UNL     1      33.896 -15.351 -23.221  0.00  0.00    +0.007 C 
ATOM      8  C   UNL     1      34.312 -16.686 -23.102  0.00  0.00    +0.060 C 
ATOM      9  C   UNL     1      33.575 -14.854 -24.497  0.00  0.00    +0.056 C 
ATOM     10  C   UNL     1      33.679 -15.694 -25.601  0.00  0.00    +0.060 C 
ATOM     11  C   UNL     1      34.404 -17.503 -24.240  0.00  0.00    +0.109 C 
ATOM     12  C   UNL     1      34.089 -17.025 -25.521  0.00  0.00    +0.029 C 
ATOM     13  C   UNL     1      34.851 -18.914 -24.055  0.00  0.00    +0.208 C 
ATOM     14  C   UNL     1      32.995 -13.670 -26.176  0.00  0.00    +0.182 C 
ATOM     15  C   UNL     1      35.046 -18.541 -21.769  0.00  0.00    +0.248 C 
ATOM     16  H   UNL     1      34.584 -16.674 -21.045  0.00  0.00    +0.156 HD
ATOM     17  H   UNL     1      33.261 -15.191 -27.604  0.00  0.00    +0.148 HD
ATOM     18  H   UNL     1      32.992 -12.822 -24.293  0.00  0.00    +0.148 HD
ATOM     19  H   UNL     1      35.242 -18.290 -19.742  0.00  0.00    +0.146 HD
ATOM     20  H   UNL     1      35.634 -19.851 -20.306  0.00  0.00    +0.146 HD
ENDROOT
BRANCH   7  21
ATOM     21  C   UNL     1      33.794 -14.474 -22.013  0.00  0.00    +0.034 C 
BRANCH  21  22
ATOM     22  C   UNL     1      32.347 -14.127 -21.616  0.00  0.00    +0.031 C 
BRANCH  22  23
ATOM     23  C   UNL     1      32.160 -12.673 -21.258  0.00  0.00    -0.022 C 
ATOM     24  C   UNL     1      32.142 -11.721 -22.267  0.00  0.00    -0.005 C 
ATOM     25  C   UNL     1      32.009 -12.314 -19.929  0.00  0.00    -0.005 C 
ATOM     26  C   UNL     1      31.817 -10.001 -20.601  0.00  0.00    -0.022 C 
ATOM     27  C   UNL     1      31.969 -10.377 -21.935  0.00  0.00    -0.005 C 
ATOM     28  C   UNL     1      31.836 -10.970 -19.597  0.00  0.00    -0.005 C 
ATOM     29  C   UNL     1      31.631  -8.565 -20.247  0.00  0.00    +0.031 C 
ENDBRANCH  22  23
ENDBRANCH  21  22
ENDBRANCH   7  21
TORSDOF 3
ENDMDL
MODEL 5
REMARK VINA RESULT:     -10.3      2.863      5.989
REMARK  Name = 5326929
REMARK  3 active torsions:
REMARK  status: ('A' for Active; 'I' for Inactive)
REMARK    1  A    between atoms: C_7  and  C_21
REMARK    2  A    between atoms: C_21  and  C_22
REMARK    3  A    between atoms: C_22  and  C_23
REMARK                            x       y       z     vdW  Elec       q    Type
REMARK                         _______ _______ _______ _____ _____    ______ ____
ROOT
ATOM      1  O   UNL     1      37.254 -21.455 -17.445  0.00  0.00    -0.209 OA
ATOM      2  N   UNL     1      33.831 -23.453 -16.870  0.00  0.00    -0.275 N 
ATOM      3  N   UNL     1      37.381 -23.647 -12.672  0.00  0.00    -0.315 N 
ATOM      4  N   UNL     1      35.471 -24.745 -12.383  0.00  0.00    -0.316 N 
ATOM      5  N   UNL     1      35.213 -22.101 -18.258  0.00  0.00    -0.302 NA
ATOM      6  N   UNL     1      33.100 -22.836 -18.955  0.00  0.00    -0.320 N 
ATOM      7  C   UNL     1      34.509 -24.166 -14.639  0.00  0.00    +0.007 C 
ATOM      8  C   UNL     1      34.767 -23.472 -15.832  0.00  0.00    +0.060 C 
ATOM      9  C   UNL     1      35.484 -24.153 -13.625  0.00  0.00    +0.056 C 
ATOM     10  C   UNL     1      36.670 -23.458 -13.830  0.00  0.00    +0.060 C 
ATOM     11  C   UNL     1      35.977 -22.781 -16.002  0.00  0.00    +0.109 C 
ATOM     12  C   UNL     1      36.962 -22.758 -15.002  0.00  0.00    +0.029 C 
ATOM     13  C   UNL     1      36.199 -22.062 -17.289  0.00  0.00    +0.208 C 
ATOM     14  C   UNL     1      36.622 -24.423 -11.840  0.00  0.00    +0.182 C 
ATOM     15  C   UNL     1      34.110 -22.765 -18.028  0.00  0.00    +0.248 C 
ATOM     16  H   UNL     1      32.976 -23.931 -16.773  0.00  0.00    +0.156 HD
ATOM     17  H   UNL     1      38.276 -23.289 -12.476  0.00  0.00    +0.148 HD
ATOM     18  H   UNL     1      34.755 -25.293 -11.988  0.00  0.00    +0.148 HD
ATOM     19  H   UNL     1      32.281 -23.345 -18.752  0.00  0.00    +0.146 HD
ATOM     20  H   UNL     1      33.194 -22.379 -19.821  0.00  0.00    +0.146 HD
ENDROOT
BRANCH   7  21
ATOM     21  C   UNL     1      33.221 -24.904 -14.451  0.00  0.00    +0.034 C 
BRANCH  21  22
ATOM     22  C   UNL     1      32.108 -24.057 -13.806  0.00  0.00    +0.031 C 
BRANCH  22  23
ATOM     23  C   UNL     1      30.929 -23.828 -14.720  0.00  0.00    -0.022 C 
ATOM     24  C   UNL     1      29.886 -24.742 -14.728  0.00  0.00    -0.005 C 
ATOM     25  C   UNL     1      30.908 -22.707 -15.534  0.00  0.00    -0.005 C 
ATOM     26  C   UNL     1      28.764 -23.405 -16.399  0.00  0.00    -0.022 C 
ATOM     27  C   UNL     1      28.797 -24.528 -15.573  0.00  0.00    -0.005 C 
ATOM     28  C   UNL     1      29.820 -22.493 -16.379  0.00  0.00    -0.005 C 
ATOM     29  C   UNL     1      27.599 -23.177 -17.301  0.00  0.00    +0.031 C 
ENDBRANCH  22  23
ENDBRANCH  21  22
ENDBRANCH   7  21
TORSDOF 3
ENDMDL
MODEL 6
REMARK VINA RESULT:     -10.2      1.446      4.029
REMARK  Name = 5326929
REMARK  3 active torsions:
REMARK  status: ('A' for Active; 'I' for Inactive)
REMARK    1  A    between atoms: C_7  and  C_21
REMARK    2  A    between atoms: C_21  and  C_22
REMARK    3  A    between atoms: C_22  and  C_23
REMARK                            x       y       z     vdW  Elec       q    Type
REMARK                         _______ _______ _______ _____ _____    ______ ____
ROOT
ATOM      1  O   UNL     1      31.504 -25.276 -13.110  0.00  0.00    -0.209 OA
ATOM      2  N   UNL     1      32.952 -22.849 -15.948  0.00  0.00    -0.275 N 
ATOM      3  N   UNL     1      36.649 -24.615 -12.277  0.00  0.00    -0.315 N 
ATOM      4  N   UNL     1      37.422 -23.267 -13.865  0.00  0.00    -0.316 N 
ATOM      5  N   UNL     1      31.115 -24.009 -14.977  0.00  0.00    -0.302 NA
ATOM      6  N   UNL     1      30.867 -22.678 -16.889  0.00  0.00    -0.320 N 
ATOM      7  C   UNL     1      35.208 -22.962 -15.029  0.00  0.00    +0.007 C 
ATOM      8  C   UNL     1      33.852 -23.325 -14.990  0.00  0.00    +0.060 C 
ATOM      9  C   UNL     1      36.073 -23.469 -14.043  0.00  0.00    +0.056 C 
ATOM     10  C   UNL     1      35.565 -24.311 -13.060  0.00  0.00    +0.060 C 
ATOM     11  C   UNL     1      33.377 -24.178 -13.982  0.00  0.00    +0.109 C 
ATOM     12  C   UNL     1      34.224 -24.693 -12.989  0.00  0.00    +0.029 C 
ATOM     13  C   UNL     1      31.928 -24.531 -13.988  0.00  0.00    +0.208 C 
ATOM     14  C   UNL     1      37.735 -23.967 -12.799  0.00  0.00    +0.182 C 
ATOM     15  C   UNL     1      31.629 -23.221 -15.885  0.00  0.00    +0.248 C 
ATOM     16  H   UNL     1      33.263 -22.249 -16.663  0.00  0.00    +0.156 HD
ATOM     17  H   UNL     1      36.647 -25.194 -11.482  0.00  0.00    +0.148 HD
ATOM     18  H   UNL     1      38.023 -22.717 -14.418  0.00  0.00    +0.148 HD
ATOM     19  H   UNL     1      31.284 -22.086 -17.558  0.00  0.00    +0.146 HD
ATOM     20  H   UNL     1      29.905 -22.877 -16.940  0.00  0.00    +0.146 HD
ENDROOT
BRANCH   7  21
ATOM     21  C   UNL     1      35.722 -22.054 -16.102  0.00  0.00    +0.034 C 
BRANCH  21  22
ATOM     22  C   UNL     1      35.872 -22.735 -17.475  0.00  0.00    +0.031 C 
BRANCH  22  23
ATOM     23  C   UNL     1      35.450 -21.856 -18.626  0.00  0.00    -0.022 C 
ATOM     24  C   UNL     1      34.110 -21.793 -18.979  0.00  0.00    -0.005 C 
ATOM     25  C   UNL     1      36.408 -21.125 -19.310  0.00  0.00    -0.005 C 
ATOM     26  C   UNL     1      34.675 -20.239 -20.741  0.00  0.00    -0.022 C 
ATOM     27  C   UNL     1      33.721 -20.979 -20.043  0.00  0.00    -0.005 C 
ATOM     28  C   UNL     1      36.019 -20.311 -20.374  0.00  0.00    -0.005 C 
ATOM     29  C   UNL     1      34.258 -19.369 -21.877  0.00  0.00    +0.031 C 
ENDBRANCH  22  23
ENDBRANCH  21  22
ENDBRANCH   7  21
TORSDOF 3
ENDMDL
MODEL 7
REMARK VINA RESULT:     -10.1      2.814      5.652
REMARK  Name = 5326929
REMARK  3 active torsions:
REMARK  status: ('A' for Active; 'I' for Inactive)
REMARK    1  A    between atoms: C_7  and  C_21
REMARK    2  A    between atoms: C_21  and  C_22
REMARK    3  A    between atoms: C_22  and  C_23
REMARK                            x       y       z     vdW  Elec       q    Type
REMARK                         _______ _______ _______ _____ _____    ______ ____
ROOT
ATOM      1  O   UNL     1      33.131 -22.692 -19.253  0.00  0.00    -0.209 OA
ATOM      2  N   UNL     1      35.446 -22.712 -15.985  0.00  0.00    -0.275 N 
ATOM      3  N   UNL     1      30.234 -24.270 -15.164  0.00  0.00    -0.315 N 
ATOM      4  N   UNL     1      31.544 -24.272 -13.369  0.00  0.00    -0.316 N 
ATOM      5  N   UNL     1      35.189 -22.323 -18.319  0.00  0.00    -0.302 NA
ATOM      6  N   UNL     1      37.234 -21.989 -17.226  0.00  0.00    -0.320 N 
ATOM      7  C   UNL     1      33.612 -23.480 -14.573  0.00  0.00    +0.007 C 
ATOM      8  C   UNL     1      34.112 -23.100 -15.829  0.00  0.00    +0.060 C 
ATOM      9  C   UNL     1      32.263 -23.863 -14.469  0.00  0.00    +0.056 C 
ATOM     10  C   UNL     1      31.464 -23.854 -15.607  0.00  0.00    +0.060 C 
ATOM     11  C   UNL     1      33.273 -23.104 -16.955  0.00  0.00    +0.109 C 
ATOM     12  C   UNL     1      31.925 -23.481 -16.871  0.00  0.00    +0.029 C 
ATOM     13  C   UNL     1      33.857 -22.690 -18.264  0.00  0.00    +0.208 C 
ATOM     14  C   UNL     1      30.334 -24.507 -13.821  0.00  0.00    +0.182 C 
ATOM     15  C   UNL     1      35.908 -22.344 -17.227  0.00  0.00    +0.248 C 
ATOM     16  H   UNL     1      36.051 -22.701 -15.209  0.00  0.00    +0.156 HD
ATOM     17  H   UNL     1      29.425 -24.379 -15.714  0.00  0.00    +0.148 HD
ATOM     18  H   UNL     1      31.868 -24.367 -12.444  0.00  0.00    +0.148 HD
ATOM     19  H   UNL     1      37.750 -22.015 -16.387  0.00  0.00    +0.146 HD
ATOM     20  H   UNL     1      37.670 -21.708 -18.062  0.00  0.00    +0.146 HD
ENDROOT
BRANCH   7  21
ATOM     21  C   UNL     1      34.500 -23.479 -13.369  0.00  0.00    +0.034 C 
BRANCH  21  22
ATOM     22  C   UNL     1      34.992 -24.879 -12.957  0.00  0.00    +0.031 C 
BRANCH  22  23
ATOM     23  C   UNL     1      36.421 -25.150 -13.359  0.00  0.00    -0.022 C 
ATOM     24  C   UNL     1      36.679 -25.809 -14.552  0.00  0.00    -0.005 C 
ATOM     25  C   UNL     1      37.451 -24.736 -12.529  0.00  0.00    -0.005 C 
ATOM     26  C   UNL     1      39.047 -25.649 -14.096  0.00  0.00    -0.022 C 
ATOM     27  C   UNL     1      38.000 -26.059 -14.922  0.00  0.00    -0.005 C 
ATOM     28  C   UNL     1      38.772 -24.986 -12.900  0.00  0.00    -0.005 C 
ATOM     29  C   UNL     1      40.458 -25.915 -14.494  0.00  0.00    +0.031 C 
ENDBRANCH  22  23
ENDBRANCH  21  22
ENDBRANCH   7  21
TORSDOF 3
ENDMDL
MODEL 8
REMARK VINA RESULT:     -10.1      9.167     12.098
REMARK  Name = 5326929
REMARK  3 active torsions:
REMARK  status: ('A' for Active; 'I' for Inactive)
REMARK    1  A    between atoms: C_7  and  C_21
REMARK    2  A    between atoms: C_21  and  C_22
REMARK    3  A    between atoms: C_22  and  C_23
REMARK                            x       y       z     vdW  Elec       q    Type
REMARK                         _______ _______ _______ _____ _____    ______ ____
ROOT
ATOM      1  O   UNL     1      35.192 -17.155 -20.620  0.00  0.00    -0.209 OA
ATOM      2  N   UNL     1      34.043 -15.701 -24.171  0.00  0.00    -0.275 N 
ATOM      3  N   UNL     1      32.192 -12.920 -19.800  0.00  0.00    -0.315 N 
ATOM      4  N   UNL     1      31.573 -12.137 -21.785  0.00  0.00    -0.316 N 
ATOM      5  N   UNL     1      35.239 -17.322 -22.903  0.00  0.00    -0.302 NA
ATOM      6  N   UNL     1      35.199 -17.365 -25.245  0.00  0.00    -0.320 N 
ATOM      7  C   UNL     1      32.783 -13.891 -23.130  0.00  0.00    +0.007 C 
ATOM      8  C   UNL     1      33.598 -15.029 -23.028  0.00  0.00    +0.060 C 
ATOM      9  C   UNL     1      32.363 -13.251 -21.951  0.00  0.00    +0.056 C 
ATOM     10  C   UNL     1      32.765 -13.761 -20.720  0.00  0.00    +0.060 C 
ATOM     11  C   UNL     1      33.983 -15.513 -21.768  0.00  0.00    +0.109 C 
ATOM     12  C   UNL     1      33.574 -14.889 -20.579  0.00  0.00    +0.029 C 
ATOM     13  C   UNL     1      34.850 -16.726 -21.717  0.00  0.00    +0.208 C 
ATOM     14  C   UNL     1      31.491 -11.967 -20.486  0.00  0.00    +0.182 C 
ATOM     15  C   UNL     1      34.842 -16.814 -24.040  0.00  0.00    +0.248 C 
ATOM     16  H   UNL     1      33.785 -15.380 -25.064  0.00  0.00    +0.156 HD
ATOM     17  H   UNL     1      32.272 -12.990 -18.822  0.00  0.00    +0.148 HD
ATOM     18  H   UNL     1      31.159 -11.586 -22.488  0.00  0.00    +0.148 HD
ATOM     19  H   UNL     1      34.883 -16.959 -26.086  0.00  0.00    +0.146 HD
ATOM     20  H   UNL     1      35.770 -18.166 -25.271  0.00  0.00    +0.146 HD
ENDROOT
BRANCH   7  21
ATOM     21  C   UNL     1      32.370 -13.369 -24.470  0.00  0.00    +0.034 C 
BRANCH  21  22
ATOM     22  C   UNL     1      33.523 -12.746 -25.278  0.00  0.00    +0.031 C 
BRANCH  22  23
ATOM     23  C   UNL     1      33.853 -11.336 -24.856  0.00  0.00    -0.022 C 
ATOM     24  C   UNL     1      32.989 -10.660 -24.008  0.00  0.00    -0.005 C 
ATOM     25  C   UNL     1      35.015 -10.741 -25.321  0.00  0.00    -0.005 C 
ATOM     26  C   UNL     1      34.461  -8.745 -24.079  0.00  0.00    -0.022 C 
ATOM     27  C   UNL     1      33.296  -9.356 -23.618  0.00  0.00    -0.005 C 
ATOM     28  C   UNL     1      35.321  -9.438 -24.931  0.00  0.00    -0.005 C 
ATOM     29  C   UNL     1      34.789  -7.352 -23.661  0.00  0.00    +0.031 C 
ENDBRANCH  22  23
ENDBRANCH  21  22
ENDBRANCH   7  21
TORSDOF 3
ENDMDL
MODEL 9
REMARK VINA RESULT:      -9.9     10.631     13.863
REMARK  Name = 5326929
REMARK  3 active torsions:
REMARK  status: ('A' for Active; 'I' for Inactive)
REMARK    1  A    between atoms: C_7  and  C_21
REMARK    2  A    between atoms: C_21  and  C_22
REMARK    3  A    between atoms: C_22  and  C_23
REMARK                            x       y       z     vdW  Elec       q    Type
REMARK                         _______ _______ _______ _____ _____    ______ ____
ROOT
ATOM      1  O   UNL     1      34.167  -7.236 -23.751  0.00  0.00    -0.209 OA
ATOM      2  N   UNL     1      34.561 -11.052 -24.901  0.00  0.00    -0.275 N 
ATOM      3  N   UNL     1      31.067 -10.219 -20.735  0.00  0.00    -0.315 N 
ATOM      4  N   UNL     1      31.306 -12.326 -21.397  0.00  0.00    -0.316 N 
ATOM      5  N   UNL     1      35.146  -8.759 -25.153  0.00  0.00    -0.302 NA
ATOM      6  N   UNL     1      36.066 -10.428 -26.516  0.00  0.00    -0.320 N 
ATOM      7  C   UNL     1      32.974 -11.824 -23.219  0.00  0.00    +0.007 C 
ATOM      8  C   UNL     1      33.684 -10.788 -23.845  0.00  0.00    +0.060 C 
ATOM      9  C   UNL     1      32.104 -11.505 -22.161  0.00  0.00    +0.056 C 
ATOM     10  C   UNL     1      31.971 -10.179 -21.766  0.00  0.00    +0.060 C 
ATOM     11  C   UNL     1      33.523  -9.460 -23.418  0.00  0.00    +0.109 C 
ATOM     12  C   UNL     1      32.661  -9.122 -22.364  0.00  0.00    +0.029 C 
ATOM     13  C   UNL     1      34.303  -8.399 -24.118  0.00  0.00    +0.208 C 
ATOM     14  C   UNL     1      30.700 -11.524 -20.553  0.00  0.00    +0.182 C 
ATOM     15  C   UNL     1      35.244 -10.017 -25.496  0.00  0.00    +0.248 C 
ATOM     16  H   UNL     1      34.690 -11.975 -25.217  0.00  0.00    +0.156 HD
ATOM     17  H   UNL     1      30.741  -9.447 -20.219  0.00  0.00    +0.148 HD
ATOM     18  H   UNL     1      31.212 -13.303 -21.468  0.00  0.00    +0.148 HD
ATOM     19  H   UNL     1      36.118 -11.384 -26.751  0.00  0.00    +0.146 HD
ATOM     20  H   UNL     1      36.603  -9.770 -27.012  0.00  0.00    +0.146 HD
ENDROOT
BRANCH   7  21
ATOM     21  C   UNL     1      33.140 -13.241 -23.670  0.00  0.00    +0.034 C 
BRANCH  21  22
ATOM     22  C   UNL     1      34.196 -14.029 -22.872  0.00  0.00    +0.031 C 
BRANCH  22  23
ATOM     23  C   UNL     1      34.371 -15.448 -23.355  0.00  0.00    -0.022 C 
ATOM     24  C   UNL     1      34.864 -16.408 -22.484  0.00  0.00    -0.005 C 
ATOM     25  C   UNL     1      34.036 -15.768 -24.661  0.00  0.00    -0.005 C 
ATOM     26  C   UNL     1      34.694 -18.054 -24.244  0.00  0.00    -0.022 C 
ATOM     27  C   UNL     1      35.026 -17.719 -22.931  0.00  0.00    -0.005 C 
ATOM     28  C   UNL     1      34.198 -17.078 -25.109  0.00  0.00    -0.005 C 
ATOM     29  C   UNL     1      34.866 -19.456 -24.721  0.00  0.00    +0.031 C 
ENDBRANCH  22  23
ENDBRANCH  21  22
ENDBRANCH   7  21
TORSDOF 3
ENDMDL
