MODEL 1
REMARK VINA RESULT:      -9.1      0.000      0.000
REMARK  Name = 23586154
REMARK  3 active torsions:
REMARK  status: ('A' for Active; 'I' for Inactive)
REMARK    1  A    between atoms: C_1  and  C_11
REMARK    2  A    between atoms: C_4  and  C_10
REMARK    3  A    between atoms: C_11  and  C_16
REMARK                            x       y       z     vdW  Elec       q    Type
REMARK                         _______ _______ _______ _____ _____    ______ ____
ROOT
ATOM      1  C   UNL     1      35.186 -18.787 -21.568  0.00  0.00    -0.021 C 
ATOM      2  C   UNL     1      33.860 -19.173 -21.371  0.00  0.00    -0.004 C 
ATOM      3  C   UNL     1      36.217 -19.486 -20.939  0.00  0.00    -0.004 C 
ATOM      4  C   UNL     1      34.595 -20.955 -19.916  0.00  0.00    +0.071 C 
ATOM      5  C   UNL     1      33.565 -20.257 -20.545  0.00  0.00    +0.004 C 
ATOM      6  C   UNL     1      35.921 -20.570 -20.112  0.00  0.00    +0.004 C 
ENDROOT
BRANCH   4  10
ATOM      7  F   UNL     1      35.187 -22.300 -18.027  0.00  0.00    -0.166 F 
ATOM      8  F   UNL     1      33.071 -22.008 -18.403  0.00  0.00    -0.166 F 
ATOM      9  F   UNL     1      34.237 -23.297 -19.710  0.00  0.00    -0.166 F 
ATOM     10  C   UNL     1      34.279 -22.113 -19.031  0.00  0.00    +0.419 C 
ENDBRANCH   4  10
BRANCH   1  11
ATOM     11  C   UNL     1      35.506 -17.616 -22.461  0.00  0.00    +0.047 C 
BRANCH  11  16
ATOM     12  S   UNL     1      33.890 -15.394 -22.269  0.00  0.00    -0.083 S 
ATOM     13  S   UNL     1      33.635 -12.887 -23.953  0.00  0.00    -0.028 S 
ATOM     14  O   UNL     1      34.718 -17.554 -25.360  0.00  0.00    -0.274 OA
ATOM     15  N   UNL     1      34.209 -15.367 -24.805  0.00  0.00    -0.273 N 
ATOM     16  C   UNL     1      34.252 -16.995 -23.053  0.00  0.00    +0.134 C 
ATOM     17  C   UNL     1      34.426 -16.703 -24.528  0.00  0.00    +0.237 C 
ATOM     18  C   UNL     1      33.915 -14.515 -23.775  0.00  0.00    +0.114 C 
ATOM     19  H   UNL     1      34.265 -15.034 -25.729  0.00  0.00    +0.156 HD
ENDBRANCH  11  16
ENDBRANCH   1  11
TORSDOF 3
ENDMDL
MODEL 2
REMARK VINA RESULT:      -9.1      0.017      1.444
REMARK  Name = 23586154
REMARK  3 active torsions:
REMARK  status: ('A' for Active; 'I' for Inactive)
REMARK    1  A    between atoms: C_1  and  C_11
REMARK    2  A    between atoms: C_4  and  C_10
REMARK    3  A    between atoms: C_11  and  C_16
REMARK                            x       y       z     vdW  Elec       q    Type
REMARK                         _______ _______ _______ _____ _____    ______ ____
ROOT
ATOM      1  C   UNL     1      35.178 -18.776 -21.556  0.00  0.00    -0.021 C 
ATOM      2  C   UNL     1      36.210 -19.487 -20.942  0.00  0.00    -0.004 C 
ATOM      3  C   UNL     1      33.852 -19.154 -21.351  0.00  0.00    -0.004 C 
ATOM      4  C   UNL     1      34.587 -20.953 -19.916  0.00  0.00    +0.071 C 
ATOM      5  C   UNL     1      35.914 -20.576 -20.122  0.00  0.00    +0.004 C 
ATOM      6  C   UNL     1      33.555 -20.243 -20.531  0.00  0.00    +0.004 C 
ENDROOT
BRANCH   4  10
ATOM      7  F   UNL     1      33.062 -22.018 -18.411  0.00  0.00    -0.166 F 
ATOM      8  F   UNL     1      34.224 -23.308 -19.710  0.00  0.00    -0.166 F 
ATOM      9  F   UNL     1      35.189 -22.293 -18.046  0.00  0.00    -0.166 F 
ATOM     10  C   UNL     1      34.270 -22.118 -19.041  0.00  0.00    +0.419 C 
ENDBRANCH   4  10
BRANCH   1  11
ATOM     11  C   UNL     1      35.498 -17.599 -22.442  0.00  0.00    +0.047 C 
BRANCH  11  16
ATOM     12  S   UNL     1      33.879 -15.378 -22.264  0.00  0.00    -0.083 S 
ATOM     13  S   UNL     1      33.627 -12.879 -23.960  0.00  0.00    -0.028 S 
ATOM     14  O   UNL     1      34.718 -17.551 -25.343  0.00  0.00    -0.274 OA
ATOM     15  N   UNL     1      34.205 -15.362 -24.799  0.00  0.00    -0.273 N 
ATOM     16  C   UNL     1      34.246 -16.982 -23.040  0.00  0.00    +0.134 C 
ATOM     17  C   UNL     1      34.423 -16.696 -24.515  0.00  0.00    +0.237 C 
ATOM     18  C   UNL     1      33.908 -14.505 -23.774  0.00  0.00    +0.114 C 
ATOM     19  H   UNL     1      34.263 -15.033 -25.724  0.00  0.00    +0.156 HD
ENDBRANCH  11  16
ENDBRANCH   1  11
TORSDOF 3
ENDMDL
MODEL 3
REMARK VINA RESULT:      -9.0      6.347      8.382
REMARK  Name = 23586154
REMARK  3 active torsions:
REMARK  status: ('A' for Active; 'I' for Inactive)
REMARK    1  A    between atoms: C_1  and  C_11
REMARK    2  A    between atoms: C_4  and  C_10
REMARK    3  A    between atoms: C_11  and  C_16
REMARK                            x       y       z     vdW  Elec       q    Type
REMARK                         _______ _______ _______ _____ _____    ______ ____
ROOT
ATOM      1  C   UNL     1      34.162 -22.127 -19.047  0.00  0.00    -0.021 C 
ATOM      2  C   UNL     1      35.541 -21.954 -19.162  0.00  0.00    -0.004 C 
ATOM      3  C   UNL     1      33.292 -21.258 -19.705  0.00  0.00    -0.004 C 
ATOM      4  C   UNL     1      35.181 -20.042 -20.595  0.00  0.00    +0.071 C 
ATOM      5  C   UNL     1      36.051 -20.911 -19.936  0.00  0.00    +0.004 C 
ATOM      6  C   UNL     1      33.802 -20.215 -20.479  0.00  0.00    +0.004 C 
ENDROOT
BRANCH   4  10
ATOM      7  F   UNL     1      35.465 -19.054 -22.755  0.00  0.00    -0.166 F 
ATOM      8  F   UNL     1      35.232 -17.701 -21.077  0.00  0.00    -0.166 F 
ATOM      9  F   UNL     1      37.083 -18.814 -21.323  0.00  0.00    -0.166 F 
ATOM     10  C   UNL     1      35.726 -18.927 -21.421  0.00  0.00    +0.419 C 
ENDBRANCH   4  10
BRANCH   1  11
ATOM     11  C   UNL     1      33.611 -23.254 -18.211  0.00  0.00    +0.047 C 
BRANCH  11  16
ATOM     12  S   UNL     1      31.780 -23.197 -16.154  0.00  0.00    -0.083 S 
ATOM     13  S   UNL     1      31.339 -24.985 -13.746  0.00  0.00    -0.028 S 
ATOM     14  O   UNL     1      35.604 -23.710 -16.010  0.00  0.00    -0.274 OA
ATOM     15  N   UNL     1      33.682 -24.343 -14.888  0.00  0.00    -0.273 N 
ATOM     16  C   UNL     1      33.465 -22.859 -16.751  0.00  0.00    +0.134 C 
ATOM     17  C   UNL     1      34.387 -23.669 -15.867  0.00  0.00    +0.237 C 
ATOM     18  C   UNL     1      32.319 -24.232 -14.857  0.00  0.00    +0.114 C 
ATOM     19  H   UNL     1      34.154 -24.894 -14.223  0.00  0.00    +0.156 HD
ENDBRANCH  11  16
ENDBRANCH   1  11
TORSDOF 3
ENDMDL
MODEL 4
REMARK VINA RESULT:      -8.4      1.754      2.559
REMARK  Name = 23586154
REMARK  3 active torsions:
REMARK  status: ('A' for Active; 'I' for Inactive)
REMARK    1  A    between atoms: C_1  and  C_11
REMARK    2  A    between atoms: C_4  and  C_10
REMARK    3  A    between atoms: C_11  and  C_16
REMARK                            x       y       z     vdW  Elec       q    Type
REMARK                         _______ _______ _______ _____ _____    ______ ____
ROOT
ATOM      1  C   UNL     1      35.044 -17.451 -23.434  0.00  0.00    -0.021 C 
ATOM      2  C   UNL     1      34.863 -18.798 -23.749  0.00  0.00    -0.004 C 
ATOM      3  C   UNL     1      35.346 -17.075 -22.125  0.00  0.00    -0.004 C 
ATOM      4  C   UNL     1      35.286 -19.393 -21.447  0.00  0.00    +0.071 C 
ATOM      5  C   UNL     1      34.984 -19.769 -22.755  0.00  0.00    +0.004 C 
ATOM      6  C   UNL     1      35.467 -18.047 -21.131  0.00  0.00    +0.004 C 
ENDROOT
BRANCH   4  10
ATOM      7  F   UNL     1      34.287 -20.583 -19.627  0.00  0.00    -0.166 F 
ATOM      8  F   UNL     1      35.688 -21.679 -20.867  0.00  0.00    -0.166 F 
ATOM      9  F   UNL     1      36.415 -20.155 -19.497  0.00  0.00    -0.166 F 
ATOM     10  C   UNL     1      35.414 -20.431 -20.383  0.00  0.00    +0.419 C 
ENDBRANCH   4  10
BRANCH   1  11
ATOM     11  C   UNL     1      34.913 -16.402 -24.508  0.00  0.00    +0.047 C 
BRANCH  11  16
ATOM     12  S   UNL     1      34.125 -14.101 -23.215  0.00  0.00    -0.083 S 
ATOM     13  S   UNL     1      33.668 -11.261 -24.170  0.00  0.00    -0.028 S 
ATOM     14  O   UNL     1      32.881 -15.574 -26.559  0.00  0.00    -0.274 OA
ATOM     15  N   UNL     1      33.199 -13.529 -25.527  0.00  0.00    -0.273 N 
ATOM     16  C   UNL     1      33.704 -15.510 -24.286  0.00  0.00    +0.134 C 
ATOM     17  C   UNL     1      33.217 -14.909 -25.586  0.00  0.00    +0.237 C 
ATOM     18  C   UNL     1      33.628 -12.907 -24.386  0.00  0.00    +0.114 C 
ATOM     19  H   UNL     1      32.882 -13.001 -26.295  0.00  0.00    +0.156 HD
ENDBRANCH  11  16
ENDBRANCH   1  11
TORSDOF 3
ENDMDL
MODEL 5
REMARK VINA RESULT:      -8.3      5.456      7.351
REMARK  Name = 23586154
REMARK  3 active torsions:
REMARK  status: ('A' for Active; 'I' for Inactive)
REMARK    1  A    between atoms: C_1  and  C_11
REMARK    2  A    between atoms: C_4  and  C_10
REMARK    3  A    between atoms: C_11  and  C_16
REMARK                            x       y       z     vdW  Elec       q    Type
REMARK                         _______ _______ _______ _____ _____    ______ ____
ROOT
ATOM      1  C   UNL     1      34.820 -17.473 -23.201  0.00  0.00    -0.021 C 
ATOM      2  C   UNL     1      34.578 -16.433 -22.303  0.00  0.00    -0.004 C 
ATOM      3  C   UNL     1      34.566 -17.295 -24.561  0.00  0.00    -0.004 C 
ATOM      4  C   UNL     1      33.828 -15.036 -24.126  0.00  0.00    +0.071 C 
ATOM      5  C   UNL     1      34.081 -15.214 -22.766  0.00  0.00    +0.004 C 
ATOM      6  C   UNL     1      34.070 -16.076 -25.023  0.00  0.00    +0.004 C 
ENDROOT
BRANCH   4  10
ATOM      7  F   UNL     1      34.174 -12.697 -24.488  0.00  0.00    -0.166 F 
ATOM      8  F   UNL     1      32.959 -13.748 -25.944  0.00  0.00    -0.166 F 
ATOM      9  F   UNL     1      32.166 -13.343 -23.960  0.00  0.00    -0.166 F 
ATOM     10  C   UNL     1      33.295 -13.734 -24.621  0.00  0.00    +0.419 C 
ENDBRANCH   4  10
BRANCH   1  11
ATOM     11  C   UNL     1      35.357 -18.790 -22.701  0.00  0.00    +0.047 C 
BRANCH  11  16
ATOM     12  S   UNL     1      33.766 -19.892 -20.740  0.00  0.00    -0.083 S 
ATOM     13  S   UNL     1      34.044 -22.373 -19.022  0.00  0.00    -0.028 S 
ATOM     14  O   UNL     1      37.581 -19.298 -20.747  0.00  0.00    -0.274 OA
ATOM     15  N   UNL     1      36.012 -20.767 -19.892  0.00  0.00    -0.273 N 
ATOM     16  C   UNL     1      35.235 -18.917 -21.192  0.00  0.00    +0.134 C 
ATOM     17  C   UNL     1      36.417 -19.655 -20.604  0.00  0.00    +0.237 C 
ATOM     18  C   UNL     1      34.679 -21.069 -19.834  0.00  0.00    +0.114 C 
ATOM     19  H   UNL     1      36.673 -21.333 -19.432  0.00  0.00    +0.156 HD
ENDBRANCH  11  16
ENDBRANCH   1  11
TORSDOF 3
ENDMDL
MODEL 6
REMARK VINA RESULT:      -8.2      6.286      8.706
REMARK  Name = 23586154
REMARK  3 active torsions:
REMARK  status: ('A' for Active; 'I' for Inactive)
REMARK    1  A    between atoms: C_1  and  C_11
REMARK    2  A    between atoms: C_4  and  C_10
REMARK    3  A    between atoms: C_11  and  C_16
REMARK                            x       y       z     vdW  Elec       q    Type
REMARK                         _______ _______ _______ _____ _____    ______ ____
ROOT
ATOM      1  C   UNL     1      33.117 -13.444 -23.765  0.00  0.00    -0.021 C 
ATOM      2  C   UNL     1      32.273 -13.005 -22.744  0.00  0.00    -0.004 C 
ATOM      3  C   UNL     1      33.846 -12.520 -24.514  0.00  0.00    -0.004 C 
ATOM      4  C   UNL     1      32.887 -10.718 -23.222  0.00  0.00    +0.071 C 
ATOM      5  C   UNL     1      32.158 -11.641 -22.473  0.00  0.00    +0.004 C 
ATOM      6  C   UNL     1      33.731 -11.157 -24.242  0.00  0.00    +0.004 C 
ENDROOT
BRANCH   4  10
ATOM      7  F   UNL     1      32.434  -8.984 -21.637  0.00  0.00    -0.166 F 
ATOM      8  F   UNL     1      33.911  -8.557 -23.167  0.00  0.00    -0.166 F 
ATOM      9  F   UNL     1      31.803  -8.654 -23.692  0.00  0.00    -0.166 F 
ATOM     10  C   UNL     1      32.763  -9.260 -22.934  0.00  0.00    +0.419 C 
ENDBRANCH   4  10
BRANCH   1  11
ATOM     11  C   UNL     1      33.242 -14.917 -24.057  0.00  0.00    +0.047 C 
BRANCH  11  16
ATOM     12  S   UNL     1      34.785 -15.947 -22.021  0.00  0.00    -0.083 S 
ATOM     13  S   UNL     1      35.641 -18.768 -21.317  0.00  0.00    -0.028 S 
ATOM     14  O   UNL     1      34.908 -16.705 -25.805  0.00  0.00    -0.274 OA
ATOM     15  N   UNL     1      35.286 -17.740 -23.771  0.00  0.00    -0.273 N 
ATOM     16  C   UNL     1      34.637 -15.439 -23.762  0.00  0.00    +0.134 C 
ATOM     17  C   UNL     1      34.949 -16.673 -24.580  0.00  0.00    +0.237 C 
ATOM     18  C   UNL     1      35.266 -17.577 -22.413  0.00  0.00    +0.114 C 
ATOM     19  H   UNL     1      35.536 -18.606 -24.167  0.00  0.00    +0.156 HD
ENDBRANCH  11  16
ENDBRANCH   1  11
TORSDOF 3
ENDMDL
MODEL 7
REMARK VINA RESULT:      -8.2      2.000      2.532
REMARK  Name = 23586154
REMARK  3 active torsions:
REMARK  status: ('A' for Active; 'I' for Inactive)
REMARK    1  A    between atoms: C_1  and  C_11
REMARK    2  A    between atoms: C_4  and  C_10
REMARK    3  A    between atoms: C_11  and  C_16
REMARK                            x       y       z     vdW  Elec       q    Type
REMARK                         _______ _______ _______ _____ _____    ______ ____
ROOT
ATOM      1  C   UNL     1      34.205 -18.165 -21.363  0.00  0.00    -0.021 C 
ATOM      2  C   UNL     1      35.596 -18.208 -21.271  0.00  0.00    -0.004 C 
ATOM      3  C   UNL     1      33.441 -19.231 -20.889  0.00  0.00    -0.004 C 
ATOM      4  C   UNL     1      35.459 -20.384 -20.230  0.00  0.00    +0.071 C 
ATOM      5  C   UNL     1      36.223 -19.318 -20.705  0.00  0.00    +0.004 C 
ATOM      6  C   UNL     1      34.068 -20.341 -20.322  0.00  0.00    +0.004 C 
ENDROOT
BRANCH   4  10
ATOM      7  F   UNL     1      36.476 -21.398 -18.317  0.00  0.00    -0.166 F 
ATOM      8  F   UNL     1      35.361 -22.701 -19.645  0.00  0.00    -0.166 F 
ATOM      9  F   UNL     1      37.286 -21.906 -20.270  0.00  0.00    -0.166 F 
ATOM     10  C   UNL     1      36.129 -21.572 -19.627  0.00  0.00    +0.419 C 
ENDBRANCH   4  10
BRANCH   1  11
ATOM     11  C   UNL     1      33.527 -16.965 -21.974  0.00  0.00    +0.047 C 
BRANCH  11  16
ATOM     12  S   UNL     1      34.019 -15.372 -24.167  0.00  0.00    -0.083 S 
ATOM     13  S   UNL     1      33.650 -12.407 -24.677  0.00  0.00    -0.028 S 
ATOM     14  O   UNL     1      34.905 -14.767 -20.458  0.00  0.00    -0.274 OA
ATOM     15  N   UNL     1      34.344 -13.587 -22.367  0.00  0.00    -0.273 N 
ATOM     16  C   UNL     1      34.530 -15.966 -22.525  0.00  0.00    +0.134 C 
ATOM     17  C   UNL     1      34.619 -14.735 -21.650  0.00  0.00    +0.237 C 
ATOM     18  C   UNL     1      34.011 -13.694 -23.690  0.00  0.00    +0.114 C 
ATOM     19  H   UNL     1      34.386 -12.705 -21.933  0.00  0.00    +0.156 HD
ENDBRANCH  11  16
ENDBRANCH   1  11
TORSDOF 3
ENDMDL
MODEL 8
REMARK VINA RESULT:      -8.2      3.985      5.456
REMARK  Name = 23586154
REMARK  3 active torsions:
REMARK  status: ('A' for Active; 'I' for Inactive)
REMARK    1  A    between atoms: C_1  and  C_11
REMARK    2  A    between atoms: C_4  and  C_10
REMARK    3  A    between atoms: C_11  and  C_16
REMARK                            x       y       z     vdW  Elec       q    Type
REMARK                         _______ _______ _______ _____ _____    ______ ____
ROOT
ATOM      1  C   UNL     1      33.784 -14.787 -24.412  0.00  0.00    -0.021 C 
ATOM      2  C   UNL     1      33.665 -15.792 -25.372  0.00  0.00    -0.004 C 
ATOM      3  C   UNL     1      34.387 -15.061 -23.184  0.00  0.00    -0.004 C 
ATOM      4  C   UNL     1      34.753 -17.347 -23.876  0.00  0.00    +0.071 C 
ATOM      5  C   UNL     1      34.150 -17.072 -25.103  0.00  0.00    +0.004 C 
ATOM      6  C   UNL     1      34.871 -16.342 -22.916  0.00  0.00    +0.004 C 
ENDROOT
BRANCH   4  10
ATOM      7  F   UNL     1      34.653 -19.323 -22.532  0.00  0.00    -0.166 F 
ATOM      8  F   UNL     1      35.125 -19.585 -24.632  0.00  0.00    -0.166 F 
ATOM      9  F   UNL     1      36.601 -18.723 -23.288  0.00  0.00    -0.166 F 
ATOM     10  C   UNL     1      35.269 -18.716 -23.588  0.00  0.00    +0.419 C 
ENDBRANCH   4  10
BRANCH   1  11
ATOM     11  C   UNL     1      33.261 -13.403 -24.702  0.00  0.00    +0.047 C 
BRANCH  11  16
ATOM     12  S   UNL     1      34.082 -10.802 -24.316  0.00  0.00    -0.083 S 
ATOM     13  S   UNL     1      32.617  -8.291 -23.461  0.00  0.00    -0.028 S 
ATOM     14  O   UNL     1      31.870 -13.027 -22.065  0.00  0.00    -0.274 OA
ATOM     15  N   UNL     1      32.152 -10.804 -22.641  0.00  0.00    -0.273 N 
ATOM     16  C   UNL     1      33.630 -12.416 -23.608  0.00  0.00    +0.134 C 
ATOM     17  C   UNL     1      32.459 -12.150 -22.687  0.00  0.00    +0.237 C 
ATOM     18  C   UNL     1      32.873  -9.931 -23.409  0.00  0.00    +0.114 C 
ATOM     19  H   UNL     1      31.424 -10.478 -22.064  0.00  0.00    +0.156 HD
ENDBRANCH  11  16
ENDBRANCH   1  11
TORSDOF 3
ENDMDL
MODEL 9
REMARK VINA RESULT:      -8.1      5.884      7.683
REMARK  Name = 23586154
REMARK  3 active torsions:
REMARK  status: ('A' for Active; 'I' for Inactive)
REMARK    1  A    between atoms: C_1  and  C_11
REMARK    2  A    between atoms: C_4  and  C_10
REMARK    3  A    between atoms: C_11  and  C_16
REMARK                            x       y       z     vdW  Elec       q    Type
REMARK                         _______ _______ _______ _____ _____    ______ ____
ROOT
ATOM      1  C   UNL     1      31.822 -12.201 -21.651  0.00  0.00    -0.021 C 
ATOM      2  C   UNL     1      32.029 -12.801 -20.409  0.00  0.00    -0.004 C 
ATOM      3  C   UNL     1      32.257 -12.837 -22.814  0.00  0.00    -0.004 C 
ATOM      4  C   UNL     1      33.106 -14.673 -21.492  0.00  0.00    +0.071 C 
ATOM      5  C   UNL     1      32.671 -14.037 -20.329  0.00  0.00    +0.004 C 
ATOM      6  C   UNL     1      32.899 -14.073 -22.735  0.00  0.00    +0.004 C 
ENDROOT
BRANCH   4  10
ATOM      7  F   UNL     1      33.009 -16.989 -20.900  0.00  0.00    -0.166 F 
ATOM      8  F   UNL     1      34.227 -16.462 -22.615  0.00  0.00    -0.166 F 
ATOM      9  F   UNL     1      34.902 -15.958 -20.610  0.00  0.00    -0.166 F 
ATOM     10  C   UNL     1      33.794 -15.993 -21.408  0.00  0.00    +0.419 C 
ENDBRANCH   4  10
BRANCH   1  11
ATOM     11  C   UNL     1      31.128 -10.866 -21.737  0.00  0.00    +0.047 C 
BRANCH  11  16
ATOM     12  S   UNL     1      31.597  -8.596 -23.225  0.00  0.00    -0.083 S 
ATOM     13  S   UNL     1      31.179  -5.648 -22.661  0.00  0.00    -0.028 S 
ATOM     14  O   UNL     1      32.465  -9.323 -19.534  0.00  0.00    -0.274 OA
ATOM     15  N   UNL     1      31.888  -7.555 -20.909  0.00  0.00    -0.273 N 
ATOM     16  C   UNL     1      32.115  -9.722 -21.893  0.00  0.00    +0.134 C 
ATOM     17  C   UNL     1      32.181  -8.877 -20.640  0.00  0.00    +0.237 C 
ATOM     18  C   UNL     1      31.560  -7.194 -22.188  0.00  0.00    +0.114 C 
ATOM     19  H   UNL     1      31.915  -6.882 -20.192  0.00  0.00    +0.156 HD
ENDBRANCH  11  16
ENDBRANCH   1  11
TORSDOF 3
ENDMDL
