MODEL 1
REMARK VINA RESULT:      -8.6      0.000      0.000
REMARK  Name = 3057996
REMARK  4 active torsions:
REMARK  status: ('A' for Active; 'I' for Inactive)
REMARK    1  A    between atoms: C_1  and  C_4
REMARK    2  A    between atoms: C_1  and  C_11
REMARK    3  A    between atoms: C_11  and  N_13
REMARK    4  A    between atoms: N_13  and  C_16
REMARK                            x       y       z     vdW  Elec       q    Type
REMARK                         _______ _______ _______ _____ _____    ______ ____
ROOT
ATOM      1  C   UNL     1      35.717 -18.710 -21.914  0.00  0.00    +0.005 C 
ENDROOT
BRANCH   1   4
ATOM      2  O   UNL     1      35.157 -22.469 -18.761  0.00  0.00    -0.435 OA
ATOM      3  O   UNL     1      32.762 -22.209 -18.695  0.00  0.00    -0.435 OA
ATOM      4  C   UNL     1      34.899 -19.626 -21.066  0.00  0.00    -0.021 C 
ATOM      5  C   UNL     1      35.525 -20.626 -20.318  0.00  0.00    +0.036 C 
ATOM      6  C   UNL     1      33.501 -19.474 -21.028  0.00  0.00    -0.001 C 
ATOM      7  C   UNL     1      34.727 -21.447 -19.550  0.00  0.00    +0.176 C 
ATOM      8  C   UNL     1      33.359 -21.298 -19.511  0.00  0.00    +0.176 C 
ATOM      9  C   UNL     1      32.715 -20.319 -20.240  0.00  0.00    +0.040 C 
ATOM     10  C   UNL     1      33.907 -22.947 -18.222  0.00  0.00    +0.429 C 
ENDBRANCH   1   4
BRANCH   1  11
ATOM     11  C   UNL     1      34.886 -17.818 -22.866  0.00  0.00    -0.057 C 
ATOM     12  C   UNL     1      35.013 -18.250 -24.326  0.00  0.00    -0.023 C 
BRANCH  11  13
ATOM     13  N   UNL     1      35.327 -16.424 -22.758  0.00  0.00    +0.387 N 
ATOM     14  H   UNL     1      35.565 -16.075 -23.688  0.00  0.00    -0.084 HD
ATOM     15  H   UNL     1      36.143 -16.382 -22.147  0.00  0.00    -0.084 HD
BRANCH  13  16
ATOM     16  C   UNL     1      34.274 -15.596 -22.193  0.00  0.00    -0.062 C 
ATOM     17  C   UNL     1      34.237 -14.239 -22.889  0.00  0.00    -0.023 C 
ATOM     18  C   UNL     1      34.504 -15.437 -20.694  0.00  0.00    -0.023 C 
ENDBRANCH  13  16
ENDBRANCH  11  13
ENDBRANCH   1  11
TORSDOF 4
ENDMDL
MODEL 2
REMARK VINA RESULT:      -8.5      1.092      2.476
REMARK  Name = 3057996
REMARK  4 active torsions:
REMARK  status: ('A' for Active; 'I' for Inactive)
REMARK    1  A    between atoms: C_1  and  C_4
REMARK    2  A    between atoms: C_1  and  C_11
REMARK    3  A    between atoms: C_11  and  N_13
REMARK    4  A    between atoms: N_13  and  C_16
REMARK                            x       y       z     vdW  Elec       q    Type
REMARK                         _______ _______ _______ _____ _____    ______ ____
ROOT
ATOM      1  C   UNL     1      34.323 -19.046 -21.744  0.00  0.00    +0.005 C 
ENDROOT
BRANCH   1   4
ATOM      2  O   UNL     1      32.552 -22.322 -18.501  0.00  0.00    -0.435 OA
ATOM      3  O   UNL     1      34.759 -23.044 -17.851  0.00  0.00    -0.435 OA
ATOM      4  C   UNL     1      34.475 -20.111 -20.709  0.00  0.00    -0.021 C 
ATOM      5  C   UNL     1      33.341 -20.680 -20.125  0.00  0.00    +0.036 C 
ATOM      6  C   UNL     1      35.762 -20.531 -20.330  0.00  0.00    -0.001 C 
ATOM      7  C   UNL     1      33.533 -21.659 -19.174  0.00  0.00    +0.176 C 
ATOM      8  C   UNL     1      34.792 -22.072 -18.803  0.00  0.00    +0.176 C 
ATOM      9  C   UNL     1      35.929 -21.527 -19.364  0.00  0.00    +0.040 C 
ATOM     10  C   UNL     1      33.336 -23.199 -17.665  0.00  0.00    +0.429 C 
ENDBRANCH   1   4
BRANCH   1  11
ATOM     11  C   UNL     1      35.379 -17.921 -21.655  0.00  0.00    -0.057 C 
ATOM     12  C   UNL     1      34.887 -16.724 -20.839  0.00  0.00    -0.023 C 
BRANCH  11  13
ATOM     13  N   UNL     1      35.726 -17.450 -22.999  0.00  0.00    +0.387 N 
ATOM     14  H   UNL     1      36.295 -18.157 -23.466  0.00  0.00    -0.084 HD
ATOM     15  H   UNL     1      36.247 -16.576 -22.918  0.00  0.00    -0.084 HD
BRANCH  13  16
ATOM     16  C   UNL     1      34.526 -17.209 -23.783  0.00  0.00    -0.062 C 
ATOM     17  C   UNL     1      34.552 -18.042 -25.061  0.00  0.00    -0.023 C 
ATOM     18  C   UNL     1      34.416 -15.721 -24.099  0.00  0.00    -0.023 C 
ENDBRANCH  13  16
ENDBRANCH  11  13
ENDBRANCH   1  11
TORSDOF 4
ENDMDL
MODEL 3
REMARK VINA RESULT:      -8.1      0.841      1.737
REMARK  Name = 3057996
REMARK  4 active torsions:
REMARK  status: ('A' for Active; 'I' for Inactive)
REMARK    1  A    between atoms: C_1  and  C_4
REMARK    2  A    between atoms: C_1  and  C_11
REMARK    3  A    between atoms: C_11  and  N_13
REMARK    4  A    between atoms: N_13  and  C_16
REMARK                            x       y       z     vdW  Elec       q    Type
REMARK                         _______ _______ _______ _____ _____    ______ ____
ROOT
ATOM      1  C   UNL     1      36.252 -18.651 -21.778  0.00  0.00    +0.005 C 
ENDROOT
BRANCH   1   4
ATOM      2  O   UNL     1      32.855 -21.363 -19.433  0.00  0.00    -0.435 OA
ATOM      3  O   UNL     1      34.524 -22.672 -18.289  0.00  0.00    -0.435 OA
ATOM      4  C   UNL     1      35.825 -19.732 -20.841  0.00  0.00    -0.021 C 
ATOM      5  C   UNL     1      34.466 -19.976 -20.633  0.00  0.00    +0.036 C 
ATOM      6  C   UNL     1      36.799 -20.495 -20.173  0.00  0.00    -0.001 C 
ATOM      7  C   UNL     1      34.122 -20.985 -19.759  0.00  0.00    +0.176 C 
ATOM      8  C   UNL     1      35.075 -21.733 -19.105  0.00  0.00    +0.176 C 
ATOM      9  C   UNL     1      36.424 -21.513 -19.292  0.00  0.00    +0.040 C 
ATOM     10  C   UNL     1      33.118 -22.433 -18.502  0.00  0.00    +0.429 C 
ENDBRANCH   1   4
BRANCH   1  11
ATOM     11  C   UNL     1      35.116 -18.107 -22.676  0.00  0.00    -0.057 C 
ATOM     12  C   UNL     1      34.983 -18.890 -23.982  0.00  0.00    -0.023 C 
BRANCH  11  13
ATOM     13  N   UNL     1      35.367 -16.701 -23.006  0.00  0.00    +0.387 N 
ATOM     14  H   UNL     1      35.412 -16.598 -24.020  0.00  0.00    -0.084 HD
ATOM     15  H   UNL     1      36.250 -16.416 -22.583  0.00  0.00    -0.084 HD
BRANCH  13  16
ATOM     16  C   UNL     1      34.304 -15.856 -22.487  0.00  0.00    -0.062 C 
ATOM     17  C   UNL     1      34.321 -14.498 -23.182  0.00  0.00    -0.023 C 
ATOM     18  C   UNL     1      34.468 -15.703 -20.979  0.00  0.00    -0.023 C 
ENDBRANCH  13  16
ENDBRANCH  11  13
ENDBRANCH   1  11
TORSDOF 4
ENDMDL
MODEL 4
REMARK VINA RESULT:      -8.1      1.236      2.089
REMARK  Name = 3057996
REMARK  4 active torsions:
REMARK  status: ('A' for Active; 'I' for Inactive)
REMARK    1  A    between atoms: C_1  and  C_4
REMARK    2  A    between atoms: C_1  and  C_11
REMARK    3  A    between atoms: C_11  and  N_13
REMARK    4  A    between atoms: N_13  and  C_16
REMARK                            x       y       z     vdW  Elec       q    Type
REMARK                         _______ _______ _______ _____ _____    ______ ____
ROOT
ATOM      1  C   UNL     1      35.439 -17.743 -21.776  0.00  0.00    +0.005 C 
ENDROOT
BRANCH   1   4
ATOM      2  O   UNL     1      32.951 -21.427 -19.624  0.00  0.00    -0.435 OA
ATOM      3  O   UNL     1      34.972 -22.536 -18.923  0.00  0.00    -0.435 OA
ATOM      4  C   UNL     1      35.350 -19.024 -21.014  0.00  0.00    -0.021 C 
ATOM      5  C   UNL     1      34.100 -19.568 -20.712  0.00  0.00    +0.036 C 
ATOM      6  C   UNL     1      36.530 -19.671 -20.604  0.00  0.00    -0.001 C 
ATOM      7  C   UNL     1      34.070 -20.752 -20.006  0.00  0.00    +0.176 C 
ATOM      8  C   UNL     1      35.224 -21.387 -19.606  0.00  0.00    +0.176 C 
ATOM      9  C   UNL     1      36.472 -20.870 -19.890  0.00  0.00    +0.040 C 
ATOM     10  C   UNL     1      33.530 -22.556 -18.939  0.00  0.00    +0.429 C 
ENDBRANCH   1   4
BRANCH   1  11
ATOM     11  C   UNL     1      34.758 -17.785 -23.164  0.00  0.00    -0.057 C 
ATOM     12  C   UNL     1      35.176 -19.008 -23.980  0.00  0.00    -0.023 C 
BRANCH  11  13
ATOM     13  N   UNL     1      35.102 -16.582 -23.928  0.00  0.00    +0.387 N 
ATOM     14  H   UNL     1      35.444 -16.856 -24.850  0.00  0.00    -0.084 HD
ATOM     15  H   UNL     1      35.824 -16.067 -23.424  0.00  0.00    -0.084 HD
BRANCH  13  16
ATOM     16  C   UNL     1      33.939 -15.724 -24.086  0.00  0.00    -0.062 C 
ATOM     17  C   UNL     1      33.613 -15.542 -25.565  0.00  0.00    -0.023 C 
ATOM     18  C   UNL     1      34.203 -14.382 -23.413  0.00  0.00    -0.023 C 
ENDBRANCH  13  16
ENDBRANCH  11  13
ENDBRANCH   1  11
TORSDOF 4
ENDMDL
MODEL 5
REMARK VINA RESULT:      -7.9      4.032      6.721
REMARK  Name = 3057996
REMARK  4 active torsions:
REMARK  status: ('A' for Active; 'I' for Inactive)
REMARK    1  A    between atoms: C_1  and  C_4
REMARK    2  A    between atoms: C_1  and  C_11
REMARK    3  A    between atoms: C_11  and  N_13
REMARK    4  A    between atoms: N_13  and  C_16
REMARK                            x       y       z     vdW  Elec       q    Type
REMARK                         _______ _______ _______ _____ _____    ______ ____
ROOT
ATOM      1  C   UNL     1      35.646 -18.673 -23.207  0.00  0.00    +0.005 C 
ENDROOT
BRANCH   1   4
ATOM      2  O   UNL     1      33.416 -15.787 -26.536  0.00  0.00    -0.435 OA
ATOM      3  O   UNL     1      33.087 -14.007 -24.944  0.00  0.00    -0.435 OA
ATOM      4  C   UNL     1      34.967 -17.415 -23.637  0.00  0.00    -0.021 C 
ATOM      5  C   UNL     1      34.528 -17.278 -24.956  0.00  0.00    +0.036 C 
ATOM      6  C   UNL     1      34.775 -16.377 -22.708  0.00  0.00    -0.001 C 
ATOM      7  C   UNL     1      33.906 -16.098 -25.305  0.00  0.00    +0.176 C 
ATOM      8  C   UNL     1      33.717 -15.082 -24.395  0.00  0.00    +0.176 C 
ATOM      9  C   UNL     1      34.141 -15.191 -23.087  0.00  0.00    +0.040 C 
ATOM     10  C   UNL     1      32.899 -14.461 -26.300  0.00  0.00    +0.429 C 
ENDBRANCH   1   4
BRANCH   1  11
ATOM     11  C   UNL     1      35.524 -18.973 -21.695  0.00  0.00    -0.057 C 
ATOM     12  C   UNL     1      36.886 -19.044 -21.004  0.00  0.00    -0.023 C 
BRANCH  11  13
ATOM     13  N   UNL     1      34.838 -20.253 -21.491  0.00  0.00    +0.387 N 
ATOM     14  H   UNL     1      35.532 -20.998 -21.418  0.00  0.00    -0.084 HD
ATOM     15  H   UNL     1      34.219 -20.424 -22.284  0.00  0.00    -0.084 HD
BRANCH  13  16
ATOM     16  C   UNL     1      34.043 -20.220 -20.275  0.00  0.00    -0.062 C 
ATOM     17  C   UNL     1      34.075 -21.580 -19.584  0.00  0.00    -0.023 C 
ATOM     18  C   UNL     1      32.613 -19.810 -20.614  0.00  0.00    -0.023 C 
ENDBRANCH  13  16
ENDBRANCH  11  13
ENDBRANCH   1  11
TORSDOF 4
ENDMDL
MODEL 6
REMARK VINA RESULT:      -7.7      3.778      6.597
REMARK  Name = 3057996
REMARK  4 active torsions:
REMARK  status: ('A' for Active; 'I' for Inactive)
REMARK    1  A    between atoms: C_1  and  C_4
REMARK    2  A    between atoms: C_1  and  C_11
REMARK    3  A    between atoms: C_11  and  N_13
REMARK    4  A    between atoms: N_13  and  C_16
REMARK                            x       y       z     vdW  Elec       q    Type
REMARK                         _______ _______ _______ _____ _____    ______ ____
ROOT
ATOM      1  C   UNL     1      35.606 -18.498 -21.534  0.00  0.00    +0.005 C 
ENDROOT
BRANCH   1   4
ATOM      2  O   UNL     1      33.720 -14.789 -24.193  0.00  0.00    -0.435 OA
ATOM      3  O   UNL     1      33.647 -16.115 -26.205  0.00  0.00    -0.435 OA
ATOM      4  C   UNL     1      35.089 -17.894 -22.798  0.00  0.00    -0.021 C 
ATOM      5  C   UNL     1      34.653 -16.567 -22.805  0.00  0.00    +0.036 C 
ATOM      6  C   UNL     1      35.046 -18.668 -23.971  0.00  0.00    -0.001 C 
ATOM      7  C   UNL     1      34.185 -16.053 -23.996  0.00  0.00    +0.176 C 
ATOM      8  C   UNL     1      34.143 -16.810 -25.146  0.00  0.00    +0.176 C 
ATOM      9  C   UNL     1      34.568 -18.123 -25.166  0.00  0.00    +0.040 C 
ATOM     10  C   UNL     1      33.382 -14.835 -25.595  0.00  0.00    +0.429 C 
ENDBRANCH   1   4
BRANCH   1  11
ATOM     11  C   UNL     1      34.823 -19.747 -21.064  0.00  0.00    -0.057 C 
ATOM     12  C   UNL     1      33.311 -19.521 -21.071  0.00  0.00    -0.023 C 
BRANCH  11  13
ATOM     13  N   UNL     1      35.229 -20.110 -19.703  0.00  0.00    +0.387 N 
ATOM     14  H   UNL     1      34.451 -19.937 -19.064  0.00  0.00    -0.084 HD
ATOM     15  H   UNL     1      36.036 -19.545 -19.438  0.00  0.00    -0.084 HD
BRANCH  13  16
ATOM     16  C   UNL     1      35.597 -21.514 -19.636  0.00  0.00    -0.062 C 
ATOM     17  C   UNL     1      34.367 -22.371 -19.353  0.00  0.00    -0.023 C 
ATOM     18  C   UNL     1      36.661 -21.709 -18.560  0.00  0.00    -0.023 C 
ENDBRANCH  13  16
ENDBRANCH  11  13
ENDBRANCH   1  11
TORSDOF 4
ENDMDL
MODEL 7
REMARK VINA RESULT:      -7.5      6.768      8.800
REMARK  Name = 3057996
REMARK  4 active torsions:
REMARK  status: ('A' for Active; 'I' for Inactive)
REMARK    1  A    between atoms: C_1  and  C_4
REMARK    2  A    between atoms: C_1  and  C_11
REMARK    3  A    between atoms: C_11  and  N_13
REMARK    4  A    between atoms: N_13  and  C_16
REMARK                            x       y       z     vdW  Elec       q    Type
REMARK                         _______ _______ _______ _____ _____    ______ ____
ROOT
ATOM      1  C   UNL     1      32.081 -23.418 -13.583  0.00  0.00    +0.005 C 
ENDROOT
BRANCH   1   4
ATOM      2  O   UNL     1      28.698 -22.022 -16.899  0.00  0.00    -0.435 OA
ATOM      3  O   UNL     1      27.827 -24.259 -17.123  0.00  0.00    -0.435 OA
ATOM      4  C   UNL     1      30.947 -23.678 -14.519  0.00  0.00    -0.021 C 
ATOM      5  C   UNL     1      30.400 -22.625 -15.256  0.00  0.00    +0.036 C 
ATOM      6  C   UNL     1      30.439 -24.982 -14.649  0.00  0.00    -0.001 C 
ATOM      7  C   UNL     1      29.354 -22.914 -16.107  0.00  0.00    +0.176 C 
ATOM      8  C   UNL     1      28.856 -24.192 -16.235  0.00  0.00    +0.176 C 
ATOM      9  C   UNL     1      29.379 -25.249 -15.519  0.00  0.00    +0.040 C 
ATOM     10  C   UNL     1      27.732 -22.881 -17.540  0.00  0.00    +0.429 C 
ENDBRANCH   1   4
BRANCH   1  11
ATOM     11  C   UNL     1      33.458 -23.878 -14.115  0.00  0.00    -0.057 C 
ATOM     12  C   UNL     1      34.419 -24.260 -12.989  0.00  0.00    -0.023 C 
BRANCH  11  13
ATOM     13  N   UNL     1      34.076 -22.806 -14.903  0.00  0.00    +0.387 N 
ATOM     14  H   UNL     1      34.815 -22.369 -14.352  0.00  0.00    -0.084 HD
ATOM     15  H   UNL     1      33.360 -22.119 -15.141  0.00  0.00    -0.084 HD
BRANCH  13  16
ATOM     16  C   UNL     1      34.645 -23.336 -16.131  0.00  0.00    -0.062 C 
ATOM     17  C   UNL     1      35.935 -22.598 -16.477  0.00  0.00    -0.023 C 
ATOM     18  C   UNL     1      33.625 -23.215 -17.257  0.00  0.00    -0.023 C 
ENDBRANCH  13  16
ENDBRANCH  11  13
ENDBRANCH   1  11
TORSDOF 4
ENDMDL
MODEL 8
REMARK VINA RESULT:      -7.4      7.112      9.119
REMARK  Name = 3057996
REMARK  4 active torsions:
REMARK  status: ('A' for Active; 'I' for Inactive)
REMARK    1  A    between atoms: C_1  and  C_4
REMARK    2  A    between atoms: C_1  and  C_11
REMARK    3  A    between atoms: C_11  and  N_13
REMARK    4  A    between atoms: N_13  and  C_16
REMARK                            x       y       z     vdW  Elec       q    Type
REMARK                         _______ _______ _______ _____ _____    ______ ____
ROOT
ATOM      1  C   UNL     1      35.185 -22.988 -15.345  0.00  0.00    +0.005 C 
ENDROOT
BRANCH   1   4
ATOM      2  O   UNL     1      39.852 -24.499 -14.785  0.00  0.00    -0.435 OA
ATOM      3  O   UNL     1      39.203 -26.815 -14.616  0.00  0.00    -0.435 OA
ATOM      4  C   UNL     1      36.231 -24.034 -15.150  0.00  0.00    -0.021 C 
ATOM      5  C   UNL     1      37.576 -23.665 -15.067  0.00  0.00    +0.036 C 
ATOM      6  C   UNL     1      35.853 -25.385 -15.052  0.00  0.00    -0.001 C 
ATOM      7  C   UNL     1      38.505 -24.668 -14.886  0.00  0.00    +0.176 C 
ATOM      8  C   UNL     1      38.135 -25.990 -14.789  0.00  0.00    +0.176 C 
ATOM      9  C   UNL     1      36.814 -26.382 -14.868  0.00  0.00    +0.040 C 
ATOM     10  C   UNL     1      40.288 -25.864 -14.613  0.00  0.00    +0.429 C 
ENDBRANCH   1   4
BRANCH   1  11
ATOM     11  C   UNL     1      33.789 -23.548 -15.706  0.00  0.00    -0.057 C 
ATOM     12  C   UNL     1      33.353 -23.153 -17.117  0.00  0.00    -0.023 C 
BRANCH  11  13
ATOM     13  N   UNL     1      32.788 -23.049 -14.758  0.00  0.00    +0.387 N 
ATOM     14  H   UNL     1      32.552 -22.085 -14.995  0.00  0.00    -0.084 HD
ATOM     15  H   UNL     1      33.174 -23.097 -13.816  0.00  0.00    -0.084 HD
BRANCH  13  16
ATOM     16  C   UNL     1      31.583 -23.862 -14.813  0.00  0.00    -0.062 C 
ATOM     17  C   UNL     1      30.348 -22.991 -14.601  0.00  0.00    -0.023 C 
ATOM     18  C   UNL     1      31.666 -24.963 -13.761  0.00  0.00    -0.023 C 
ENDBRANCH  13  16
ENDBRANCH  11  13
ENDBRANCH   1  11
TORSDOF 4
ENDMDL
MODEL 9
REMARK VINA RESULT:      -7.3      3.453      6.130
REMARK  Name = 3057996
REMARK  4 active torsions:
REMARK  status: ('A' for Active; 'I' for Inactive)
REMARK    1  A    between atoms: C_1  and  C_4
REMARK    2  A    between atoms: C_1  and  C_11
REMARK    3  A    between atoms: C_11  and  N_13
REMARK    4  A    between atoms: N_13  and  C_16
REMARK                            x       y       z     vdW  Elec       q    Type
REMARK                         _______ _______ _______ _____ _____    ______ ____
ROOT
ATOM      1  C   UNL     1      35.848 -18.326 -22.613  0.00  0.00    +0.005 C 
ENDROOT
BRANCH   1   4
ATOM      2  O   UNL     1      33.038 -14.666 -20.855  0.00  0.00    -0.435 OA
ATOM      3  O   UNL     1      32.569 -13.812 -23.060  0.00  0.00    -0.435 OA
ATOM      4  C   UNL     1      34.977 -17.124 -22.768  0.00  0.00    -0.021 C 
ATOM      5  C   UNL     1      34.441 -16.503 -21.637  0.00  0.00    +0.036 C 
ATOM      6  C   UNL     1      34.703 -16.626 -24.054  0.00  0.00    -0.001 C 
ATOM      7  C   UNL     1      33.643 -15.395 -21.832  0.00  0.00    +0.176 C 
ATOM      8  C   UNL     1      33.376 -14.907 -23.091  0.00  0.00    +0.176 C 
ATOM      9  C   UNL     1      33.892 -15.501 -24.224  0.00  0.00    +0.040 C 
ATOM     10  C   UNL     1      32.359 -13.664 -21.640  0.00  0.00    +0.429 C 
ENDBRANCH   1   4
BRANCH   1  11
ATOM     11  C   UNL     1      35.762 -18.995 -21.221  0.00  0.00    -0.057 C 
ATOM     12  C   UNL     1      37.138 -19.380 -20.676  0.00  0.00    -0.023 C 
BRANCH  11  13
ATOM     13  N   UNL     1      34.941 -20.207 -21.296  0.00  0.00    +0.387 N 
ATOM     14  H   UNL     1      35.549 -21.026 -21.275  0.00  0.00    -0.084 HD
ATOM     15  H   UNL     1      34.404 -20.188 -22.163  0.00  0.00    -0.084 HD
BRANCH  13  16
ATOM     16  C   UNL     1      34.017 -20.269 -20.175  0.00  0.00    -0.062 C 
ATOM     17  C   UNL     1      34.011 -21.671 -19.572  0.00  0.00    -0.023 C 
ATOM     18  C   UNL     1      32.623 -19.867 -20.643  0.00  0.00    -0.023 C 
ENDBRANCH  13  16
ENDBRANCH  11  13
ENDBRANCH   1  11
TORSDOF 4
ENDMDL
