MODEL 1
REMARK VINA RESULT:      -9.6      0.000      0.000
REMARK  Name = 25067411
REMARK  14 active torsions:
REMARK  status: ('A' for Active; 'I' for Inactive)
REMARK    1  A    between atoms: N_2  and  C_7
REMARK    2  A    between atoms: N_3  and  C_18
REMARK    3  A    between atoms: C_7  and  C_9
REMARK    4  A    between atoms: C_7  and  C_12
REMARK    5  A    between atoms: C_9  and  O_10
REMARK    6  A    between atoms: C_12  and  C_13
REMARK    7  A    between atoms: C_13  and  C_15
REMARK    8  A    between atoms: C_15  and  O_16
REMARK    9  A    between atoms: C_18  and  C_20
REMARK   10  A    between atoms: C_18  and  C_23
REMARK   11  A    between atoms: C_20  and  O_21
REMARK   12  A    between atoms: C_23  and  S_24
REMARK   13  A    between atoms: S_24  and  C_25
REMARK   14  A    between atoms: C_25  and  C_27
REMARK                            x       y       z     vdW  Elec       q    Type
REMARK                         _______ _______ _______ _____ _____    ______ ____
ROOT
ATOM      1  O   UNK A   0      35.610 -23.108 -14.847  0.00  0.00    -0.253 OA
ATOM      2  N   UNK A   1      35.487 -25.407 -14.547  0.00  0.00    -0.281 N 
ATOM      3  N   UNK A   1      33.586 -24.220 -15.071  0.00  0.00    -0.280 N 
ATOM      4  C   UNK A   0      34.954 -24.149 -14.823  0.00  0.00    +0.301 C 
ATOM      5  H   UNK A   1      34.881 -26.183 -14.553  0.00  0.00    +0.151 HD
ATOM      6  H   UNK A   1      33.145 -25.099 -15.030  0.00  0.00    +0.151 HD
ENDROOT
BRANCH   2   7
ATOM      7  C   UNK A   1      36.881 -25.630 -14.254  0.00  0.00    +0.173 C 
BRANCH   7   9
ATOM      8  O   UNK A   1      36.741 -27.262 -16.057  0.00  0.00    -0.248 OA
ATOM      9  C   UNK A   1      37.346 -26.798 -15.098  0.00  0.00    +0.332 C 
BRANCH   9  10
ATOM     10  O   UNK A   1      38.555 -27.267 -14.694  0.00  0.00    -0.479 OA
ATOM     11  H   UNK A   1      38.944 -26.941 -13.905  0.00  0.00    +0.295 HD
ENDBRANCH   9  10
ENDBRANCH   7   9
BRANCH   7  12
ATOM     12  C   UNK A   1      37.149 -25.804 -12.754  0.00  0.00    +0.043 C 
BRANCH  12  13
ATOM     13  C   UNK A   1      36.970 -24.548 -11.893  0.00  0.00    +0.112 C 
BRANCH  13  15
ATOM     14  O   UNK A   1      35.270 -25.116 -10.242  0.00  0.00    -0.250 OA
ATOM     15  C   UNK A   1      35.620 -24.461 -11.215  0.00  0.00    +0.314 C 
BRANCH  15  16
ATOM     16  O   UNK A   1      34.799 -23.581 -11.846  0.00  0.00    -0.480 OA
ATOM     17  H   UNK A   1      33.972 -23.867 -12.178  0.00  0.00    +0.295 HD
ENDBRANCH  15  16
ENDBRANCH  13  15
ENDBRANCH  12  13
ENDBRANCH   7  12
ENDBRANCH   2   7
BRANCH   3  18
ATOM     18  C   UNK A   1      32.786 -23.059 -15.384  0.00  0.00    +0.183 C 
BRANCH  18  20
ATOM     19  O   UNK A   1      30.480 -22.713 -14.720  0.00  0.00    -0.248 OA
ATOM     20  C   UNK A   1      31.650 -22.869 -14.393  0.00  0.00    +0.333 C 
BRANCH  20  21
ATOM     21  O   UNK A   1      32.059 -22.874 -13.101  0.00  0.00    -0.479 OA
ATOM     22  H   UNK A   1      31.478 -22.585 -12.425  0.00  0.00    +0.295 HD
ENDBRANCH  20  21
ENDBRANCH  18  20
BRANCH  18  23
ATOM     23  C   UNK A   1      32.296 -23.076 -16.834  0.00  0.00    +0.089 C 
BRANCH  23  24
ATOM     24  S   UNK A   1      33.639 -22.982 -18.065  0.00  0.00    -0.133 S 
BRANCH  24  25
ATOM     25  C   UNK A   1      32.917 -21.718 -19.133  0.00  0.00    +0.084 C 
BRANCH  25  27
ATOM     26  F   UNK A   1      36.847 -18.618 -21.716  0.00  0.00    -0.204 F 
ATOM     27  C   UNK A   1      33.967 -20.891 -19.824  0.00  0.00    -0.011 C 
ATOM     28  C   UNK A   1      33.588 -19.843 -20.661  0.00  0.00    -0.001 C 
ATOM     29  C   UNK A   1      35.318 -21.172 -19.624  0.00  0.00    -0.001 C 
ATOM     30  C   UNK A   1      34.560 -19.074 -21.301  0.00  0.00    +0.029 C 
ATOM     31  C   UNK A   1      36.291 -20.404 -20.263  0.00  0.00    +0.029 C 
ATOM     32  C   UNK A   1      35.913 -19.356 -21.102  0.00  0.00    +0.140 C 
ENDBRANCH  25  27
ENDBRANCH  24  25
ENDBRANCH  23  24
ENDBRANCH  18  23
ENDBRANCH   3  18
TORSDOF 14
ENDMDL
MODEL 2
REMARK VINA RESULT:      -9.1      2.745      5.853
REMARK  Name = 25067411
REMARK  14 active torsions:
REMARK  status: ('A' for Active; 'I' for Inactive)
REMARK    1  A    between atoms: N_2  and  C_7
REMARK    2  A    between atoms: N_3  and  C_18
REMARK    3  A    between atoms: C_7  and  C_9
REMARK    4  A    between atoms: C_7  and  C_12
REMARK    5  A    between atoms: C_9  and  O_10
REMARK    6  A    between atoms: C_12  and  C_13
REMARK    7  A    between atoms: C_13  and  C_15
REMARK    8  A    between atoms: C_15  and  O_16
REMARK    9  A    between atoms: C_18  and  C_20
REMARK   10  A    between atoms: C_18  and  C_23
REMARK   11  A    between atoms: C_20  and  O_21
REMARK   12  A    between atoms: C_23  and  S_24
REMARK   13  A    between atoms: S_24  and  C_25
REMARK   14  A    between atoms: C_25  and  C_27
REMARK                            x       y       z     vdW  Elec       q    Type
REMARK                         _______ _______ _______ _____ _____    ______ ____
ROOT
ATOM      1  O   UNK A   0      33.625 -24.877 -14.487  0.00  0.00    -0.253 OA
ATOM      2  N   UNK A   1      32.279 -23.226 -13.562  0.00  0.00    -0.281 N 
ATOM      3  N   UNK A   1      34.441 -23.490 -12.816  0.00  0.00    -0.280 N 
ATOM      4  C   UNK A   0      33.464 -23.951 -13.694  0.00  0.00    +0.301 C 
ATOM      5  H   UNK A   1      32.248 -22.499 -12.898  0.00  0.00    +0.151 HD
ATOM      6  H   UNK A   1      34.221 -22.741 -12.216  0.00  0.00    +0.151 HD
ENDROOT
BRANCH   2   7
ATOM      7  C   UNK A   1      31.099 -23.488 -14.348  0.00  0.00    +0.173 C 
BRANCH   7   9
ATOM      8  O   UNK A   1      30.268 -25.763 -14.601  0.00  0.00    -0.248 OA
ATOM      9  C   UNK A   1      30.521 -24.807 -13.879  0.00  0.00    +0.332 C 
BRANCH   9  10
ATOM     10  O   UNK A   1      30.345 -24.833 -12.533  0.00  0.00    -0.479 OA
ATOM     11  H   UNK A   1      29.481 -24.897 -12.174  0.00  0.00    +0.295 HD
ENDBRANCH   9  10
ENDBRANCH   7   9
BRANCH   7  12
ATOM     12  C   UNK A   1      31.368 -23.430 -15.856  0.00  0.00    +0.043 C 
BRANCH  12  13
ATOM     13  C   UNK A   1      30.507 -22.439 -16.651  0.00  0.00    +0.112 C 
BRANCH  13  15
ATOM     14  O   UNK A   1      28.148 -21.896 -16.372  0.00  0.00    -0.250 OA
ATOM     15  C   UNK A   1      29.023 -22.726 -16.577  0.00  0.00    +0.314 C 
BRANCH  15  16
ATOM     16  O   UNK A   1      28.762 -24.051 -16.727  0.00  0.00    -0.480 OA
ATOM     17  H   UNK A   1      28.235 -24.348 -17.442  0.00  0.00    +0.295 HD
ENDBRANCH  15  16
ENDBRANCH  13  15
ENDBRANCH  12  13
ENDBRANCH   7  12
ENDBRANCH   2   7
BRANCH   3  18
ATOM     18  C   UNK A   1      35.764 -24.065 -12.746  0.00  0.00    +0.183 C 
BRANCH  18  20
ATOM     19  O   UNK A   1      37.258 -24.040 -10.837  0.00  0.00    -0.248 OA
ATOM     20  C   UNK A   1      36.177 -24.364 -11.315  0.00  0.00    +0.333 C 
BRANCH  20  21
ATOM     21  O   UNK A   1      35.236 -25.042 -10.615  0.00  0.00    -0.479 OA
ATOM     22  H   UNK A   1      34.327 -24.867 -10.761  0.00  0.00    +0.295 HD
ENDBRANCH  20  21
ENDBRANCH  18  20
BRANCH  18  23
ATOM     23  C   UNK A   1      36.799 -23.213 -13.485  0.00  0.00    +0.089 C 
BRANCH  23  24
ATOM     24  S   UNK A   1      37.268 -23.878 -15.117  0.00  0.00    -0.133 S 
BRANCH  24  25
ATOM     25  C   UNK A   1      37.346 -22.313 -16.015  0.00  0.00    +0.084 C 
BRANCH  25  27
ATOM     26  F   UNK A   1      33.435 -21.989 -20.057  0.00  0.00    -0.204 F 
ATOM     27  C   UNK A   1      36.301 -22.226 -17.095  0.00  0.00    -0.011 C 
ATOM     28  C   UNK A   1      36.591 -21.578 -18.294  0.00  0.00    -0.001 C 
ATOM     29  C   UNK A   1      35.043 -22.794 -16.894  0.00  0.00    -0.001 C 
ATOM     30  C   UNK A   1      35.623 -21.498 -19.296  0.00  0.00    +0.029 C 
ATOM     31  C   UNK A   1      34.075 -22.715 -17.895  0.00  0.00    +0.029 C 
ATOM     32  C   UNK A   1      34.364 -22.066 -19.095  0.00  0.00    +0.140 C 
ENDBRANCH  25  27
ENDBRANCH  24  25
ENDBRANCH  23  24
ENDBRANCH  18  23
ENDBRANCH   3  18
TORSDOF 14
ENDMDL
MODEL 3
REMARK VINA RESULT:      -9.0      1.684      3.098
REMARK  Name = 25067411
REMARK  14 active torsions:
REMARK  status: ('A' for Active; 'I' for Inactive)
REMARK    1  A    between atoms: N_2  and  C_7
REMARK    2  A    between atoms: N_3  and  C_18
REMARK    3  A    between atoms: C_7  and  C_9
REMARK    4  A    between atoms: C_7  and  C_12
REMARK    5  A    between atoms: C_9  and  O_10
REMARK    6  A    between atoms: C_12  and  C_13
REMARK    7  A    between atoms: C_13  and  C_15
REMARK    8  A    between atoms: C_15  and  O_16
REMARK    9  A    between atoms: C_18  and  C_20
REMARK   10  A    between atoms: C_18  and  C_23
REMARK   11  A    between atoms: C_20  and  O_21
REMARK   12  A    between atoms: C_23  and  S_24
REMARK   13  A    between atoms: S_24  and  C_25
REMARK   14  A    between atoms: C_25  and  C_27
REMARK                            x       y       z     vdW  Elec       q    Type
REMARK                         _______ _______ _______ _____ _____    ______ ____
ROOT
ATOM      1  O   UNK A   0      34.197 -25.007 -14.523  0.00  0.00    -0.253 OA
ATOM      2  N   UNK A   1      34.889 -23.449 -12.947  0.00  0.00    -0.281 N 
ATOM      3  N   UNK A   1      32.761 -23.327 -13.816  0.00  0.00    -0.280 N 
ATOM      4  C   UNK A   0      33.970 -24.018 -13.827  0.00  0.00    +0.301 C 
ATOM      5  H   UNK A   1      34.613 -22.656 -12.430  0.00  0.00    +0.151 HD
ATOM      6  H   UNK A   1      32.671 -22.545 -13.224  0.00  0.00    +0.151 HD
ENDROOT
BRANCH   2   7
ATOM      7  C   UNK A   1      36.223 -23.960 -12.756  0.00  0.00    +0.173 C 
BRANCH   7   9
ATOM      8  O   UNK A   1      37.381 -22.324 -11.371  0.00  0.00    -0.248 OA
ATOM      9  C   UNK A   1      36.758 -23.373 -11.465  0.00  0.00    +0.332 C 
BRANCH   9  10
ATOM     10  O   UNK A   1      36.430 -24.135 -10.389  0.00  0.00    -0.479 OA
ATOM     11  H   UNK A   1      36.784 -24.999 -10.301  0.00  0.00    +0.295 HD
ENDBRANCH   9  10
ENDBRANCH   7   9
BRANCH   7  12
ATOM     12  C   UNK A   1      37.130 -23.717 -13.968  0.00  0.00    +0.043 C 
BRANCH  12  13
ATOM     13  C   UNK A   1      38.243 -24.750 -14.188  0.00  0.00    +0.112 C 
BRANCH  13  15
ATOM     14  O   UNK A   1      38.265 -27.144 -14.642  0.00  0.00    -0.250 OA
ATOM     15  C   UNK A   1      37.761 -26.042 -14.813  0.00  0.00    +0.314 C 
BRANCH  15  16
ATOM     16  O   UNK A   1      36.705 -25.833 -15.641  0.00  0.00    -0.480 OA
ATOM     17  H   UNK A   1      35.998 -26.447 -15.663  0.00  0.00    +0.295 HD
ENDBRANCH  15  16
ENDBRANCH  13  15
ENDBRANCH  12  13
ENDBRANCH   7  12
ENDBRANCH   2   7
BRANCH   3  18
ATOM     18  C   UNK A   1      31.634 -23.707 -14.636  0.00  0.00    +0.183 C 
BRANCH  18  20
ATOM     19  O   UNK A   1      30.396 -25.791 -14.611  0.00  0.00    -0.248 OA
ATOM     20  C   UNK A   1      30.817 -24.818 -13.998  0.00  0.00    +0.333 C 
BRANCH  20  21
ATOM     21  O   UNK A   1      30.582 -24.620 -12.679  0.00  0.00    -0.479 OA
ATOM     22  H   UNK A   1      30.766 -23.789 -12.289  0.00  0.00    +0.295 HD
ENDBRANCH  20  21
ENDBRANCH  18  20
BRANCH  18  23
ATOM     23  C   UNK A   1      32.057 -24.043 -16.068  0.00  0.00    +0.089 C 
BRANCH  23  24
ATOM     24  S   UNK A   1      32.161 -22.590 -17.165  0.00  0.00    -0.133 S 
BRANCH  24  25
ATOM     25  C   UNK A   1      33.701 -23.015 -18.005  0.00  0.00    +0.084 C 
BRANCH  25  27
ATOM     26  F   UNK A   1      35.262 -19.069 -21.708  0.00  0.00    -0.204 F 
ATOM     27  C   UNK A   1      34.118 -21.962 -18.995  0.00  0.00    -0.011 C 
ATOM     28  C   UNK A   1      33.155 -21.163 -19.608  0.00  0.00    -0.001 C 
ATOM     29  C   UNK A   1      35.468 -21.785 -19.297  0.00  0.00    -0.001 C 
ATOM     30  C   UNK A   1      33.541 -20.184 -20.525  0.00  0.00    +0.029 C 
ATOM     31  C   UNK A   1      35.855 -20.807 -20.214  0.00  0.00    +0.029 C 
ATOM     32  C   UNK A   1      34.891 -20.008 -20.828  0.00  0.00    +0.140 C 
ENDBRANCH  25  27
ENDBRANCH  24  25
ENDBRANCH  23  24
ENDBRANCH  18  23
ENDBRANCH   3  18
TORSDOF 14
ENDMDL
MODEL 4
REMARK VINA RESULT:      -8.9      2.378      5.749
REMARK  Name = 25067411
REMARK  14 active torsions:
REMARK  status: ('A' for Active; 'I' for Inactive)
REMARK    1  A    between atoms: N_2  and  C_7
REMARK    2  A    between atoms: N_3  and  C_18
REMARK    3  A    between atoms: C_7  and  C_9
REMARK    4  A    between atoms: C_7  and  C_12
REMARK    5  A    between atoms: C_9  and  O_10
REMARK    6  A    between atoms: C_12  and  C_13
REMARK    7  A    between atoms: C_13  and  C_15
REMARK    8  A    between atoms: C_15  and  O_16
REMARK    9  A    between atoms: C_18  and  C_20
REMARK   10  A    between atoms: C_18  and  C_23
REMARK   11  A    between atoms: C_20  and  O_21
REMARK   12  A    between atoms: C_23  and  S_24
REMARK   13  A    between atoms: S_24  and  C_25
REMARK   14  A    between atoms: C_25  and  C_27
REMARK                            x       y       z     vdW  Elec       q    Type
REMARK                         _______ _______ _______ _____ _____    ______ ____
ROOT
ATOM      1  O   UNK A   0      32.694 -23.932 -16.349  0.00  0.00    -0.253 OA
ATOM      2  N   UNK A   1      31.973 -22.918 -14.388  0.00  0.00    -0.281 N 
ATOM      3  N   UNK A   1      34.221 -22.992 -14.878  0.00  0.00    -0.280 N 
ATOM      4  C   UNK A   0      32.941 -23.336 -15.301  0.00  0.00    +0.301 C 
ATOM      5  H   UNK A   1      32.270 -22.446 -13.576  0.00  0.00    +0.151 HD
ATOM      6  H   UNK A   1      34.322 -22.514 -14.022  0.00  0.00    +0.151 HD
ENDROOT
BRANCH   2   7
ATOM      7  C   UNK A   1      30.561 -23.142 -14.573  0.00  0.00    +0.173 C 
BRANCH   7   9
ATOM      8  O   UNK A   1      29.905 -25.466 -14.892  0.00  0.00    -0.248 OA
ATOM      9  C   UNK A   1      30.264 -24.565 -14.146  0.00  0.00    +0.332 C 
BRANCH   9  10
ATOM     10  O   UNK A   1      30.481 -24.751 -12.818  0.00  0.00    -0.479 OA
ATOM     11  H   UNK A   1      30.309 -24.056 -12.212  0.00  0.00    +0.295 HD
ENDBRANCH   9  10
ENDBRANCH   7   9
BRANCH   7  12
ATOM     12  C   UNK A   1      30.090 -22.811 -15.994  0.00  0.00    +0.043 C 
BRANCH  12  13
ATOM     13  C   UNK A   1      28.615 -22.413 -16.133  0.00  0.00    +0.112 C 
BRANCH  13  15
ATOM     14  O   UNK A   1      27.116 -22.707 -18.031  0.00  0.00    -0.250 OA
ATOM     15  C   UNK A   1      27.872 -23.189 -17.199  0.00  0.00    +0.314 C 
BRANCH  15  16
ATOM     16  O   UNK A   1      28.111 -24.523 -17.103  0.00  0.00    -0.480 OA
ATOM     17  H   UNK A   1      27.397 -25.130 -17.114  0.00  0.00    +0.295 HD
ENDBRANCH  15  16
ENDBRANCH  13  15
ENDBRANCH  12  13
ENDBRANCH   7  12
ENDBRANCH   2   7
BRANCH   3  18
ATOM     18  C   UNK A   1      35.409 -23.306 -15.637  0.00  0.00    +0.183 C 
BRANCH  18  20
ATOM     19  O   UNK A   1      36.960 -24.343 -14.089  0.00  0.00    -0.248 OA
ATOM     20  C   UNK A   1      36.182 -24.463 -15.028  0.00  0.00    +0.333 C 
BRANCH  20  21
ATOM     21  O   UNK A   1      35.940 -25.649 -15.636  0.00  0.00    -0.479 OA
ATOM     22  H   UNK A   1      35.093 -26.045 -15.571  0.00  0.00    +0.295 HD
ENDBRANCH  20  21
ENDBRANCH  18  20
BRANCH  18  23
ATOM     23  C   UNK A   1      36.287 -22.073 -15.862  0.00  0.00    +0.089 C 
BRANCH  23  24
ATOM     24  S   UNK A   1      36.794 -21.837 -17.598  0.00  0.00    -0.133 S 
BRANCH  24  25
ATOM     25  C   UNK A   1      35.214 -22.230 -18.379  0.00  0.00    +0.084 C 
BRANCH  25  27
ATOM     26  F   UNK A   1      33.912 -18.602 -22.485  0.00  0.00    -0.204 F 
ATOM     27  C   UNK A   1      34.866 -21.262 -19.476  0.00  0.00    -0.011 C 
ATOM     28  C   UNK A   1      33.530 -21.005 -19.781  0.00  0.00    -0.001 C 
ATOM     29  C   UNK A   1      35.881 -20.621 -20.187  0.00  0.00    -0.001 C 
ATOM     30  C   UNK A   1      33.207 -20.106 -20.798  0.00  0.00    +0.029 C 
ATOM     31  C   UNK A   1      35.558 -19.722 -21.204  0.00  0.00    +0.029 C 
ATOM     32  C   UNK A   1      34.222 -19.465 -21.510  0.00  0.00    +0.140 C 
ENDBRANCH  25  27
ENDBRANCH  24  25
ENDBRANCH  23  24
ENDBRANCH  18  23
ENDBRANCH   3  18
TORSDOF 14
ENDMDL
MODEL 5
REMARK VINA RESULT:      -8.8      9.314     13.258
REMARK  Name = 25067411
REMARK  14 active torsions:
REMARK  status: ('A' for Active; 'I' for Inactive)
REMARK    1  A    between atoms: N_2  and  C_7
REMARK    2  A    between atoms: N_3  and  C_18
REMARK    3  A    between atoms: C_7  and  C_9
REMARK    4  A    between atoms: C_7  and  C_12
REMARK    5  A    between atoms: C_9  and  O_10
REMARK    6  A    between atoms: C_12  and  C_13
REMARK    7  A    between atoms: C_13  and  C_15
REMARK    8  A    between atoms: C_15  and  O_16
REMARK    9  A    between atoms: C_18  and  C_20
REMARK   10  A    between atoms: C_18  and  C_23
REMARK   11  A    between atoms: C_20  and  O_21
REMARK   12  A    between atoms: C_23  and  S_24
REMARK   13  A    between atoms: S_24  and  C_25
REMARK   14  A    between atoms: C_25  and  C_27
REMARK                            x       y       z     vdW  Elec       q    Type
REMARK                         _______ _______ _______ _____ _____    ______ ____
ROOT
ATOM      1  O   UNK A   0      32.982 -13.751 -24.511  0.00  0.00    -0.253 OA
ATOM      2  N   UNK A   1      34.238 -11.995 -23.657  0.00  0.00    -0.281 N 
ATOM      3  N   UNK A   1      34.420 -14.091 -22.723  0.00  0.00    -0.280 N 
ATOM      4  C   UNK A   0      33.804 -13.319 -23.704  0.00  0.00    +0.301 C 
ATOM      5  H   UNK A   1      34.902 -11.745 -22.973  0.00  0.00    +0.151 HD
ATOM      6  H   UNK A   1      35.067 -13.658 -22.120  0.00  0.00    +0.151 HD
ENDROOT
BRANCH   2   7
ATOM      7  C   UNK A   1      33.765 -10.974 -24.558  0.00  0.00    +0.173 C 
BRANCH   7   9
ATOM      8  O   UNK A   1      35.679 -10.329 -25.919  0.00  0.00    -0.248 OA
ATOM      9  C   UNK A   1      34.660 -10.992 -25.780  0.00  0.00    +0.332 C 
BRANCH   9  10
ATOM     10  O   UNK A   1      34.222 -11.875 -26.715  0.00  0.00    -0.479 OA
ATOM     11  H   UNK A   1      33.805 -12.671 -26.450  0.00  0.00    +0.295 HD
ENDBRANCH   9  10
ENDBRANCH   7   9
BRANCH   7  12
ATOM     12  C   UNK A   1      33.658  -9.598 -23.889  0.00  0.00    +0.043 C 
BRANCH  12  13
ATOM     13  C   UNK A   1      32.272  -9.225 -23.348  0.00  0.00    +0.112 C 
BRANCH  13  15
ATOM     14  O   UNK A   1      32.107  -8.979 -20.929  0.00  0.00    -0.250 OA
ATOM     15  C   UNK A   1      32.028  -9.684 -21.927  0.00  0.00    +0.314 C 
BRANCH  15  16
ATOM     16  O   UNK A   1      31.745 -11.011 -21.872  0.00  0.00    -0.480 OA
ATOM     17  H   UNK A   1      30.952 -11.306 -21.469  0.00  0.00    +0.295 HD
ENDBRANCH  15  16
ENDBRANCH  13  15
ENDBRANCH  12  13
ENDBRANCH   7  12
ENDBRANCH   2   7
BRANCH   3  18
ATOM     18  C   UNK A   1      34.150 -15.499 -22.550  0.00  0.00    +0.183 C 
BRANCH  18  20
ATOM     19  O   UNK A   1      32.658 -16.135 -20.748  0.00  0.00    -0.248 OA
ATOM     20  C   UNK A   1      33.789 -15.836 -21.113  0.00  0.00    +0.333 C 
BRANCH  20  21
ATOM     21  O   UNK A   1      34.840 -15.758 -20.264  0.00  0.00    -0.479 OA
ATOM     22  H   UNK A   1      35.211 -16.539 -19.903  0.00  0.00    +0.295 HD
ENDBRANCH  20  21
ENDBRANCH  18  20
BRANCH  18  23
ATOM     23  C   UNK A   1      35.291 -16.370 -23.083  0.00  0.00    +0.089 C 
BRANCH  23  24
ATOM     24  S   UNK A   1      34.855 -18.133 -23.250  0.00  0.00    -0.133 S 
BRANCH  24  25
ATOM     25  C   UNK A   1      35.849 -18.771 -21.884  0.00  0.00    +0.084 C 
BRANCH  25  27
ATOM     26  F   UNK A   1      32.936 -22.300 -18.600  0.00  0.00    -0.204 F 
ATOM     27  C   UNK A   1      35.070 -19.714 -21.008  0.00  0.00    -0.011 C 
ATOM     28  C   UNK A   1      35.739 -20.687 -20.266  0.00  0.00    -0.001 C 
ATOM     29  C   UNK A   1      33.681 -19.614 -20.938  0.00  0.00    -0.001 C 
ATOM     30  C   UNK A   1      35.018 -21.561 -19.452  0.00  0.00    +0.029 C 
ATOM     31  C   UNK A   1      32.960 -20.487 -20.124  0.00  0.00    +0.029 C 
ATOM     32  C   UNK A   1      33.628 -21.461 -19.382  0.00  0.00    +0.140 C 
ENDBRANCH  25  27
ENDBRANCH  24  25
ENDBRANCH  23  24
ENDBRANCH  18  23
ENDBRANCH   3  18
TORSDOF 14
ENDMDL
MODEL 6
REMARK VINA RESULT:      -8.7      1.771      3.354
REMARK  Name = 25067411
REMARK  14 active torsions:
REMARK  status: ('A' for Active; 'I' for Inactive)
REMARK    1  A    between atoms: N_2  and  C_7
REMARK    2  A    between atoms: N_3  and  C_18
REMARK    3  A    between atoms: C_7  and  C_9
REMARK    4  A    between atoms: C_7  and  C_12
REMARK    5  A    between atoms: C_9  and  O_10
REMARK    6  A    between atoms: C_12  and  C_13
REMARK    7  A    between atoms: C_13  and  C_15
REMARK    8  A    between atoms: C_15  and  O_16
REMARK    9  A    between atoms: C_18  and  C_20
REMARK   10  A    between atoms: C_18  and  C_23
REMARK   11  A    between atoms: C_20  and  O_21
REMARK   12  A    between atoms: C_23  and  S_24
REMARK   13  A    between atoms: S_24  and  C_25
REMARK   14  A    between atoms: C_25  and  C_27
REMARK                            x       y       z     vdW  Elec       q    Type
REMARK                         _______ _______ _______ _____ _____    ______ ____
ROOT
ATOM      1  O   UNK A   0      34.543 -24.933 -14.150  0.00  0.00    -0.253 OA
ATOM      2  N   UNK A   1      36.450 -23.699 -13.671  0.00  0.00    -0.281 N 
ATOM      3  N   UNK A   1      34.863 -22.842 -15.101  0.00  0.00    -0.280 N 
ATOM      4  C   UNK A   0      35.223 -23.918 -14.295  0.00  0.00    +0.301 C 
ATOM      5  H   UNK A   1      36.920 -22.852 -13.850  0.00  0.00    +0.151 HD
ATOM      6  H   UNK A   1      35.472 -22.069 -15.155  0.00  0.00    +0.151 HD
ENDROOT
BRANCH   2   7
ATOM      7  C   UNK A   1      37.066 -24.649 -12.779  0.00  0.00    +0.173 C 
BRANCH   7   9
ATOM      8  O   UNK A   1      38.656 -23.179 -11.664  0.00  0.00    -0.248 OA
ATOM      9  C   UNK A   1      37.649 -23.873 -11.616  0.00  0.00    +0.332 C 
BRANCH   9  10
ATOM     10  O   UNK A   1      36.895 -24.002 -10.493  0.00  0.00    -0.479 OA
ATOM     11  H   UNK A   1      37.165 -24.585  -9.811  0.00  0.00    +0.295 HD
ENDBRANCH   9  10
ENDBRANCH   7   9
BRANCH   7  12
ATOM     12  C   UNK A   1      38.079 -25.556 -13.488  0.00  0.00    +0.043 C 
BRANCH  12  13
ATOM     13  C   UNK A   1      38.637 -25.025 -14.815  0.00  0.00    +0.112 C 
BRANCH  13  15
ATOM     14  O   UNK A   1      40.993 -24.761 -14.252  0.00  0.00    -0.250 OA
ATOM     15  C   UNK A   1      40.127 -25.234 -14.976  0.00  0.00    +0.314 C 
BRANCH  15  16
ATOM     16  O   UNK A   1      40.411 -25.990 -16.069  0.00  0.00    -0.480 OA
ATOM     17  H   UNK A   1      40.643 -26.891 -15.969  0.00  0.00    +0.295 HD
ENDBRANCH  15  16
ENDBRANCH  13  15
ENDBRANCH  12  13
ENDBRANCH   7  12
ENDBRANCH   2   7
BRANCH   3  18
ATOM     18  C   UNK A   1      33.636 -22.809 -15.862  0.00  0.00    +0.183 C 
BRANCH  18  20
ATOM     19  O   UNK A   1      31.605 -24.055 -15.415  0.00  0.00    -0.248 OA
ATOM     20  C   UNK A   1      32.441 -23.245 -15.032  0.00  0.00    +0.333 C 
BRANCH  20  21
ATOM     21  O   UNK A   1      32.377 -22.638 -13.823  0.00  0.00    -0.479 OA
ATOM     22  H   UNK A   1      33.134 -22.612 -13.271  0.00  0.00    +0.295 HD
ENDBRANCH  20  21
ENDBRANCH  18  20
BRANCH  18  23
ATOM     23  C   UNK A   1      33.754 -23.594 -17.171  0.00  0.00    +0.089 C 
BRANCH  23  24
ATOM     24  S   UNK A   1      33.499 -22.577 -18.664  0.00  0.00    -0.133 S 
BRANCH  24  25
ATOM     25  C   UNK A   1      35.183 -21.951 -18.835  0.00  0.00    +0.084 C 
BRANCH  25  27
ATOM     26  F   UNK A   1      35.510 -17.710 -22.528  0.00  0.00    -0.204 F 
ATOM     27  C   UNK A   1      35.270 -20.818 -19.821  0.00  0.00    -0.011 C 
ATOM     28  C   UNK A   1      36.507 -20.245 -20.116  0.00  0.00    -0.001 C 
ATOM     29  C   UNK A   1      34.114 -20.341 -20.439  0.00  0.00    -0.001 C 
ATOM     30  C   UNK A   1      36.588 -19.195 -21.031  0.00  0.00    +0.029 C 
ATOM     31  C   UNK A   1      34.195 -19.292 -21.354  0.00  0.00    +0.029 C 
ATOM     32  C   UNK A   1      35.432 -18.718 -21.649  0.00  0.00    +0.140 C 
ENDBRANCH  25  27
ENDBRANCH  24  25
ENDBRANCH  23  24
ENDBRANCH  18  23
ENDBRANCH   3  18
TORSDOF 14
ENDMDL
MODEL 7
REMARK VINA RESULT:      -8.6     10.639     13.993
REMARK  Name = 25067411
REMARK  14 active torsions:
REMARK  status: ('A' for Active; 'I' for Inactive)
REMARK    1  A    between atoms: N_2  and  C_7
REMARK    2  A    between atoms: N_3  and  C_18
REMARK    3  A    between atoms: C_7  and  C_9
REMARK    4  A    between atoms: C_7  and  C_12
REMARK    5  A    between atoms: C_9  and  O_10
REMARK    6  A    between atoms: C_12  and  C_13
REMARK    7  A    between atoms: C_13  and  C_15
REMARK    8  A    between atoms: C_15  and  O_16
REMARK    9  A    between atoms: C_18  and  C_20
REMARK   10  A    between atoms: C_18  and  C_23
REMARK   11  A    between atoms: C_20  and  O_21
REMARK   12  A    between atoms: C_23  and  S_24
REMARK   13  A    between atoms: S_24  and  C_25
REMARK   14  A    between atoms: C_25  and  C_27
REMARK                            x       y       z     vdW  Elec       q    Type
REMARK                         _______ _______ _______ _____ _____    ______ ____
ROOT
ATOM      1  O   UNK A   0      32.682 -13.453 -24.156  0.00  0.00    -0.253 OA
ATOM      2  N   UNK A   1      34.321 -14.044 -22.620  0.00  0.00    -0.281 N 
ATOM      3  N   UNK A   1      34.494 -12.058 -23.770  0.00  0.00    -0.280 N 
ATOM      4  C   UNK A   0      33.736 -13.207 -23.571  0.00  0.00    +0.301 C 
ATOM      5  H   UNK A   1      35.167 -13.759 -22.204  0.00  0.00    +0.151 HD
ATOM      6  H   UNK A   1      35.326 -11.946 -23.255  0.00  0.00    +0.151 HD
ENDROOT
BRANCH   2   7
ATOM      7  C   UNK A   1      33.749 -15.305 -22.217  0.00  0.00    +0.173 C 
BRANCH   7   9
ATOM      8  O   UNK A   1      32.653 -15.084 -20.053  0.00  0.00    -0.248 OA
ATOM      9  C   UNK A   1      33.665 -15.306 -20.705  0.00  0.00    +0.332 C 
BRANCH   9  10
ATOM     10  O   UNK A   1      34.855 -15.625 -20.131  0.00  0.00    -0.479 OA
ATOM     11  H   UNK A   1      35.376 -14.958 -19.729  0.00  0.00    +0.295 HD
ENDBRANCH   9  10
ENDBRANCH   7   9
BRANCH   7  12
ATOM     12  C   UNK A   1      34.502 -16.508 -22.797  0.00  0.00    +0.043 C 
BRANCH  12  13
ATOM     13  C   UNK A   1      35.134 -16.299 -24.179  0.00  0.00    +0.112 C 
BRANCH  13  15
ATOM     14  O   UNK A   1      33.821 -17.786 -25.595  0.00  0.00    -0.250 OA
ATOM     15  C   UNK A   1      34.217 -16.659 -25.328  0.00  0.00    +0.314 C 
BRANCH  15  16
ATOM     16  O   UNK A   1      33.906 -15.570 -26.079  0.00  0.00    -0.480 OA
ATOM     17  H   UNK A   1      34.128 -14.712 -25.776  0.00  0.00    +0.295 HD
ENDBRANCH  15  16
ENDBRANCH  13  15
ENDBRANCH  12  13
ENDBRANCH   7  12
ENDBRANCH   2   7
BRANCH   3  18
ATOM     18  C   UNK A   1      34.116 -11.021 -24.702  0.00  0.00    +0.183 C 
BRANCH  18  20
ATOM     19  O   UNK A   1      35.352 -10.875 -26.783  0.00  0.00    -0.248 OA
ATOM     20  C   UNK A   1      34.452 -11.397 -26.135  0.00  0.00    +0.333 C 
BRANCH  20  21
ATOM     21  O   UNK A   1      33.646 -12.361 -26.640  0.00  0.00    -0.479 OA
ATOM     22  H   UNK A   1      34.004 -13.193 -26.881  0.00  0.00    +0.295 HD
ENDBRANCH  20  21
ENDBRANCH  18  20
BRANCH  18  23
ATOM     23  C   UNK A   1      34.691  -9.658 -24.307  0.00  0.00    +0.089 C 
BRANCH  23  24
ATOM     24  S   UNK A   1      33.474  -8.545 -23.528  0.00  0.00    -0.133 S 
BRANCH  24  25
ATOM     25  C   UNK A   1      32.142  -9.743 -23.303  0.00  0.00    +0.084 C 
BRANCH  25  27
ATOM     26  F   UNK A   1      31.314 -11.007 -17.877  0.00  0.00    -0.204 F 
ATOM     27  C   UNK A   1      31.920 -10.080 -21.854  0.00  0.00    -0.011 C 
ATOM     28  C   UNK A   1      31.575 -11.380 -21.486  0.00  0.00    -0.001 C 
ATOM     29  C   UNK A   1      32.060  -9.092 -20.879  0.00  0.00    -0.001 C 
ATOM     30  C   UNK A   1      31.371 -11.694 -20.142  0.00  0.00    +0.029 C 
ATOM     31  C   UNK A   1      31.856  -9.405 -19.536  0.00  0.00    +0.029 C 
ATOM     32  C   UNK A   1      31.510 -10.706 -19.167  0.00  0.00    +0.140 C 
ENDBRANCH  25  27
ENDBRANCH  24  25
ENDBRANCH  23  24
ENDBRANCH  18  23
ENDBRANCH   3  18
TORSDOF 14
ENDMDL
MODEL 8
REMARK VINA RESULT:      -8.5      8.970     13.141
REMARK  Name = 25067411
REMARK  14 active torsions:
REMARK  status: ('A' for Active; 'I' for Inactive)
REMARK    1  A    between atoms: N_2  and  C_7
REMARK    2  A    between atoms: N_3  and  C_18
REMARK    3  A    between atoms: C_7  and  C_9
REMARK    4  A    between atoms: C_7  and  C_12
REMARK    5  A    between atoms: C_9  and  O_10
REMARK    6  A    between atoms: C_12  and  C_13
REMARK    7  A    between atoms: C_13  and  C_15
REMARK    8  A    between atoms: C_15  and  O_16
REMARK    9  A    between atoms: C_18  and  C_20
REMARK   10  A    between atoms: C_18  and  C_23
REMARK   11  A    between atoms: C_20  and  O_21
REMARK   12  A    between atoms: C_23  and  S_24
REMARK   13  A    between atoms: S_24  and  C_25
REMARK   14  A    between atoms: C_25  and  C_27
REMARK                            x       y       z     vdW  Elec       q    Type
REMARK                         _______ _______ _______ _____ _____    ______ ____
ROOT
ATOM      1  O   UNK A   0      34.679 -13.893 -22.242  0.00  0.00    -0.253 OA
ATOM      2  N   UNK A   1      32.649 -13.078 -23.021  0.00  0.00    -0.281 N 
ATOM      3  N   UNK A   1      33.413 -15.126 -23.744  0.00  0.00    -0.280 N 
ATOM      4  C   UNK A   0      33.674 -14.021 -22.939  0.00  0.00    +0.301 C 
ATOM      5  H   UNK A   1      31.882 -13.272 -23.607  0.00  0.00    +0.151 HD
ATOM      6  H   UNK A   1      32.579 -15.141 -24.268  0.00  0.00    +0.151 HD
ENDROOT
BRANCH   2   7
ATOM      7  C   UNK A   1      32.657 -11.835 -22.292  0.00  0.00    +0.173 C 
BRANCH   7   9
ATOM      8  O   UNK A   1      31.789 -12.273 -20.058  0.00  0.00    -0.248 OA
ATOM      9  C   UNK A   1      31.594 -11.928 -21.217  0.00  0.00    +0.332 C 
BRANCH   9  10
ATOM     10  O   UNK A   1      30.375 -11.542 -21.675  0.00  0.00    -0.479 OA
ATOM     11  H   UNK A   1      29.685 -11.351 -21.069  0.00  0.00    +0.295 HD
ENDBRANCH   9  10
ENDBRANCH   7   9
BRANCH   7  12
ATOM     12  C   UNK A   1      32.508 -10.612 -23.205  0.00  0.00    +0.043 C 
BRANCH  12  13
ATOM     13  C   UNK A   1      33.817  -9.991 -23.708  0.00  0.00    +0.112 C 
BRANCH  13  15
ATOM     14  O   UNK A   1      33.883 -11.619 -25.521  0.00  0.00    -0.250 OA
ATOM     15  C   UNK A   1      34.416 -10.710 -24.898  0.00  0.00    +0.314 C 
BRANCH  15  16
ATOM     16  O   UNK A   1      35.664 -10.254 -25.181  0.00  0.00    -0.480 OA
ATOM     17  H   UNK A   1      35.776  -9.506 -25.733  0.00  0.00    +0.295 HD
ENDBRANCH  15  16
ENDBRANCH  13  15
ENDBRANCH  12  13
ENDBRANCH   7  12
ENDBRANCH   2   7
BRANCH   3  18
ATOM     18  C   UNK A   1      34.312 -16.251 -23.845  0.00  0.00    +0.183 C 
BRANCH  18  20
ATOM     19  O   UNK A   1      34.642 -17.981 -25.511  0.00  0.00    -0.248 OA
ATOM     20  C   UNK A   1      34.356 -16.818 -25.254  0.00  0.00    +0.333 C 
BRANCH  20  21
ATOM     21  O   UNK A   1      34.060 -15.904 -26.209  0.00  0.00    -0.479 OA
ATOM     22  H   UNK A   1      33.169 -15.756 -26.456  0.00  0.00    +0.295 HD
ENDBRANCH  20  21
ENDBRANCH  18  20
BRANCH  18  23
ATOM     23  C   UNK A   1      34.008 -17.323 -22.794  0.00  0.00    +0.089 C 
BRANCH  23  24
ATOM     24  S   UNK A   1      35.073 -17.227 -21.317  0.00  0.00    -0.133 S 
BRANCH  24  25
ATOM     25  C   UNK A   1      35.896 -18.824 -21.493  0.00  0.00    +0.084 C 
BRANCH  25  27
ATOM     26  F   UNK A   1      33.349 -22.868 -18.512  0.00  0.00    -0.204 F 
ATOM     27  C   UNK A   1      35.216 -19.905 -20.698  0.00  0.00    -0.011 C 
ATOM     28  C   UNK A   1      35.976 -20.884 -20.060  0.00  0.00    -0.001 C 
ATOM     29  C   UNK A   1      33.825 -19.926 -20.598  0.00  0.00    -0.001 C 
ATOM     30  C   UNK A   1      35.346 -21.885 -19.321  0.00  0.00    +0.029 C 
ATOM     31  C   UNK A   1      33.194 -20.927 -19.859  0.00  0.00    +0.029 C 
ATOM     32  C   UNK A   1      33.954 -21.907 -19.222  0.00  0.00    +0.140 C 
ENDBRANCH  25  27
ENDBRANCH  24  25
ENDBRANCH  23  24
ENDBRANCH  18  23
ENDBRANCH   3  18
TORSDOF 14
ENDMDL
MODEL 9
REMARK VINA RESULT:      -8.4      9.010     11.737
REMARK  Name = 25067411
REMARK  14 active torsions:
REMARK  status: ('A' for Active; 'I' for Inactive)
REMARK    1  A    between atoms: N_2  and  C_7
REMARK    2  A    between atoms: N_3  and  C_18
REMARK    3  A    between atoms: C_7  and  C_9
REMARK    4  A    between atoms: C_7  and  C_12
REMARK    5  A    between atoms: C_9  and  O_10
REMARK    6  A    between atoms: C_12  and  C_13
REMARK    7  A    between atoms: C_13  and  C_15
REMARK    8  A    between atoms: C_15  and  O_16
REMARK    9  A    between atoms: C_18  and  C_20
REMARK   10  A    between atoms: C_18  and  C_23
REMARK   11  A    between atoms: C_20  and  O_21
REMARK   12  A    between atoms: C_23  and  S_24
REMARK   13  A    between atoms: S_24  and  C_25
REMARK   14  A    between atoms: C_25  and  C_27
REMARK                            x       y       z     vdW  Elec       q    Type
REMARK                         _______ _______ _______ _____ _____    ______ ____
ROOT
ATOM      1  O   UNK A   0      33.384 -16.090 -21.804  0.00  0.00    -0.253 OA
ATOM      2  N   UNK A   1      34.675 -17.815 -22.669  0.00  0.00    -0.281 N 
ATOM      3  N   UNK A   1      34.019 -16.082 -24.035  0.00  0.00    -0.280 N 
ATOM      4  C   UNK A   0      33.971 -16.614 -22.750  0.00  0.00    +0.301 C 
ATOM      5  H   UNK A   1      35.114 -18.155 -23.483  0.00  0.00    +0.151 HD
ATOM      6  H   UNK A   1      34.515 -16.573 -24.730  0.00  0.00    +0.151 HD
ENDROOT
BRANCH   2   7
ATOM      7  C   UNK A   1      34.792 -18.585 -21.456  0.00  0.00    +0.173 C 
BRANCH   7   9
ATOM      8  O   UNK A   1      36.733 -19.384 -20.221  0.00  0.00    -0.248 OA
ATOM      9  C   UNK A   1      36.267 -18.804 -21.194  0.00  0.00    +0.332 C 
BRANCH   9  10
ATOM     10  O   UNK A   1      37.039 -18.311 -22.196  0.00  0.00    -0.479 OA
ATOM     11  H   UNK A   1      37.023 -17.394 -22.394  0.00  0.00    +0.295 HD
ENDBRANCH   9  10
ENDBRANCH   7   9
BRANCH   7  12
ATOM     12  C   UNK A   1      33.971 -19.879 -21.495  0.00  0.00    +0.043 C 
BRANCH  12  13
ATOM     13  C   UNK A   1      33.061 -20.130 -20.286  0.00  0.00    +0.112 C 
BRANCH  13  15
ATOM     14  O   UNK A   1      32.666 -22.053 -18.842  0.00  0.00    -0.250 OA
ATOM     15  C   UNK A   1      33.442 -21.353 -19.480  0.00  0.00    +0.314 C 
BRANCH  15  16
ATOM     16  O   UNK A   1      34.782 -21.573 -19.507  0.00  0.00    -0.480 OA
ATOM     17  H   UNK A   1      35.359 -20.910 -19.832  0.00  0.00    +0.295 HD
ENDBRANCH  15  16
ENDBRANCH  13  15
ENDBRANCH  12  13
ENDBRANCH   7  12
ENDBRANCH   2   7
BRANCH   3  18
ATOM     18  C   UNK A   1      33.372 -14.842 -24.394  0.00  0.00    +0.183 C 
BRANCH  18  20
ATOM     19  O   UNK A   1      33.074 -13.669 -26.495  0.00  0.00    -0.248 OA
ATOM     20  C   UNK A   1      33.145 -14.734 -25.893  0.00  0.00    +0.333 C 
BRANCH  20  21
ATOM     21  O   UNK A   1      33.012 -15.936 -26.503  0.00  0.00    -0.479 OA
ATOM     22  H   UNK A   1      33.128 -16.006 -27.430  0.00  0.00    +0.295 HD
ENDBRANCH  20  21
ENDBRANCH  18  20
BRANCH  18  23
ATOM     23  C   UNK A   1      34.109 -13.626 -23.827  0.00  0.00    +0.089 C 
BRANCH  23  24
ATOM     24  S   UNK A   1      33.005 -12.269 -23.314  0.00  0.00    -0.133 S 
BRANCH  24  25
ATOM     25  C   UNK A   1      33.784 -10.939 -24.254  0.00  0.00    +0.084 C 
BRANCH  25  27
ATOM     26  F   UNK A   1      32.607  -5.858 -22.126  0.00  0.00    -0.204 F 
ATOM     27  C   UNK A   1      33.470  -9.582 -23.685  0.00  0.00    -0.011 C 
ATOM     28  C   UNK A   1      34.406  -8.554 -23.779  0.00  0.00    -0.001 C 
ATOM     29  C   UNK A   1      32.242  -9.354 -23.064  0.00  0.00    -0.001 C 
ATOM     30  C   UNK A   1      34.115  -7.295 -23.253  0.00  0.00    +0.029 C 
ATOM     31  C   UNK A   1      31.950  -8.096 -22.538  0.00  0.00    +0.029 C 
ATOM     32  C   UNK A   1      32.887  -7.067 -22.631  0.00  0.00    +0.140 C 
ENDBRANCH  25  27
ENDBRANCH  24  25
ENDBRANCH  23  24
ENDBRANCH  18  23
ENDBRANCH   3  18
TORSDOF 14
ENDMDL
