MODEL 1
REMARK VINA RESULT:     -10.9      0.000      0.000
REMARK  Name = 5287438
REMARK  11 active torsions:
REMARK  status: ('A' for Active; 'I' for Inactive)
REMARK    1  A    between atoms: C_1  and  C_4
REMARK    2  A    between atoms: C_1  and  N_15
REMARK    3  A    between atoms: C_1  and  C_26
REMARK    4  A    between atoms: N_3  and  C_6
REMARK    5  A    between atoms: C_6  and  C_8
REMARK    6  A    between atoms: C_9  and  C_11
REMARK    7  A    between atoms: C_11  and  C_13
REMARK    8  A    between atoms: C_16  and  O_18
REMARK    9  A    between atoms: O_18  and  C_19
REMARK   10  A    between atoms: C_19  and  C_20
REMARK   11  A    between atoms: C_26  and  C_27
REMARK                            x       y       z     vdW  Elec       q    Type
REMARK                         _______ _______ _______ _____ _____    ______ ____
ROOT
ATOM      1  C   UNL     1      33.601 -23.726 -14.611  0.00  0.00    +0.155 C 
ENDROOT
BRANCH   1   4
ATOM      2  O   UNL     1      34.314 -24.663 -12.492  0.00  0.00    -0.273 OA
ATOM      3  N   UNL     1      35.762 -23.251 -13.634  0.00  0.00    -0.301 N 
ATOM      4  C   UNL     1      34.567 -23.934 -13.450  0.00  0.00    +0.241 C 
ATOM      5  H   UNL     1      35.862 -22.693 -14.439  0.00  0.00    +0.150 HD
BRANCH   3   6
ATOM      6  C   UNL     1      36.866 -23.317 -12.708  0.00  0.00    +0.094 C 
ATOM      7  C   UNL     1      36.365 -23.426 -11.273  0.00  0.00    +0.026 C 
BRANCH   6   8
ATOM      8  C   UNL     1      37.716 -24.498 -13.082  0.00  0.00    -0.004 C 
ATOM      9  C   UNL     1      37.998 -24.827 -14.349  0.00  0.00    +0.043 C 
BRANCH   9  11
ATOM     10  O   UNL     1      38.451 -27.147 -14.791  0.00  0.00    -0.283 OA
ATOM     11  C   UNL     1      38.845 -26.004 -14.639  0.00  0.00    +0.237 C 
BRANCH  11  13
ATOM     12  O   UNL     1      41.103 -26.513 -14.230  0.00  0.00    -0.280 OA
ATOM     13  C   UNL     1      40.315 -25.736 -14.741  0.00  0.00    +0.276 C 
ENDBRANCH  11  13
ENDBRANCH   9  11
ENDBRANCH   6   8
ENDBRANCH   3   6
ENDBRANCH   1   4
BRANCH   1  15
ATOM     14  O   UNL     1      33.215 -23.917 -17.483  0.00  0.00    -0.226 OA
ATOM     15  N   UNL     1      34.323 -23.031 -15.646  0.00  0.00    -0.264 N 
ATOM     16  C   UNL     1      34.069 -23.184 -16.995  0.00  0.00    +0.402 C 
ATOM     17  H   UNL     1      35.038 -22.410 -15.376  0.00  0.00    +0.153 HD
BRANCH  16  18
ATOM     18  O   UNL     1      34.918 -22.393 -17.718  0.00  0.00    -0.430 OA
BRANCH  18  19
ATOM     19  C   UNL     1      34.919 -22.610 -19.135  0.00  0.00    +0.237 C 
BRANCH  19  20
ATOM     20  C   UNL     1      34.549 -21.330 -19.825  0.00  0.00    +0.021 C 
ATOM     21  C   UNL     1      35.546 -20.524 -20.379  0.00  0.00    -0.001 C 
ATOM     22  C   UNL     1      33.212 -20.945 -19.914  0.00  0.00    -0.001 C 
ATOM     23  C   UNL     1      35.202 -19.334 -21.020  0.00  0.00    -0.000 C 
ATOM     24  C   UNL     1      32.870 -19.755 -20.555  0.00  0.00    -0.000 C 
ATOM     25  C   UNL     1      33.865 -18.949 -21.108  0.00  0.00    -0.000 C 
ENDBRANCH  19  20
ENDBRANCH  18  19
ENDBRANCH  16  18
ENDBRANCH   1  15
BRANCH   1  26
ATOM     26  C   UNL     1      32.366 -22.947 -14.143  0.00  0.00    +0.055 C 
BRANCH  26  27
ATOM     27  C   UNL     1      31.084 -23.467 -14.747  0.00  0.00    -0.020 C 
ATOM     28  C   UNL     1      30.505 -24.636 -14.253  0.00  0.00    -0.004 C 
ATOM     29  C   UNL     1      30.480 -22.780 -15.797  0.00  0.00    -0.004 C 
ATOM     30  C   UNL     1      29.321 -25.118 -14.810  0.00  0.00    -0.000 C 
ATOM     31  C   UNL     1      29.295 -23.260 -16.355  0.00  0.00    -0.000 C 
ATOM     32  C   UNL     1      28.716 -24.429 -15.861  0.00  0.00    -0.000 C 
ENDBRANCH  26  27
ENDBRANCH   1  26
TORSDOF 11
ENDMDL
MODEL 2
REMARK VINA RESULT:     -10.7      2.193      6.657
REMARK  Name = 5287438
REMARK  11 active torsions:
REMARK  status: ('A' for Active; 'I' for Inactive)
REMARK    1  A    between atoms: C_1  and  C_4
REMARK    2  A    between atoms: C_1  and  N_15
REMARK    3  A    between atoms: C_1  and  C_26
REMARK    4  A    between atoms: N_3  and  C_6
REMARK    5  A    between atoms: C_6  and  C_8
REMARK    6  A    between atoms: C_9  and  C_11
REMARK    7  A    between atoms: C_11  and  C_13
REMARK    8  A    between atoms: C_16  and  O_18
REMARK    9  A    between atoms: O_18  and  C_19
REMARK   10  A    between atoms: C_19  and  C_20
REMARK   11  A    between atoms: C_26  and  C_27
REMARK                            x       y       z     vdW  Elec       q    Type
REMARK                         _______ _______ _______ _____ _____    ______ ____
ROOT
ATOM      1  C   UNL     1      34.342 -23.474 -14.938  0.00  0.00    +0.155 C 
ENDROOT
BRANCH   1   4
ATOM      2  O   UNL     1      32.110 -22.532 -14.846  0.00  0.00    -0.273 OA
ATOM      3  N   UNL     1      32.376 -24.813 -14.496  0.00  0.00    -0.301 N 
ATOM      4  C   UNL     1      32.830 -23.524 -14.745  0.00  0.00    +0.241 C 
ATOM      5  H   UNL     1      33.040 -25.538 -14.434  0.00  0.00    +0.150 HD
BRANCH   3   6
ATOM      6  C   UNL     1      30.984 -25.146 -14.323  0.00  0.00    +0.094 C 
ATOM      7  C   UNL     1      30.470 -24.649 -12.977  0.00  0.00    +0.026 C 
BRANCH   6   8
ATOM      8  C   UNL     1      30.216 -24.534 -15.461  0.00  0.00    -0.004 C 
ATOM      9  C   UNL     1      28.887 -24.364 -15.442  0.00  0.00    +0.043 C 
BRANCH   9  11
ATOM     10  O   UNL     1      27.749 -24.351 -17.560  0.00  0.00    -0.283 OA
ATOM     11  C   UNL     1      28.201 -23.752 -16.599  0.00  0.00    +0.237 C 
BRANCH  11  13
ATOM     12  O   UNL     1      27.343 -21.702 -17.364  0.00  0.00    -0.280 OA
ATOM     13  C   UNL     1      28.072 -22.261 -16.563  0.00  0.00    +0.276 C 
ENDBRANCH  11  13
ENDBRANCH   9  11
ENDBRANCH   6   8
ENDBRANCH   3   6
ENDBRANCH   1   4
BRANCH   1  15
ATOM     14  O   UNL     1      36.580 -22.061 -16.133  0.00  0.00    -0.226 OA
ATOM     15  N   UNL     1      34.585 -23.229 -16.337  0.00  0.00    -0.264 N 
ATOM     16  C   UNL     1      35.683 -22.543 -16.817  0.00  0.00    +0.402 C 
ATOM     17  H   UNL     1      33.930 -23.571 -16.988  0.00  0.00    +0.153 HD
BRANCH  16  18
ATOM     18  O   UNL     1      35.627 -22.478 -18.181  0.00  0.00    -0.430 OA
BRANCH  18  19
ATOM     19  C   UNL     1      34.313 -22.409 -18.749  0.00  0.00    +0.237 C 
BRANCH  19  20
ATOM     20  C   UNL     1      34.242 -21.233 -19.677  0.00  0.00    +0.021 C 
ATOM     21  C   UNL     1      35.412 -20.711 -20.232  0.00  0.00    -0.001 C 
ATOM     22  C   UNL     1      33.009 -20.660 -19.986  0.00  0.00    -0.001 C 
ATOM     23  C   UNL     1      35.346 -19.617 -21.094  0.00  0.00    -0.000 C 
ATOM     24  C   UNL     1      32.944 -19.566 -20.849  0.00  0.00    -0.000 C 
ATOM     25  C   UNL     1      34.113 -19.044 -21.403  0.00  0.00    -0.000 C 
ENDBRANCH  19  20
ENDBRANCH  18  19
ENDBRANCH  16  18
ENDBRANCH   1  15
BRANCH   1  26
ATOM     26  C   UNL     1      34.983 -24.782 -14.459  0.00  0.00    +0.055 C 
BRANCH  26  27
ATOM     27  C   UNL     1      36.184 -24.553 -13.574  0.00  0.00    -0.020 C 
ATOM     28  C   UNL     1      37.143 -25.556 -13.428  0.00  0.00    -0.004 C 
ATOM     29  C   UNL     1      36.336 -23.341 -12.905  0.00  0.00    -0.004 C 
ATOM     30  C   UNL     1      38.253 -25.346 -12.611  0.00  0.00    -0.000 C 
ATOM     31  C   UNL     1      37.447 -23.129 -12.087  0.00  0.00    -0.000 C 
ATOM     32  C   UNL     1      38.405 -24.132 -11.941  0.00  0.00    -0.000 C 
ENDBRANCH  26  27
ENDBRANCH   1  26
TORSDOF 11
ENDMDL
MODEL 3
REMARK VINA RESULT:     -10.5      8.192     13.661
REMARK  Name = 5287438
REMARK  11 active torsions:
REMARK  status: ('A' for Active; 'I' for Inactive)
REMARK    1  A    between atoms: C_1  and  C_4
REMARK    2  A    between atoms: C_1  and  N_15
REMARK    3  A    between atoms: C_1  and  C_26
REMARK    4  A    between atoms: N_3  and  C_6
REMARK    5  A    between atoms: C_6  and  C_8
REMARK    6  A    between atoms: C_9  and  C_11
REMARK    7  A    between atoms: C_11  and  C_13
REMARK    8  A    between atoms: C_16  and  O_18
REMARK    9  A    between atoms: O_18  and  C_19
REMARK   10  A    between atoms: C_19  and  C_20
REMARK   11  A    between atoms: C_26  and  C_27
REMARK                            x       y       z     vdW  Elec       q    Type
REMARK                         _______ _______ _______ _____ _____    ______ ____
ROOT
ATOM      1  C   UNL     1      33.827 -14.254 -22.282  0.00  0.00    +0.155 C 
ENDROOT
BRANCH   1   4
ATOM      2  O   UNL     1      33.966 -14.501 -24.689  0.00  0.00    -0.273 OA
ATOM      3  N   UNL     1      34.263 -12.392 -23.763  0.00  0.00    -0.301 N 
ATOM      4  C   UNL     1      34.037 -13.762 -23.709  0.00  0.00    +0.241 C 
ATOM      5  H   UNL     1      34.301 -11.892 -22.915  0.00  0.00    +0.150 HD
BRANCH   3   6
ATOM      6  C   UNL     1      34.444 -11.664 -24.995  0.00  0.00    +0.094 C 
ATOM      7  C   UNL     1      33.272 -11.898 -25.941  0.00  0.00    +0.026 C 
BRANCH   6   8
ATOM      8  C   UNL     1      34.592 -10.208 -24.656  0.00  0.00    -0.004 C 
ATOM      9  C   UNL     1      33.883  -9.603 -23.694  0.00  0.00    +0.043 C 
BRANCH   9  11
ATOM     10  O   UNL     1      35.004  -7.480 -23.834  0.00  0.00    -0.283 OA
ATOM     11  C   UNL     1      34.086  -8.165 -23.416  0.00  0.00    +0.237 C 
BRANCH  11  13
ATOM     12  O   UNL     1      33.152  -7.641 -21.324  0.00  0.00    -0.280 OA
ATOM     13  C   UNL     1      33.061  -7.524 -22.534  0.00  0.00    +0.276 C 
ENDBRANCH  11  13
ENDBRANCH   9  11
ENDBRANCH   6   8
ENDBRANCH   3   6
ENDBRANCH   1   4
BRANCH   1  15
ATOM     14  O   UNL     1      34.898 -15.632 -19.960  0.00  0.00    -0.226 OA
ATOM     15  N   UNL     1      34.344 -15.597 -22.213  0.00  0.00    -0.264 N 
ATOM     16  C   UNL     1      34.835 -16.174 -21.059  0.00  0.00    +0.402 C 
ATOM     17  H   UNL     1      34.346 -16.135 -23.038  0.00  0.00    +0.153 HD
BRANCH  16  18
ATOM     18  O   UNL     1      35.249 -17.450 -21.319  0.00  0.00    -0.430 OA
BRANCH  18  19
ATOM     19  C   UNL     1      34.217 -18.382 -21.667  0.00  0.00    +0.237 C 
BRANCH  19  20
ATOM     20  C   UNL     1      34.377 -19.621 -20.836  0.00  0.00    +0.021 C 
ATOM     21  C   UNL     1      33.249 -20.286 -20.352  0.00  0.00    -0.001 C 
ATOM     22  C   UNL     1      35.651 -20.108 -20.547  0.00  0.00    -0.001 C 
ATOM     23  C   UNL     1      33.398 -21.437 -19.579  0.00  0.00    -0.000 C 
ATOM     24  C   UNL     1      35.799 -21.260 -19.775  0.00  0.00    -0.000 C 
ATOM     25  C   UNL     1      34.672 -21.925 -19.290  0.00  0.00    -0.000 C 
ENDBRANCH  19  20
ENDBRANCH  18  19
ENDBRANCH  16  18
ENDBRANCH   1  15
BRANCH   1  26
ATOM     26  C   UNL     1      32.342 -14.185 -21.908  0.00  0.00    +0.055 C 
BRANCH  26  27
ATOM     27  C   UNL     1      31.947 -12.848 -21.328  0.00  0.00    -0.020 C 
ATOM     28  C   UNL     1      32.117 -12.601 -19.966  0.00  0.00    -0.004 C 
ATOM     29  C   UNL     1      31.414 -11.860 -22.155  0.00  0.00    -0.004 C 
ATOM     30  C   UNL     1      31.752 -11.366 -19.430  0.00  0.00    -0.000 C 
ATOM     31  C   UNL     1      31.050 -10.625 -21.619  0.00  0.00    -0.000 C 
ATOM     32  C   UNL     1      31.220 -10.378 -20.257  0.00  0.00    -0.000 C 
ENDBRANCH  26  27
ENDBRANCH   1  26
TORSDOF 11
ENDMDL
MODEL 4
REMARK VINA RESULT:     -10.4      7.723     13.421
REMARK  Name = 5287438
REMARK  11 active torsions:
REMARK  status: ('A' for Active; 'I' for Inactive)
REMARK    1  A    between atoms: C_1  and  C_4
REMARK    2  A    between atoms: C_1  and  N_15
REMARK    3  A    between atoms: C_1  and  C_26
REMARK    4  A    between atoms: N_3  and  C_6
REMARK    5  A    between atoms: C_6  and  C_8
REMARK    6  A    between atoms: C_9  and  C_11
REMARK    7  A    between atoms: C_11  and  C_13
REMARK    8  A    between atoms: C_16  and  O_18
REMARK    9  A    between atoms: O_18  and  C_19
REMARK   10  A    between atoms: C_19  and  C_20
REMARK   11  A    between atoms: C_26  and  C_27
REMARK                            x       y       z     vdW  Elec       q    Type
REMARK                         _______ _______ _______ _____ _____    ______ ____
ROOT
ATOM      1  C   UNL     1      33.305 -14.773 -22.216  0.00  0.00    +0.155 C 
ENDROOT
BRANCH   1   4
ATOM      2  O   UNL     1      32.246 -14.224 -20.106  0.00  0.00    -0.273 OA
ATOM      3  N   UNL     1      31.992 -12.767 -21.897  0.00  0.00    -0.301 N 
ATOM      4  C   UNL     1      32.452 -13.923 -21.280  0.00  0.00    +0.241 C 
ATOM      5  H   UNL     1      32.215 -12.623 -22.845  0.00  0.00    +0.150 HD
BRANCH   3   6
ATOM      6  C   UNL     1      31.204 -11.766 -21.221  0.00  0.00    +0.094 C 
ATOM      7  C   UNL     1      31.658 -11.602 -19.775  0.00  0.00    +0.026 C 
BRANCH   6   8
ATOM      8  C   UNL     1      31.334 -10.478 -21.984  0.00  0.00    -0.004 C 
ATOM      9  C   UNL     1      32.445 -10.127 -22.645  0.00  0.00    +0.043 C 
BRANCH   9  11
ATOM     10  O   UNL     1      31.567  -8.317 -23.963  0.00  0.00    -0.283 OA
ATOM     11  C   UNL     1      32.498  -8.844 -23.377  0.00  0.00    +0.237 C 
BRANCH  11  13
ATOM     12  O   UNL     1      34.827  -8.790 -23.688  0.00  0.00    -0.280 OA
ATOM     13  C   UNL     1      33.828  -8.158 -23.389  0.00  0.00    +0.276 C 
ENDBRANCH  11  13
ENDBRANCH   9  11
ENDBRANCH   6   8
ENDBRANCH   3   6
ENDBRANCH   1   4
BRANCH   1  15
ATOM     14  O   UNL     1      34.601 -17.229 -23.067  0.00  0.00    -0.226 OA
ATOM     15  N   UNL     1      34.015 -15.725 -21.400  0.00  0.00    -0.264 N 
ATOM     16  C   UNL     1      34.604 -16.872 -21.894  0.00  0.00    +0.402 C 
ATOM     17  H   UNL     1      34.085 -15.545 -20.434  0.00  0.00    +0.153 HD
BRANCH  16  18
ATOM     18  O   UNL     1      35.197 -17.563 -20.874  0.00  0.00    -0.430 OA
BRANCH  18  19
ATOM     19  C   UNL     1      35.863 -18.776 -21.247  0.00  0.00    +0.237 C 
BRANCH  19  20
ATOM     20  C   UNL     1      35.201 -19.930 -20.551  0.00  0.00    +0.021 C 
ATOM     21  C   UNL     1      35.978 -20.890 -19.902  0.00  0.00    -0.001 C 
ATOM     22  C   UNL     1      33.812 -20.043 -20.554  0.00  0.00    -0.001 C 
ATOM     23  C   UNL     1      35.364 -21.963 -19.256  0.00  0.00    -0.000 C 
ATOM     24  C   UNL     1      33.198 -21.116 -19.908  0.00  0.00    -0.000 C 
ATOM     25  C   UNL     1      33.974 -22.077 -19.259  0.00  0.00    -0.000 C 
ENDBRANCH  19  20
ENDBRANCH  18  19
ENDBRANCH  16  18
ENDBRANCH   1  15
BRANCH   1  26
ATOM     26  C   UNL     1      34.253 -13.883 -23.027  0.00  0.00    +0.055 C 
BRANCH  26  27
ATOM     27  C   UNL     1      33.813 -13.715 -24.462  0.00  0.00    -0.020 C 
ATOM     28  C   UNL     1      33.316 -14.808 -25.170  0.00  0.00    -0.004 C 
ATOM     29  C   UNL     1      33.903 -12.468 -25.077  0.00  0.00    -0.004 C 
ATOM     30  C   UNL     1      32.909 -14.654 -26.495  0.00  0.00    -0.000 C 
ATOM     31  C   UNL     1      33.496 -12.313 -26.402  0.00  0.00    -0.000 C 
ATOM     32  C   UNL     1      32.999 -13.406 -27.111  0.00  0.00    -0.000 C 
ENDBRANCH  26  27
ENDBRANCH   1  26
TORSDOF 11
ENDMDL
MODEL 5
REMARK VINA RESULT:     -10.1      7.967     13.049
REMARK  Name = 5287438
REMARK  11 active torsions:
REMARK  status: ('A' for Active; 'I' for Inactive)
REMARK    1  A    between atoms: C_1  and  C_4
REMARK    2  A    between atoms: C_1  and  N_15
REMARK    3  A    between atoms: C_1  and  C_26
REMARK    4  A    between atoms: N_3  and  C_6
REMARK    5  A    between atoms: C_6  and  C_8
REMARK    6  A    between atoms: C_9  and  C_11
REMARK    7  A    between atoms: C_11  and  C_13
REMARK    8  A    between atoms: C_16  and  O_18
REMARK    9  A    between atoms: O_18  and  C_19
REMARK   10  A    between atoms: C_19  and  C_20
REMARK   11  A    between atoms: C_26  and  C_27
REMARK                            x       y       z     vdW  Elec       q    Type
REMARK                         _______ _______ _______ _____ _____    ______ ____
ROOT
ATOM      1  C   UNL     1      34.123 -16.505 -22.723  0.00  0.00    +0.155 C 
ENDROOT
BRANCH   1   4
ATOM      2  O   UNL     1      34.877 -16.923 -24.989  0.00  0.00    -0.273 OA
ATOM      3  N   UNL     1      33.669 -14.988 -24.551  0.00  0.00    -0.301 N 
ATOM      4  C   UNL     1      34.292 -16.180 -24.203  0.00  0.00    +0.241 C 
ATOM      5  H   UNL     1      33.227 -14.467 -23.841  0.00  0.00    +0.150 HD
BRANCH   3   6
ATOM      6  C   UNL     1      33.635 -14.473 -25.897  0.00  0.00    +0.094 C 
ATOM      7  C   UNL     1      32.386 -14.949 -26.629  0.00  0.00    +0.026 C 
BRANCH   6   8
ATOM      8  C   UNL     1      33.687 -12.973 -25.822  0.00  0.00    -0.004 C 
ATOM      9  C   UNL     1      33.973 -12.305 -24.697  0.00  0.00    +0.043 C 
BRANCH   9  11
ATOM     10  O   UNL     1      33.090 -10.089 -24.386  0.00  0.00    -0.283 OA
ATOM     11  C   UNL     1      34.009 -10.827 -24.702  0.00  0.00    +0.237 C 
BRANCH  11  13
ATOM     12  O   UNL     1      35.660 -10.343 -26.303  0.00  0.00    -0.280 OA
ATOM     13  C   UNL     1      35.299 -10.210 -25.146  0.00  0.00    +0.276 C 
ENDBRANCH  11  13
ENDBRANCH   9  11
ENDBRANCH   6   8
ENDBRANCH   3   6
ENDBRANCH   1   4
BRANCH   1  15
ATOM     14  O   UNL     1      31.930 -16.100 -20.863  0.00  0.00    -0.226 OA
ATOM     15  N   UNL     1      33.744 -15.285 -22.058  0.00  0.00    -0.264 N 
ATOM     16  C   UNL     1      32.680 -15.184 -21.184  0.00  0.00    +0.402 C 
ATOM     17  H   UNL     1      34.276 -14.475 -22.237  0.00  0.00    +0.153 HD
BRANCH  16  18
ATOM     18  O   UNL     1      32.580 -13.902 -20.722  0.00  0.00    -0.430 OA
BRANCH  18  19
ATOM     19  C   UNL     1      31.903 -12.979 -21.585  0.00  0.00    +0.237 C 
BRANCH  19  20
ATOM     20  C   UNL     1      31.827 -11.642 -20.907  0.00  0.00    +0.021 C 
ATOM     21  C   UNL     1      31.908 -10.472 -21.664  0.00  0.00    -0.001 C 
ATOM     22  C   UNL     1      31.675 -11.569 -19.523  0.00  0.00    -0.001 C 
ATOM     23  C   UNL     1      31.838  -9.229 -21.034  0.00  0.00    -0.000 C 
ATOM     24  C   UNL     1      31.604 -10.326 -18.895  0.00  0.00    -0.000 C 
ATOM     25  C   UNL     1      31.686  -9.156 -19.650  0.00  0.00    -0.000 C 
ENDBRANCH  19  20
ENDBRANCH  18  19
ENDBRANCH  16  18
ENDBRANCH   1  15
BRANCH   1  26
ATOM     26  C   UNL     1      35.420 -17.095 -22.156  0.00  0.00    +0.055 C 
BRANCH  26  27
ATOM     27  C   UNL     1      35.202 -18.405 -21.439  0.00  0.00    -0.020 C 
ATOM     28  C   UNL     1      33.907 -18.888 -21.249  0.00  0.00    -0.004 C 
ATOM     29  C   UNL     1      36.293 -19.133 -20.969  0.00  0.00    -0.004 C 
ATOM     30  C   UNL     1      33.704 -20.098 -20.586  0.00  0.00    -0.000 C 
ATOM     31  C   UNL     1      36.091 -20.344 -20.306  0.00  0.00    -0.000 C 
ATOM     32  C   UNL     1      34.796 -20.826 -20.116  0.00  0.00    -0.000 C 
ENDBRANCH  26  27
ENDBRANCH   1  26
TORSDOF 11
ENDMDL
MODEL 6
REMARK VINA RESULT:     -10.0      1.419      5.376
REMARK  Name = 5287438
REMARK  11 active torsions:
REMARK  status: ('A' for Active; 'I' for Inactive)
REMARK    1  A    between atoms: C_1  and  C_4
REMARK    2  A    between atoms: C_1  and  N_15
REMARK    3  A    between atoms: C_1  and  C_26
REMARK    4  A    between atoms: N_3  and  C_6
REMARK    5  A    between atoms: C_6  and  C_8
REMARK    6  A    between atoms: C_9  and  C_11
REMARK    7  A    between atoms: C_11  and  C_13
REMARK    8  A    between atoms: C_16  and  O_18
REMARK    9  A    between atoms: O_18  and  C_19
REMARK   10  A    between atoms: C_19  and  C_20
REMARK   11  A    between atoms: C_26  and  C_27
REMARK                            x       y       z     vdW  Elec       q    Type
REMARK                         _______ _______ _______ _____ _____    ______ ____
ROOT
ATOM      1  C   UNL     1      33.902 -22.950 -16.751  0.00  0.00    +0.155 C 
ENDROOT
BRANCH   1   4
ATOM      2  O   UNL     1      36.320 -22.833 -16.628  0.00  0.00    -0.273 OA
ATOM      3  N   UNL     1      35.127 -23.359 -14.706  0.00  0.00    -0.301 N 
ATOM      4  C   UNL     1      35.254 -23.050 -16.054  0.00  0.00    +0.241 C 
ATOM      5  H   UNL     1      34.223 -23.514 -14.346  0.00  0.00    +0.150 HD
BRANCH   3   6
ATOM      6  C   UNL     1      36.248 -23.466 -13.806  0.00  0.00    +0.094 C 
ATOM      7  C   UNL     1      35.780 -23.493 -12.356  0.00  0.00    +0.026 C 
BRANCH   6   8
ATOM      8  C   UNL     1      37.010 -24.712 -14.158  0.00  0.00    -0.004 C 
ATOM      9  C   UNL     1      38.348 -24.774 -14.174  0.00  0.00    +0.043 C 
BRANCH   9  11
ATOM     10  O   UNL     1      38.489 -27.122 -14.673  0.00  0.00    -0.283 OA
ATOM     11  C   UNL     1      39.028 -26.038 -14.528  0.00  0.00    +0.237 C 
BRANCH  11  13
ATOM     12  O   UNL     1      41.073 -24.880 -14.540  0.00  0.00    -0.280 OA
ATOM     13  C   UNL     1      40.511 -25.948 -14.712  0.00  0.00    +0.276 C 
ENDBRANCH  11  13
ENDBRANCH   9  11
ENDBRANCH   6   8
ENDBRANCH   3   6
ENDBRANCH   1   4
BRANCH   1  15
ATOM     14  O   UNL     1      32.267 -22.404 -14.413  0.00  0.00    -0.226 OA
ATOM     15  N   UNL     1      33.004 -23.850 -16.072  0.00  0.00    -0.264 N 
ATOM     16  C   UNL     1      32.262 -23.502 -14.961  0.00  0.00    +0.402 C 
ATOM     17  H   UNL     1      32.915 -24.766 -16.422  0.00  0.00    +0.153 HD
BRANCH  16  18
ATOM     18  O   UNL     1      31.513 -24.569 -14.553  0.00  0.00    -0.430 OA
BRANCH  18  19
ATOM     19  C   UNL     1      30.221 -24.257 -14.017  0.00  0.00    +0.237 C 
BRANCH  19  20
ATOM     20  C   UNL     1      29.326 -23.803 -15.132  0.00  0.00    +0.021 C 
ATOM     21  C   UNL     1      28.822 -22.502 -15.136  0.00  0.00    -0.001 C 
ATOM     22  C   UNL     1      28.997 -24.681 -16.164  0.00  0.00    -0.001 C 
ATOM     23  C   UNL     1      27.989 -22.080 -16.173  0.00  0.00    -0.000 C 
ATOM     24  C   UNL     1      28.164 -24.259 -17.200  0.00  0.00    -0.000 C 
ATOM     25  C   UNL     1      27.660 -22.958 -17.205  0.00  0.00    -0.000 C 
ENDBRANCH  19  20
ENDBRANCH  18  19
ENDBRANCH  16  18
ENDBRANCH   1  15
BRANCH   1  26
ATOM     26  C   UNL     1      34.044 -23.287 -18.240  0.00  0.00    +0.055 C 
BRANCH  26  27
ATOM     27  C   UNL     1      34.103 -22.057 -19.114  0.00  0.00    -0.020 C 
ATOM     28  C   UNL     1      35.329 -21.615 -19.611  0.00  0.00    -0.004 C 
ATOM     29  C   UNL     1      32.934 -21.365 -19.424  0.00  0.00    -0.004 C 
ATOM     30  C   UNL     1      35.385 -20.479 -20.418  0.00  0.00    -0.000 C 
ATOM     31  C   UNL     1      32.989 -20.229 -20.231  0.00  0.00    -0.000 C 
ATOM     32  C   UNL     1      34.215 -19.787 -20.729  0.00  0.00    -0.000 C 
ENDBRANCH  26  27
ENDBRANCH   1  26
TORSDOF 11
ENDMDL
MODEL 7
REMARK VINA RESULT:      -9.8      2.252      5.996
REMARK  Name = 5287438
REMARK  11 active torsions:
REMARK  status: ('A' for Active; 'I' for Inactive)
REMARK    1  A    between atoms: C_1  and  C_4
REMARK    2  A    between atoms: C_1  and  N_15
REMARK    3  A    between atoms: C_1  and  C_26
REMARK    4  A    between atoms: N_3  and  C_6
REMARK    5  A    between atoms: C_6  and  C_8
REMARK    6  A    between atoms: C_9  and  C_11
REMARK    7  A    between atoms: C_11  and  C_13
REMARK    8  A    between atoms: C_16  and  O_18
REMARK    9  A    between atoms: O_18  and  C_19
REMARK   10  A    between atoms: C_19  and  C_20
REMARK   11  A    between atoms: C_26  and  C_27
REMARK                            x       y       z     vdW  Elec       q    Type
REMARK                         _______ _______ _______ _____ _____    ______ ____
ROOT
ATOM      1  C   UNL     1      33.318 -23.093 -16.898  0.00  0.00    +0.155 C 
ENDROOT
BRANCH   1   4
ATOM      2  O   UNL     1      34.557 -24.861 -15.796  0.00  0.00    -0.273 OA
ATOM      3  N   UNL     1      35.602 -22.818 -16.152  0.00  0.00    -0.301 N 
ATOM      4  C   UNL     1      34.533 -23.703 -16.208  0.00  0.00    +0.241 C 
ATOM      5  H   UNL     1      35.476 -21.909 -16.512  0.00  0.00    +0.150 HD
BRANCH   3   6
ATOM      6  C   UNL     1      36.887 -23.158 -15.594  0.00  0.00    +0.094 C 
ATOM      7  C   UNL     1      38.002 -22.386 -16.289  0.00  0.00    +0.026 C 
BRANCH   6   8
ATOM      8  C   UNL     1      36.849 -22.859 -14.122  0.00  0.00    -0.004 C 
ATOM      9  C   UNL     1      36.902 -23.809 -13.179  0.00  0.00    +0.043 C 
BRANCH   9  11
ATOM     10  O   UNL     1      37.587 -22.621 -11.203  0.00  0.00    -0.283 OA
ATOM     11  C   UNL     1      36.863 -23.436 -11.749  0.00  0.00    +0.237 C 
BRANCH  11  13
ATOM     12  O   UNL     1      36.014 -24.270  -9.722  0.00  0.00    -0.280 OA
ATOM     13  C   UNL     1      35.836 -24.146 -10.922  0.00  0.00    +0.276 C 
ENDBRANCH  11  13
ENDBRANCH   9  11
ENDBRANCH   6   8
ENDBRANCH   3   6
ENDBRANCH   1   4
BRANCH   1  15
ATOM     14  O   UNL     1      31.957 -22.257 -14.472  0.00  0.00    -0.226 OA
ATOM     15  N   UNL     1      32.147 -23.679 -16.296  0.00  0.00    -0.264 N 
ATOM     16  C   UNL     1      31.565 -23.212 -15.134  0.00  0.00    +0.402 C 
ATOM     17  H   UNL     1      31.738 -24.457 -16.740  0.00  0.00    +0.153 HD
BRANCH  16  18
ATOM     18  O   UNL     1      30.475 -23.976 -14.824  0.00  0.00    -0.430 OA
BRANCH  18  19
ATOM     19  C   UNL     1      29.732 -24.486 -15.938  0.00  0.00    +0.237 C 
BRANCH  19  20
ATOM     20  C   UNL     1      28.591 -23.557 -16.231  0.00  0.00    +0.021 C 
ATOM     21  C   UNL     1      27.957 -22.882 -15.188  0.00  0.00    -0.001 C 
ATOM     22  C   UNL     1      28.164 -23.369 -17.545  0.00  0.00    -0.001 C 
ATOM     23  C   UNL     1      26.895 -22.019 -15.460  0.00  0.00    -0.000 C 
ATOM     24  C   UNL     1      27.103 -22.506 -17.817  0.00  0.00    -0.000 C 
ATOM     25  C   UNL     1      26.468 -21.830 -16.774  0.00  0.00    -0.000 C 
ENDBRANCH  19  20
ENDBRANCH  18  19
ENDBRANCH  16  18
ENDBRANCH   1  15
BRANCH   1  26
ATOM     26  C   UNL     1      33.381 -23.346 -18.409  0.00  0.00    +0.055 C 
BRANCH  26  27
ATOM     27  C   UNL     1      33.845 -22.137 -19.184  0.00  0.00    -0.020 C 
ATOM     28  C   UNL     1      32.915 -21.206 -19.647  0.00  0.00    -0.004 C 
ATOM     29  C   UNL     1      35.203 -21.950 -19.437  0.00  0.00    -0.004 C 
ATOM     30  C   UNL     1      33.343 -20.089 -20.364  0.00  0.00    -0.000 C 
ATOM     31  C   UNL     1      35.632 -20.833 -20.153  0.00  0.00    -0.000 C 
ATOM     32  C   UNL     1      34.702 -19.902 -20.616  0.00  0.00    -0.000 C 
ENDBRANCH  26  27
ENDBRANCH   1  26
TORSDOF 11
ENDMDL
MODEL 8
REMARK VINA RESULT:      -9.8      4.634     10.641
REMARK  Name = 5287438
REMARK  11 active torsions:
REMARK  status: ('A' for Active; 'I' for Inactive)
REMARK    1  A    between atoms: C_1  and  C_4
REMARK    2  A    between atoms: C_1  and  N_15
REMARK    3  A    between atoms: C_1  and  C_26
REMARK    4  A    between atoms: N_3  and  C_6
REMARK    5  A    between atoms: C_6  and  C_8
REMARK    6  A    between atoms: C_9  and  C_11
REMARK    7  A    between atoms: C_11  and  C_13
REMARK    8  A    between atoms: C_16  and  O_18
REMARK    9  A    between atoms: O_18  and  C_19
REMARK   10  A    between atoms: C_19  and  C_20
REMARK   11  A    between atoms: C_26  and  C_27
REMARK                            x       y       z     vdW  Elec       q    Type
REMARK                         _______ _______ _______ _____ _____    ______ ____
ROOT
ATOM      1  C   UNL     1      34.819 -18.942 -20.770  0.00  0.00    +0.155 C 
ENDROOT
BRANCH   1   4
ATOM      2  O   UNL     1      36.759 -18.682 -22.199  0.00  0.00    -0.273 OA
ATOM      3  N   UNL     1      34.681 -19.002 -23.184  0.00  0.00    -0.301 N 
ATOM      4  C   UNL     1      35.544 -18.842 -22.108  0.00  0.00    +0.241 C 
ATOM      5  H   UNL     1      33.721 -19.125 -22.999  0.00  0.00    +0.150 HD
BRANCH   3   6
ATOM      6  C   UNL     1      35.116 -19.000 -24.559  0.00  0.00    +0.094 C 
ATOM      7  C   UNL     1      34.763 -20.315 -25.242  0.00  0.00    +0.026 C 
BRANCH   6   8
ATOM      8  C   UNL     1      34.467 -17.833 -25.249  0.00  0.00    -0.004 C 
ATOM      9  C   UNL     1      34.316 -16.632 -24.675  0.00  0.00    +0.043 C 
BRANCH   9  11
ATOM     10  O   UNL     1      33.565 -15.453 -26.631  0.00  0.00    -0.283 OA
ATOM     11  C   UNL     1      33.670 -15.531 -25.419  0.00  0.00    +0.237 C 
BRANCH  11  13
ATOM     12  O   UNL     1      33.746 -13.390 -24.451  0.00  0.00    -0.280 OA
ATOM     13  C   UNL     1      33.111 -14.423 -24.582  0.00  0.00    +0.276 C 
ENDBRANCH  11  13
ENDBRANCH   9  11
ENDBRANCH   6   8
ENDBRANCH   3   6
ENDBRANCH   1   4
BRANCH   1  15
ATOM     14  O   UNL     1      36.718 -20.429 -19.152  0.00  0.00    -0.226 OA
ATOM     15  N   UNL     1      34.772 -20.337 -20.413  0.00  0.00    -0.264 N 
ATOM     16  C   UNL     1      35.725 -20.964 -19.634  0.00  0.00    +0.402 C 
ATOM     17  H   UNL     1      34.017 -20.875 -20.744  0.00  0.00    +0.153 HD
BRANCH  16  18
ATOM     18  O   UNL     1      35.400 -22.282 -19.476  0.00  0.00    -0.430 OA
BRANCH  18  19
ATOM     19  C   UNL     1      34.007 -22.563 -19.292  0.00  0.00    +0.237 C 
BRANCH  19  20
ATOM     20  C   UNL     1      33.756 -22.864 -17.844  0.00  0.00    +0.021 C 
ATOM     21  C   UNL     1      32.450 -23.047 -17.386  0.00  0.00    -0.001 C 
ATOM     22  C   UNL     1      34.826 -22.961 -16.955  0.00  0.00    -0.001 C 
ATOM     23  C   UNL     1      32.217 -23.326 -16.039  0.00  0.00    -0.000 C 
ATOM     24  C   UNL     1      34.593 -23.241 -15.609  0.00  0.00    -0.000 C 
ATOM     25  C   UNL     1      33.288 -23.423 -15.151  0.00  0.00    -0.000 C 
ENDBRANCH  19  20
ENDBRANCH  18  19
ENDBRANCH  16  18
ENDBRANCH   1  15
BRANCH   1  26
ATOM     26  C   UNL     1      33.420 -18.324 -20.875  0.00  0.00    +0.055 C 
BRANCH  26  27
ATOM     27  C   UNL     1      33.448 -16.815 -20.890  0.00  0.00    -0.020 C 
ATOM     28  C   UNL     1      32.254 -16.096 -20.946  0.00  0.00    -0.004 C 
ATOM     29  C   UNL     1      34.667 -16.140 -20.848  0.00  0.00    -0.004 C 
ATOM     30  C   UNL     1      32.279 -14.701 -20.960  0.00  0.00    -0.000 C 
ATOM     31  C   UNL     1      34.693 -14.746 -20.862  0.00  0.00    -0.000 C 
ATOM     32  C   UNL     1      33.499 -14.026 -20.918  0.00  0.00    -0.000 C 
ENDBRANCH  26  27
ENDBRANCH   1  26
TORSDOF 11
ENDMDL
MODEL 9
REMARK VINA RESULT:      -9.6      9.514     15.147
REMARK  Name = 5287438
REMARK  11 active torsions:
REMARK  status: ('A' for Active; 'I' for Inactive)
REMARK    1  A    between atoms: C_1  and  C_4
REMARK    2  A    between atoms: C_1  and  N_15
REMARK    3  A    between atoms: C_1  and  C_26
REMARK    4  A    between atoms: N_3  and  C_6
REMARK    5  A    between atoms: C_6  and  C_8
REMARK    6  A    between atoms: C_9  and  C_11
REMARK    7  A    between atoms: C_11  and  C_13
REMARK    8  A    between atoms: C_16  and  O_18
REMARK    9  A    between atoms: O_18  and  C_19
REMARK   10  A    between atoms: C_19  and  C_20
REMARK   11  A    between atoms: C_26  and  C_27
REMARK                            x       y       z     vdW  Elec       q    Type
REMARK                         _______ _______ _______ _____ _____    ______ ____
ROOT
ATOM      1  C   UNL     1      32.386 -12.607 -22.488  0.00  0.00    +0.155 C 
ENDROOT
BRANCH   1   4
ATOM      2  O   UNL     1      30.737 -11.679 -20.973  0.00  0.00    -0.273 OA
ATOM      3  N   UNL     1      32.213 -10.237 -22.039  0.00  0.00    -0.301 N 
ATOM      4  C   UNL     1      31.666 -11.481 -21.755  0.00  0.00    +0.241 C 
ATOM      5  H   UNL     1      32.957 -10.190 -22.683  0.00  0.00    +0.150 HD
BRANCH   3   6
ATOM      6  C   UNL     1      31.750  -9.009 -21.441  0.00  0.00    +0.094 C 
ATOM      7  C   UNL     1      32.260  -8.877 -20.010  0.00  0.00    +0.026 C 
BRANCH   6   8
ATOM      8  C   UNL     1      32.222  -7.868 -22.297  0.00  0.00    -0.004 C 
ATOM      9  C   UNL     1      31.563  -7.446 -23.384  0.00  0.00    +0.043 C 
BRANCH   9  11
ATOM     10  O   UNL     1      33.142  -6.298 -24.788  0.00  0.00    -0.283 OA
ATOM     11  C   UNL     1      32.088  -6.313 -24.176  0.00  0.00    +0.237 C 
BRANCH  11  13
ATOM     12  O   UNL     1      30.546  -4.811 -23.231  0.00  0.00    -0.280 OA
ATOM     13  C   UNL     1      31.229  -5.087 -24.203  0.00  0.00    +0.276 C 
ENDBRANCH  11  13
ENDBRANCH   9  11
ENDBRANCH   6   8
ENDBRANCH   3   6
ENDBRANCH   1   4
BRANCH   1  15
ATOM     14  O   UNL     1      31.780 -15.343 -21.725  0.00  0.00    -0.226 OA
ATOM     15  N   UNL     1      33.045 -13.412 -21.491  0.00  0.00    -0.264 N 
ATOM     16  C   UNL     1      32.688 -14.712 -21.194  0.00  0.00    +0.402 C 
ATOM     17  H   UNL     1      33.795 -13.012 -20.994  0.00  0.00    +0.153 HD
BRANCH  16  18
ATOM     18  O   UNL     1      33.499 -15.201 -20.209  0.00  0.00    -0.430 OA
BRANCH  18  19
ATOM     19  C   UNL     1      34.843 -15.508 -20.602  0.00  0.00    +0.237 C 
BRANCH  19  20
ATOM     20  C   UNL     1      34.816 -16.634 -21.594  0.00  0.00    +0.021 C 
ATOM     21  C   UNL     1      34.530 -17.932 -21.168  0.00  0.00    -0.001 C 
ATOM     22  C   UNL     1      35.076 -16.384 -22.941  0.00  0.00    -0.001 C 
ATOM     23  C   UNL     1      34.506 -18.978 -22.090  0.00  0.00    -0.000 C 
ATOM     24  C   UNL     1      35.051 -17.430 -23.863  0.00  0.00    -0.000 C 
ATOM     25  C   UNL     1      34.766 -18.728 -23.437  0.00  0.00    -0.000 C 
ENDBRANCH  19  20
ENDBRANCH  18  19
ENDBRANCH  16  18
ENDBRANCH   1  15
BRANCH   1  26
ATOM     26  C   UNL     1      33.371 -12.031 -23.512  0.00  0.00    +0.055 C 
BRANCH  26  27
ATOM     27  C   UNL     1      33.350 -12.775 -24.826  0.00  0.00    -0.020 C 
ATOM     28  C   UNL     1      33.671 -12.110 -26.009  0.00  0.00    -0.004 C 
ATOM     29  C   UNL     1      33.009 -14.126 -24.856  0.00  0.00    -0.004 C 
ATOM     30  C   UNL     1      33.651 -12.797 -27.223  0.00  0.00    -0.000 C 
ATOM     31  C   UNL     1      32.990 -14.814 -26.069  0.00  0.00    -0.000 C 
ATOM     32  C   UNL     1      33.311 -14.149 -27.252  0.00  0.00    -0.000 C 
ENDBRANCH  26  27
ENDBRANCH   1  26
TORSDOF 11
ENDMDL
