MODEL 1
REMARK VINA RESULT:      -9.8      0.000      0.000
REMARK  Name = 5311037
REMARK  6 active torsions:
REMARK  status: ('A' for Active; 'I' for Inactive)
REMARK    1  A    between atoms: N_3  and  C_13
REMARK    2  A    between atoms: N_5  and  C_15
REMARK    3  A    between atoms: C_11  and  C_17
REMARK    4  A    between atoms: C_18  and  C_19
REMARK    5  A    between atoms: C_22  and  O_25
REMARK    6  A    between atoms: C_23  and  O_27
REMARK                            x       y       z     vdW  Elec       q    Type
REMARK                         _______ _______ _______ _____ _____    ______ ____
ROOT
ATOM      1  O   UNL     1      32.493 -23.461 -17.097  0.00  0.00    -0.272 OA
ATOM      2  O   UNL     1      36.232 -23.885 -14.295  0.00  0.00    -0.252 OA
ATOM      3  N   UNL     1      36.478 -22.694 -16.279  0.00  0.00    -0.220 N 
ATOM      4  N   UNL     1      34.296 -21.895 -18.901  0.00  0.00    -0.269 N 
ATOM      5  N   UNL     1      34.352 -23.686 -15.678  0.00  0.00    -0.212 N 
ATOM      6  N   UNL     1      36.439 -21.499 -18.431  0.00  0.00    -0.374 NA
ATOM      7  C   UNL     1      34.541 -22.494 -17.698  0.00  0.00    +0.220 C 
ATOM      8  C   UNL     1      35.859 -22.238 -17.434  0.00  0.00    +0.196 C 
ATOM      9  C   UNL     1      33.674 -23.240 -16.843  0.00  0.00    +0.259 C 
ATOM     10  C   UNL     1      35.733 -23.451 -15.339  0.00  0.00    +0.318 C 
ATOM     11  C   UNL     1      35.469 -21.309 -19.301  0.00  0.00    +0.185 C 
ATOM     12  C   UNL     1      33.033 -21.886 -19.605  0.00  0.00    +0.115 C 
ENDROOT
BRANCH   3  13
ATOM     13  C   UNL     1      37.886 -22.397 -16.044  0.00  0.00    +0.102 C 
ATOM     14  C   UNL     1      38.700 -23.664 -15.882  0.00  0.00    +0.024 C 
ENDBRANCH   3  13
BRANCH   5  15
ATOM     15  C   UNL     1      33.568 -24.462 -14.722  0.00  0.00    +0.103 C 
ATOM     16  C   UNL     1      32.749 -23.564 -13.819  0.00  0.00    +0.024 C 
ENDBRANCH   5  15
BRANCH  11  17
ATOM     17  C   UNL     1      35.494 -20.612 -20.525  0.00  0.00    +0.048 C 
ATOM     18  C   UNL     1      34.763 -19.498 -20.786  0.00  0.00    +0.004 C 
BRANCH  18  19
ATOM     19  C   UNL     1      34.795 -18.741 -22.051  0.00  0.00    +0.003 C 
ATOM     20  C   UNL     1      34.997 -17.370 -22.014  0.00  0.00    +0.040 C 
ATOM     21  C   UNL     1      34.623 -19.413 -23.249  0.00  0.00    +0.003 C 
ATOM     22  C   UNL     1      35.028 -16.654 -23.210  0.00  0.00    +0.172 C 
ATOM     23  C   UNL     1      34.856 -17.317 -24.426  0.00  0.00    +0.172 C 
ATOM     24  C   UNL     1      34.654 -18.697 -24.445  0.00  0.00    +0.040 C 
BRANCH  22  25
ATOM     25  O   UNL     1      35.224 -15.306 -23.180  0.00  0.00    -0.468 OA
ATOM     26  C   UNL     1      34.187 -14.513 -22.606  0.00  0.00    +0.253 C 
ENDBRANCH  22  25
BRANCH  23  27
ATOM     27  O   UNL     1      34.886 -16.627 -25.600  0.00  0.00    -0.468 OA
ATOM     28  C   UNL     1      33.695 -15.941 -25.979  0.00  0.00    +0.253 C 
ENDBRANCH  23  27
ENDBRANCH  18  19
ENDBRANCH  11  17
TORSDOF 6
ENDMDL
MODEL 2
REMARK VINA RESULT:      -9.3      5.205     10.969
REMARK  Name = 5311037
REMARK  6 active torsions:
REMARK  status: ('A' for Active; 'I' for Inactive)
REMARK    1  A    between atoms: N_3  and  C_13
REMARK    2  A    between atoms: N_5  and  C_15
REMARK    3  A    between atoms: C_11  and  C_17
REMARK    4  A    between atoms: C_18  and  C_19
REMARK    5  A    between atoms: C_22  and  O_25
REMARK    6  A    between atoms: C_23  and  O_27
REMARK                            x       y       z     vdW  Elec       q    Type
REMARK                         _______ _______ _______ _____ _____    ______ ____
ROOT
ATOM      1  O   UNL     1      34.187 -11.674 -24.802  0.00  0.00    -0.272 OA
ATOM      2  O   UNL     1      31.414  -8.995 -22.129  0.00  0.00    -0.252 OA
ATOM      3  N   UNL     1      31.698 -11.225 -21.524  0.00  0.00    -0.220 N 
ATOM      4  N   UNL     1      33.526 -13.881 -22.892  0.00  0.00    -0.269 N 
ATOM      5  N   UNL     1      32.803 -10.313 -23.477  0.00  0.00    -0.212 N 
ATOM      6  N   UNL     1      32.181 -13.606 -21.136  0.00  0.00    -0.374 NA
ATOM      7  C   UNL     1      33.127 -12.575 -22.918  0.00  0.00    +0.220 C 
ATOM      8  C   UNL     1      32.304 -12.434 -21.833  0.00  0.00    +0.196 C 
ATOM      9  C   UNL     1      33.447 -11.528 -23.833  0.00  0.00    +0.259 C 
ATOM     10  C   UNL     1      31.929 -10.096 -22.352  0.00  0.00    +0.318 C 
ATOM     11  C   UNL     1      32.932 -14.460 -21.801  0.00  0.00    +0.185 C 
ATOM     12  C   UNL     1      34.412 -14.518 -23.843  0.00  0.00    +0.115 C 
ENDROOT
BRANCH   3  13
ATOM     13  C   UNL     1      30.828 -11.125 -20.360  0.00  0.00    +0.102 C 
ATOM     14  C   UNL     1      31.599 -10.705 -19.125  0.00  0.00    +0.024 C 
ENDBRANCH   3  13
BRANCH   5  15
ATOM     15  C   UNL     1      33.055  -9.163 -24.341  0.00  0.00    +0.103 C 
ATOM     16  C   UNL     1      34.280  -8.393 -23.896  0.00  0.00    +0.024 C 
ENDBRANCH   5  15
BRANCH  11  17
ATOM     17  C   UNL     1      33.181 -15.821 -21.538  0.00  0.00    +0.048 C 
ATOM     18  C   UNL     1      34.420 -16.361 -21.407  0.00  0.00    +0.004 C 
BRANCH  18  19
ATOM     19  C   UNL     1      34.700 -17.776 -21.105  0.00  0.00    +0.003 C 
ATOM     20  C   UNL     1      33.643 -18.657 -20.942  0.00  0.00    +0.040 C 
ATOM     21  C   UNL     1      36.015 -18.198 -20.991  0.00  0.00    +0.003 C 
ATOM     22  C   UNL     1      33.908 -19.996 -20.657  0.00  0.00    +0.172 C 
ATOM     23  C   UNL     1      35.227 -20.436 -20.539  0.00  0.00    +0.172 C 
ATOM     24  C   UNL     1      36.280 -19.537 -20.706  0.00  0.00    +0.040 C 
BRANCH  22  25
ATOM     25  O   UNL     1      32.872 -20.865 -20.494  0.00  0.00    -0.468 OA
ATOM     26  C   UNL     1      32.566 -21.265 -19.159  0.00  0.00    +0.253 C 
ENDBRANCH  22  25
BRANCH  23  27
ATOM     27  O   UNL     1      35.498 -21.742 -20.262  0.00  0.00    -0.468 OA
ATOM     28  C   UNL     1      36.030 -22.035 -18.972  0.00  0.00    +0.253 C 
ENDBRANCH  23  27
ENDBRANCH  18  19
ENDBRANCH  11  17
TORSDOF 6
ENDMDL
MODEL 3
REMARK VINA RESULT:      -9.3      6.757     10.595
REMARK  Name = 5311037
REMARK  6 active torsions:
REMARK  status: ('A' for Active; 'I' for Inactive)
REMARK    1  A    between atoms: N_3  and  C_13
REMARK    2  A    between atoms: N_5  and  C_15
REMARK    3  A    between atoms: C_11  and  C_17
REMARK    4  A    between atoms: C_18  and  C_19
REMARK    5  A    between atoms: C_22  and  O_25
REMARK    6  A    between atoms: C_23  and  O_27
REMARK                            x       y       z     vdW  Elec       q    Type
REMARK                         _______ _______ _______ _____ _____    ______ ____
ROOT
ATOM      1  O   UNL     1      34.213 -16.025 -26.227  0.00  0.00    -0.272 OA
ATOM      2  O   UNL     1      34.892 -17.823 -21.948  0.00  0.00    -0.252 OA
ATOM      3  N   UNL     1      34.301 -15.579 -22.112  0.00  0.00    -0.220 N 
ATOM      4  N   UNL     1      33.619 -13.455 -24.813  0.00  0.00    -0.269 N 
ATOM      5  N   UNL     1      34.557 -16.948 -24.094  0.00  0.00    -0.212 N 
ATOM      6  N   UNL     1      33.675 -13.248 -22.595  0.00  0.00    -0.374 NA
ATOM      7  C   UNL     1      33.960 -14.684 -24.323  0.00  0.00    +0.220 C 
ATOM      8  C   UNL     1      33.989 -14.529 -22.964  0.00  0.00    +0.196 C 
ATOM      9  C   UNL     1      34.242 -15.905 -25.005  0.00  0.00    +0.259 C 
ATOM     10  C   UNL     1      34.604 -16.853 -22.657  0.00  0.00    +0.318 C 
ATOM     11  C   UNL     1      33.457 -12.625 -23.734  0.00  0.00    +0.185 C 
ATOM     12  C   UNL     1      33.459 -13.111 -26.209  0.00  0.00    +0.115 C 
ENDROOT
BRANCH   3  13
ATOM     13  C   UNL     1      34.321 -15.363 -20.671  0.00  0.00    +0.102 C 
ATOM     14  C   UNL     1      32.919 -15.248 -20.108  0.00  0.00    +0.024 C 
ENDBRANCH   3  13
BRANCH   5  15
ATOM     15  C   UNL     1      34.864 -18.252 -24.673  0.00  0.00    +0.103 C 
ATOM     16  C   UNL     1      33.605 -18.991 -25.073  0.00  0.00    +0.024 C 
ENDBRANCH   5  15
BRANCH  11  17
ATOM     17  C   UNL     1      33.096 -11.283 -23.962  0.00  0.00    +0.048 C 
ATOM     18  C   UNL     1      33.870 -10.216 -23.638  0.00  0.00    +0.004 C 
BRANCH  18  19
ATOM     19  C   UNL     1      33.522  -8.807 -23.892  0.00  0.00    +0.003 C 
ATOM     20  C   UNL     1      32.257  -8.350 -23.556  0.00  0.00    +0.040 C 
ATOM     21  C   UNL     1      34.464  -7.967 -24.460  0.00  0.00    +0.003 C 
ATOM     22  C   UNL     1      31.927  -7.017 -23.795  0.00  0.00    +0.172 C 
ATOM     23  C   UNL     1      32.866  -6.157 -24.368  0.00  0.00    +0.172 C 
ATOM     24  C   UNL     1      34.134  -6.633 -24.700  0.00  0.00    +0.040 C 
BRANCH  22  25
ATOM     25  O   UNL     1      30.685  -6.564 -23.469  0.00  0.00    -0.468 OA
ATOM     26  C   UNL     1      30.549  -5.890 -22.218  0.00  0.00    +0.253 C 
ENDBRANCH  22  25
BRANCH  23  27
ATOM     27  O   UNL     1      32.555  -4.853 -24.605  0.00  0.00    -0.468 OA
ATOM     28  C   UNL     1      32.472  -4.444 -25.969  0.00  0.00    +0.253 C 
ENDBRANCH  23  27
ENDBRANCH  18  19
ENDBRANCH  11  17
TORSDOF 6
ENDMDL
MODEL 4
REMARK VINA RESULT:      -9.2      3.682     10.148
REMARK  Name = 5311037
REMARK  6 active torsions:
REMARK  status: ('A' for Active; 'I' for Inactive)
REMARK    1  A    between atoms: N_3  and  C_13
REMARK    2  A    between atoms: N_5  and  C_15
REMARK    3  A    between atoms: C_11  and  C_17
REMARK    4  A    between atoms: C_18  and  C_19
REMARK    5  A    between atoms: C_22  and  O_25
REMARK    6  A    between atoms: C_23  and  O_27
REMARK                            x       y       z     vdW  Elec       q    Type
REMARK                         _______ _______ _______ _____ _____    ______ ____
ROOT
ATOM      1  O   UNL     1      34.260 -16.275 -26.202  0.00  0.00    -0.272 OA
ATOM      2  O   UNL     1      33.257 -11.936 -24.726  0.00  0.00    -0.252 OA
ATOM      3  N   UNL     1      33.573 -13.594 -23.123  0.00  0.00    -0.220 N 
ATOM      4  N   UNL     1      34.328 -17.010 -23.302  0.00  0.00    -0.269 N 
ATOM      5  N   UNL     1      33.758 -14.094 -25.486  0.00  0.00    -0.212 N 
ATOM      6  N   UNL     1      33.953 -15.541 -21.667  0.00  0.00    -0.374 NA
ATOM      7  C   UNL     1      34.085 -15.812 -23.912  0.00  0.00    +0.220 C 
ATOM      8  C   UNL     1      33.858 -14.931 -22.890  0.00  0.00    +0.196 C 
ATOM      9  C   UNL     1      34.054 -15.470 -25.298  0.00  0.00    +0.259 C 
ATOM     10  C   UNL     1      33.510 -13.116 -24.457  0.00  0.00    +0.318 C 
ATOM     11  C   UNL     1      34.239 -16.795 -21.951  0.00  0.00    +0.185 C 
ATOM     12  C   UNL     1      34.626 -18.259 -23.968  0.00  0.00    +0.115 C 
ENDROOT
BRANCH   3  13
ATOM     13  C   UNL     1      33.335 -12.695 -22.001  0.00  0.00    +0.102 C 
ATOM     14  C   UNL     1      31.869 -12.655 -21.622  0.00  0.00    +0.024 C 
ENDBRANCH   3  13
BRANCH   5  15
ATOM     15  C   UNL     1      33.699 -13.621 -26.865  0.00  0.00    +0.103 C 
ATOM     16  C   UNL     1      32.269 -13.463 -27.337  0.00  0.00    +0.024 C 
ENDBRANCH   5  15
BRANCH  11  17
ATOM     17  C   UNL     1      34.451 -17.880 -21.078  0.00  0.00    +0.048 C 
ATOM     18  C   UNL     1      33.756 -19.045 -21.121  0.00  0.00    +0.004 C 
BRANCH  18  19
ATOM     19  C   UNL     1      33.982 -20.201 -20.234  0.00  0.00    +0.003 C 
ATOM     20  C   UNL     1      35.274 -20.508 -19.838  0.00  0.00    +0.040 C 
ATOM     21  C   UNL     1      32.900 -20.956 -19.815  0.00  0.00    +0.003 C 
ATOM     22  C   UNL     1      35.488 -21.601 -18.998  0.00  0.00    +0.172 C 
ATOM     23  C   UNL     1      34.408 -22.372 -18.567  0.00  0.00    +0.172 C 
ATOM     24  C   UNL     1      33.114 -22.049 -18.976  0.00  0.00    +0.040 C 
BRANCH  22  25
ATOM     25  O   UNL     1      36.756 -21.908 -18.607  0.00  0.00    -0.468 OA
ATOM     26  C   UNL     1      37.141 -21.515 -17.291  0.00  0.00    +0.253 C 
ENDBRANCH  22  25
BRANCH  23  27
ATOM     27  O   UNL     1      34.604 -23.441 -17.746  0.00  0.00    -0.468 OA
ATOM     28  C   UNL     1      33.965 -23.407 -16.473  0.00  0.00    +0.253 C 
ENDBRANCH  23  27
ENDBRANCH  18  19
ENDBRANCH  11  17
TORSDOF 6
ENDMDL
MODEL 5
REMARK VINA RESULT:      -9.2      7.610     11.927
REMARK  Name = 5311037
REMARK  6 active torsions:
REMARK  status: ('A' for Active; 'I' for Inactive)
REMARK    1  A    between atoms: N_3  and  C_13
REMARK    2  A    between atoms: N_5  and  C_15
REMARK    3  A    between atoms: C_11  and  C_17
REMARK    4  A    between atoms: C_18  and  C_19
REMARK    5  A    between atoms: C_22  and  O_25
REMARK    6  A    between atoms: C_23  and  O_27
REMARK                            x       y       z     vdW  Elec       q    Type
REMARK                         _______ _______ _______ _____ _____    ______ ____
ROOT
ATOM      1  O   UNL     1      32.411 -14.429 -20.017  0.00  0.00    -0.272 OA
ATOM      2  O   UNL     1      34.096 -16.212 -24.016  0.00  0.00    -0.252 OA
ATOM      3  N   UNL     1      33.414 -13.986 -24.010  0.00  0.00    -0.220 N 
ATOM      4  N   UNL     1      32.068 -11.883 -21.553  0.00  0.00    -0.269 N 
ATOM      5  N   UNL     1      33.259 -15.342 -22.008  0.00  0.00    -0.212 N 
ATOM      6  N   UNL     1      32.618 -11.678 -23.703  0.00  0.00    -0.374 NA
ATOM      7  C   UNL     1      32.552 -13.100 -21.941  0.00  0.00    +0.220 C 
ATOM      8  C   UNL     1      32.880 -12.947 -23.261  0.00  0.00    +0.196 C 
ATOM      9  C   UNL     1      32.712 -14.310 -21.202  0.00  0.00    +0.259 C 
ATOM     10  C   UNL     1      33.627 -15.249 -23.399  0.00  0.00    +0.318 C 
ATOM     11  C   UNL     1      32.129 -11.061 -22.648  0.00  0.00    +0.185 C 
ATOM     12  C   UNL     1      31.588 -11.541 -20.232  0.00  0.00    +0.115 C 
ENDROOT
BRANCH   3  13
ATOM     13  C   UNL     1      33.745 -13.775 -25.413  0.00  0.00    +0.102 C 
ATOM     14  C   UNL     1      32.689 -14.361 -26.327  0.00  0.00    +0.024 C 
ENDBRANCH   3  13
BRANCH   5  15
ATOM     15  C   UNL     1      33.472 -16.634 -21.362  0.00  0.00    +0.103 C 
ATOM     16  C   UNL     1      34.905 -16.793 -20.899  0.00  0.00    +0.024 C 
ENDBRANCH   5  15
BRANCH  11  17
ATOM     17  C   UNL     1      31.686  -9.729 -22.519  0.00  0.00    +0.048 C 
ATOM     18  C   UNL     1      32.200  -8.681 -23.212  0.00  0.00    +0.004 C 
BRANCH  18  19
ATOM     19  C   UNL     1      31.733  -7.287 -23.110  0.00  0.00    +0.003 C 
ATOM     20  C   UNL     1      31.619  -6.525 -24.262  0.00  0.00    +0.040 C 
ATOM     21  C   UNL     1      31.418  -6.766 -21.867  0.00  0.00    +0.003 C 
ATOM     22  C   UNL     1      31.177  -5.206 -24.166  0.00  0.00    +0.172 C 
ATOM     23  C   UNL     1      30.855  -4.666 -22.920  0.00  0.00    +0.172 C 
ATOM     24  C   UNL     1      30.976  -5.447 -21.770  0.00  0.00    +0.040 C 
BRANCH  22  25
ATOM     25  O   UNL     1      31.065  -4.452 -25.295  0.00  0.00    -0.468 OA
ATOM     26  C   UNL     1      32.251  -4.254 -26.063  0.00  0.00    +0.253 C 
ENDBRANCH  22  25
BRANCH  23  27
ATOM     27  O   UNL     1      30.421  -3.380 -22.814  0.00  0.00    -0.468 OA
ATOM     28  C   UNL     1      31.407  -2.353 -22.907  0.00  0.00    +0.253 C 
ENDBRANCH  23  27
ENDBRANCH  18  19
ENDBRANCH  11  17
TORSDOF 6
ENDMDL
MODEL 6
REMARK VINA RESULT:      -9.1      6.390     11.899
REMARK  Name = 5311037
REMARK  6 active torsions:
REMARK  status: ('A' for Active; 'I' for Inactive)
REMARK    1  A    between atoms: N_3  and  C_13
REMARK    2  A    between atoms: N_5  and  C_15
REMARK    3  A    between atoms: C_11  and  C_17
REMARK    4  A    between atoms: C_18  and  C_19
REMARK    5  A    between atoms: C_22  and  O_25
REMARK    6  A    between atoms: C_23  and  O_27
REMARK                            x       y       z     vdW  Elec       q    Type
REMARK                         _______ _______ _______ _____ _____    ______ ____
ROOT
ATOM      1  O   UNL     1      33.996  -8.618 -24.664  0.00  0.00    -0.272 OA
ATOM      2  O   UNL     1      31.456  -7.400 -20.912  0.00  0.00    -0.252 OA
ATOM      3  N   UNL     1      31.767  -9.667 -21.337  0.00  0.00    -0.220 N 
ATOM      4  N   UNL     1      33.464 -11.444 -23.834  0.00  0.00    -0.269 N 
ATOM      5  N   UNL     1      32.729  -7.984 -22.790  0.00  0.00    -0.212 N 
ATOM      6  N   UNL     1      32.259 -11.975 -22.035  0.00  0.00    -0.374 NA
ATOM      7  C   UNL     1      33.075 -10.261 -23.272  0.00  0.00    +0.220 C 
ATOM      8  C   UNL     1      32.338 -10.615 -22.174  0.00  0.00    +0.196 C 
ATOM      9  C   UNL     1      33.333  -8.916 -23.675  0.00  0.00    +0.259 C 
ATOM     10  C   UNL     1      31.944  -8.288 -21.620  0.00  0.00    +0.318 C 
ATOM     11  C   UNL     1      32.949 -12.446 -23.053  0.00  0.00    +0.185 C 
ATOM     12  C   UNL     1      34.270 -11.594 -25.026  0.00  0.00    +0.115 C 
ENDROOT
BRANCH   3  13
ATOM     13  C   UNL     1      30.989 -10.093 -20.181  0.00  0.00    +0.102 C 
ATOM     14  C   UNL     1      31.877 -10.369 -18.985  0.00  0.00    +0.024 C 
ENDBRANCH   3  13
BRANCH   5  15
ATOM     15  C   UNL     1      32.923  -6.571 -23.098  0.00  0.00    +0.103 C 
ATOM     16  C   UNL     1      31.857  -6.057 -24.043  0.00  0.00    +0.024 C 
ENDBRANCH   5  15
BRANCH  11  17
ATOM     17  C   UNL     1      33.207 -13.783 -23.413  0.00  0.00    +0.048 C 
ATOM     18  C   UNL     1      34.140 -14.570 -22.818  0.00  0.00    +0.004 C 
BRANCH  18  19
ATOM     19  C   UNL     1      34.406 -15.978 -23.163  0.00  0.00    +0.003 C 
ATOM     20  C   UNL     1      34.575 -16.904 -22.146  0.00  0.00    +0.040 C 
ATOM     21  C   UNL     1      34.481 -16.348 -24.495  0.00  0.00    +0.003 C 
ATOM     22  C   UNL     1      34.827 -18.237 -22.472  0.00  0.00    +0.172 C 
ATOM     23  C   UNL     1      34.905 -18.625 -23.809  0.00  0.00    +0.172 C 
ATOM     24  C   UNL     1      34.733 -17.680 -24.821  0.00  0.00    +0.040 C 
BRANCH  22  25
ATOM     25  O   UNL     1      34.995 -19.150 -21.476  0.00  0.00    -0.468 OA
ATOM     26  C   UNL     1      33.815 -19.730 -20.921  0.00  0.00    +0.253 C 
ENDBRANCH  22  25
BRANCH  23  27
ATOM     27  O   UNL     1      35.149 -19.924 -24.139  0.00  0.00    -0.468 OA
ATOM     28  C   UNL     1      34.781 -20.339 -25.453  0.00  0.00    +0.253 C 
ENDBRANCH  23  27
ENDBRANCH  18  19
ENDBRANCH  11  17
TORSDOF 6
ENDMDL
MODEL 7
REMARK VINA RESULT:      -9.0      4.129     10.312
REMARK  Name = 5311037
REMARK  6 active torsions:
REMARK  status: ('A' for Active; 'I' for Inactive)
REMARK    1  A    between atoms: N_3  and  C_13
REMARK    2  A    between atoms: N_5  and  C_15
REMARK    3  A    between atoms: C_11  and  C_17
REMARK    4  A    between atoms: C_18  and  C_19
REMARK    5  A    between atoms: C_22  and  O_25
REMARK    6  A    between atoms: C_23  and  O_27
REMARK                            x       y       z     vdW  Elec       q    Type
REMARK                         _______ _______ _______ _____ _____    ______ ____
ROOT
ATOM      1  O   UNL     1      32.320 -12.145 -21.227  0.00  0.00    -0.272 OA
ATOM      2  O   UNL     1      33.461 -12.082 -25.777  0.00  0.00    -0.252 OA
ATOM      3  N   UNL     1      33.683 -14.088 -24.619  0.00  0.00    -0.220 N 
ATOM      4  N   UNL     1      33.087 -15.037 -21.300  0.00  0.00    -0.269 N 
ATOM      5  N   UNL     1      32.885 -12.090 -23.507  0.00  0.00    -0.212 N 
ATOM      6  N   UNL     1      33.818 -16.054 -23.144  0.00  0.00    -0.374 NA
ATOM      7  C   UNL     1      33.091 -14.089 -22.283  0.00  0.00    +0.220 C 
ATOM      8  C   UNL     1      33.543 -14.737 -23.401  0.00  0.00    +0.196 C 
ATOM      9  C   UNL     1      32.724 -12.710 -22.240  0.00  0.00    +0.259 C 
ATOM     10  C   UNL     1      33.353 -12.713 -24.720  0.00  0.00    +0.318 C 
ATOM     11  C   UNL     1      33.532 -16.203 -21.868  0.00  0.00    +0.185 C 
ATOM     12  C   UNL     1      32.685 -14.835 -19.926  0.00  0.00    +0.115 C 
ENDROOT
BRANCH   3  13
ATOM     13  C   UNL     1      34.171 -14.821 -25.780  0.00  0.00    +0.102 C 
ATOM     14  C   UNL     1      33.043 -15.523 -26.508  0.00  0.00    +0.024 C 
ENDBRANCH   3  13
BRANCH   5  15
ATOM     15  C   UNL     1      32.538 -10.675 -23.590  0.00  0.00    +0.103 C 
ATOM     16  C   UNL     1      33.773  -9.798 -23.541  0.00  0.00    +0.024 C 
ENDBRANCH   5  15
BRANCH  11  17
ATOM     17  C   UNL     1      33.623 -17.355 -21.062  0.00  0.00    +0.048 C 
ATOM     18  C   UNL     1      34.002 -18.578 -21.515  0.00  0.00    +0.004 C 
BRANCH  18  19
ATOM     19  C   UNL     1      34.128 -19.788 -20.683  0.00  0.00    +0.003 C 
ATOM     20  C   UNL     1      35.378 -20.159 -20.212  0.00  0.00    +0.040 C 
ATOM     21  C   UNL     1      32.997 -20.529 -20.388  0.00  0.00    +0.003 C 
ATOM     22  C   UNL     1      35.498 -21.304 -19.425  0.00  0.00    +0.172 C 
ATOM     23  C   UNL     1      34.367 -22.062 -19.118  0.00  0.00    +0.172 C 
ATOM     24  C   UNL     1      33.116 -21.674 -19.600  0.00  0.00    +0.040 C 
BRANCH  22  25
ATOM     25  O   UNL     1      36.724 -21.674 -18.961  0.00  0.00    -0.468 OA
ATOM     26  C   UNL     1      37.002 -21.416 -17.586  0.00  0.00    +0.253 C 
ENDBRANCH  22  25
BRANCH  23  27
ATOM     27  O   UNL     1      34.472 -23.181 -18.349  0.00  0.00    -0.468 OA
ATOM     28  C   UNL     1      33.552 -23.313 -17.267  0.00  0.00    +0.253 C 
ENDBRANCH  23  27
ENDBRANCH  18  19
ENDBRANCH  11  17
TORSDOF 6
ENDMDL
MODEL 8
REMARK VINA RESULT:      -8.9      6.793     10.650
REMARK  Name = 5311037
REMARK  6 active torsions:
REMARK  status: ('A' for Active; 'I' for Inactive)
REMARK    1  A    between atoms: N_3  and  C_13
REMARK    2  A    between atoms: N_5  and  C_15
REMARK    3  A    between atoms: C_11  and  C_17
REMARK    4  A    between atoms: C_18  and  C_19
REMARK    5  A    between atoms: C_22  and  O_25
REMARK    6  A    between atoms: C_23  and  O_27
REMARK                            x       y       z     vdW  Elec       q    Type
REMARK                         _______ _______ _______ _____ _____    ______ ____
ROOT
ATOM      1  O   UNL     1      34.242 -16.106 -26.197  0.00  0.00    -0.272 OA
ATOM      2  O   UNL     1      34.952 -17.692 -21.839  0.00  0.00    -0.252 OA
ATOM      3  N   UNL     1      34.313 -15.470 -22.106  0.00  0.00    -0.220 N 
ATOM      4  N   UNL     1      33.590 -13.487 -24.902  0.00  0.00    -0.269 N 
ATOM      5  N   UNL     1      34.602 -16.922 -24.024  0.00  0.00    -0.212 N 
ATOM      6  N   UNL     1      33.638 -13.178 -22.696  0.00  0.00    -0.374 NA
ATOM      7  C   UNL     1      33.957 -14.684 -24.357  0.00  0.00    +0.220 C 
ATOM      8  C   UNL     1      33.980 -14.467 -23.006  0.00  0.00    +0.196 C 
ATOM      9  C   UNL     1      34.267 -15.929 -24.982  0.00  0.00    +0.259 C 
ATOM     10  C   UNL     1      34.644 -16.761 -22.592  0.00  0.00    +0.318 C 
ATOM     11  C   UNL     1      33.409 -12.613 -23.863  0.00  0.00    +0.185 C 
ATOM     12  C   UNL     1      33.426 -13.211 -26.313  0.00  0.00    +0.115 C 
ENDROOT
BRANCH   3  13
ATOM     13  C   UNL     1      34.325 -15.189 -20.677  0.00  0.00    +0.102 C 
ATOM     14  C   UNL     1      32.926 -15.199 -20.097  0.00  0.00    +0.024 C 
ENDBRANCH   3  13
BRANCH   5  15
ATOM     15  C   UNL     1      34.938 -18.244 -24.542  0.00  0.00    +0.103 C 
ATOM     16  C   UNL     1      33.698 -19.009 -24.957  0.00  0.00    +0.024 C 
ENDBRANCH   5  15
BRANCH  11  17
ATOM     17  C   UNL     1      33.020 -11.290 -24.152  0.00  0.00    +0.048 C 
ATOM     18  C   UNL     1      32.900 -10.307 -23.224  0.00  0.00    +0.004 C 
BRANCH  18  19
ATOM     19  C   UNL     1      32.520  -8.912 -23.510  0.00  0.00    +0.003 C 
ATOM     20  C   UNL     1      33.463  -8.048 -24.044  0.00  0.00    +0.040 C 
ATOM     21  C   UNL     1      31.228  -8.492 -23.241  0.00  0.00    +0.003 C 
ATOM     22  C   UNL     1      33.104  -6.728 -24.315  0.00  0.00    +0.172 C 
ATOM     23  C   UNL     1      31.806  -6.290 -24.050  0.00  0.00    +0.172 C 
ATOM     24  C   UNL     1      30.868  -7.172 -23.513  0.00  0.00    +0.040 C 
BRANCH  22  25
ATOM     25  O   UNL     1      34.028  -5.875 -24.838  0.00  0.00    -0.468 OA
ATOM     26  C   UNL     1      33.918  -5.572 -26.228  0.00  0.00    +0.253 C 
ENDBRANCH  22  25
BRANCH  23  27
ATOM     27  O   UNL     1      31.443  -5.003 -24.312  0.00  0.00    -0.468 OA
ATOM     28  C   UNL     1      31.255  -4.142 -23.192  0.00  0.00    +0.253 C 
ENDBRANCH  23  27
ENDBRANCH  18  19
ENDBRANCH  11  17
TORSDOF 6
ENDMDL
MODEL 9
REMARK VINA RESULT:      -8.9      6.229     10.452
REMARK  Name = 5311037
REMARK  6 active torsions:
REMARK  status: ('A' for Active; 'I' for Inactive)
REMARK    1  A    between atoms: N_3  and  C_13
REMARK    2  A    between atoms: N_5  and  C_15
REMARK    3  A    between atoms: C_11  and  C_17
REMARK    4  A    between atoms: C_18  and  C_19
REMARK    5  A    between atoms: C_22  and  O_25
REMARK    6  A    between atoms: C_23  and  O_27
REMARK                            x       y       z     vdW  Elec       q    Type
REMARK                         _______ _______ _______ _____ _____    ______ ____
ROOT
ATOM      1  O   UNL     1      33.872 -15.911 -20.221  0.00  0.00    -0.272 OA
ATOM      2  O   UNL     1      35.041 -17.789 -24.358  0.00  0.00    -0.252 OA
ATOM      3  N   UNL     1      34.095 -15.663 -24.348  0.00  0.00    -0.220 N 
ATOM      4  N   UNL     1      32.945 -13.546 -21.805  0.00  0.00    -0.269 N 
ATOM      5  N   UNL     1      34.467 -16.871 -22.282  0.00  0.00    -0.212 N 
ATOM      6  N   UNL     1      33.079 -13.444 -24.028  0.00  0.00    -0.374 NA
ATOM      7  C   UNL     1      33.504 -14.726 -22.208  0.00  0.00    +0.220 C 
ATOM      8  C   UNL     1      33.574 -14.638 -23.572  0.00  0.00    +0.196 C 
ATOM      9  C   UNL     1      33.944 -15.849 -21.446  0.00  0.00    +0.259 C 
ATOM     10  C   UNL     1      34.570 -16.842 -23.719  0.00  0.00    +0.318 C 
ATOM     11  C   UNL     1      32.709 -12.809 -22.936  0.00  0.00    +0.185 C 
ATOM     12  C   UNL     1      32.666 -13.162 -20.439  0.00  0.00    +0.115 C 
ENDROOT
BRANCH   3  13
ATOM     13  C   UNL     1      34.145 -15.523 -25.798  0.00  0.00    +0.102 C 
ATOM     14  C   UNL     1      32.769 -15.656 -26.416  0.00  0.00    +0.024 C 
ENDBRANCH   3  13
BRANCH   5  15
ATOM     15  C   UNL     1      34.952 -18.076 -21.616  0.00  0.00    +0.103 C 
ATOM     16  C   UNL     1      33.828 -19.059 -21.361  0.00  0.00    +0.024 C 
ENDBRANCH   5  15
BRANCH  11  17
ATOM     17  C   UNL     1      32.131 -11.531 -22.801  0.00  0.00    +0.048 C 
ATOM     18  C   UNL     1      32.743 -10.372 -23.153  0.00  0.00    +0.004 C 
BRANCH  18  19
ATOM     19  C   UNL     1      32.145  -9.029 -23.044  0.00  0.00    +0.003 C 
ATOM     20  C   UNL     1      32.320  -8.302 -21.878  0.00  0.00    +0.040 C 
ATOM     21  C   UNL     1      31.421  -8.521 -24.109  0.00  0.00    +0.003 C 
ATOM     22  C   UNL     1      31.755  -7.032 -21.774  0.00  0.00    +0.172 C 
ATOM     23  C   UNL     1      31.022  -6.505 -22.839  0.00  0.00    +0.172 C 
ATOM     24  C   UNL     1      30.855  -7.251 -24.006  0.00  0.00    +0.040 C 
BRANCH  22  25
ATOM     25  O   UNL     1      31.923  -6.314 -20.629  0.00  0.00    -0.468 OA
ATOM     26  C   UNL     1      32.625  -6.950 -19.562  0.00  0.00    +0.253 C 
ENDBRANCH  22  25
BRANCH  23  27
ATOM     27  O   UNL     1      30.466  -5.265 -22.750  0.00  0.00    -0.468 OA
ATOM     28  C   UNL     1      31.208  -4.181 -23.303  0.00  0.00    +0.253 C 
ENDBRANCH  23  27
ENDBRANCH  18  19
ENDBRANCH  11  17
TORSDOF 6
ENDMDL
