MODEL 1
REMARK VINA RESULT:     -11.2      0.000      0.000
REMARK  Name = 5326927
REMARK  6 active torsions:
REMARK  status: ('A' for Active; 'I' for Inactive)
REMARK    1  A    between atoms: C_5  and  O_9
REMARK    2  A    between atoms: C_6  and  O_22
REMARK    3  A    between atoms: O_9  and  C_10
REMARK    4  A    between atoms: C_13  and  C_18
REMARK    5  A    between atoms: O_22  and  C_23
REMARK    6  A    between atoms: C_28  and  C_31
REMARK                            x       y       z     vdW  Elec       q    Type
REMARK                         _______ _______ _______ _____ _____    ______ ____
ROOT
ATOM      1  O   UNL     1      33.617 -15.327 -24.296  0.00  0.00    -0.346 OA
ATOM      2  O   UNL     1      33.231 -14.332 -21.429  0.00  0.00    -0.346 OA
ATOM      3  C   UNL     1      34.044 -13.830 -22.507  0.00  0.00    +0.188 C 
ATOM      4  C   UNL     1      34.571 -15.036 -23.260  0.00  0.00    +0.188 C 
ATOM      5  C   UNL     1      33.187 -13.125 -23.529  0.00  0.00    +0.225 C 
ATOM      6  C   UNL     1      34.581 -16.104 -22.194  0.00  0.00    +0.225 C 
ATOM      7  C   UNL     1      32.637 -14.277 -24.347  0.00  0.00    +0.188 C 
ATOM      8  C   UNL     1      33.346 -15.763 -21.390  0.00  0.00    +0.188 C 
ENDROOT
BRANCH   5   9
ATOM      9  O   UNL     1      34.004 -12.318 -24.370  0.00  0.00    -0.474 OA
BRANCH   9  10
ATOM     10  C   UNL     1      34.007 -10.972 -24.116  0.00  0.00    +0.139 C 
ATOM     11  C   UNL     1      33.038 -10.426 -23.281  0.00  0.00    +0.040 C 
ATOM     12  C   UNL     1      34.980 -10.165 -24.694  0.00  0.00    +0.037 C 
ATOM     13  C   UNL     1      33.042  -9.055 -23.022  0.00  0.00    +0.034 C 
ATOM     14  C   UNL     1      34.984  -8.795 -24.436  0.00  0.00    +0.003 C 
ATOM     15  C   UNL     1      34.015  -8.240 -23.601  0.00  0.00    +0.003 C 
BRANCH  13  18
ATOM     16  N   UNL     1      31.224  -7.424 -22.579  0.00  0.00    -0.343 N 
ATOM     17  N   UNL     1      31.870  -8.946 -20.928  0.00  0.00    -0.285 NA
ATOM     18  C   UNL     1      32.032  -8.476 -22.152  0.00  0.00    +0.117 C 
ATOM     19  H   UNL     1      30.546  -7.046 -21.972  0.00  0.00    +0.144 HD
ATOM     20  H   UNL     1      31.331  -7.057 -23.486  0.00  0.00    +0.144 HD
ATOM     21  H   UNL     1      31.187  -8.555 -20.336  0.00  0.00    +0.188 HD
ENDBRANCH  13  18
ENDBRANCH   9  10
ENDBRANCH   5   9
BRANCH   6  22
ATOM     22  O   UNL     1      34.545 -17.408 -22.727  0.00  0.00    -0.474 OA
BRANCH  22  23
ATOM     23  C   UNL     1      34.798 -18.449 -21.864  0.00  0.00    +0.139 C 
ATOM     24  C   UNL     1      36.100 -18.698 -21.457  0.00  0.00    +0.037 C 
ATOM     25  C   UNL     1      33.745 -19.234 -21.414  0.00  0.00    +0.037 C 
ATOM     26  C   UNL     1      36.357 -19.754 -20.582  0.00  0.00    +0.006 C 
ATOM     27  C   UNL     1      34.001 -20.290 -20.538  0.00  0.00    +0.006 C 
ATOM     28  C   UNL     1      35.307 -20.549 -20.123  0.00  0.00    +0.031 C 
BRANCH  28  31
ATOM     29  N   UNL     1      36.651 -21.612 -18.325  0.00  0.00    -0.343 N 
ATOM     30  N   UNL     1      34.789 -22.712 -19.212  0.00  0.00    -0.285 NA
ATOM     31  C   UNL     1      35.574 -21.650 -19.209  0.00  0.00    +0.117 C 
ATOM     32  H   UNL     1      36.812 -22.368 -17.715  0.00  0.00    +0.144 HD
ATOM     33  H   UNL     1      37.249 -20.830 -18.310  0.00  0.00    +0.144 HD
ATOM     34  H   UNL     1      34.968 -23.457 -18.595  0.00  0.00    +0.188 HD
ENDBRANCH  28  31
ENDBRANCH  22  23
ENDBRANCH   6  22
TORSDOF 6
ENDMDL
MODEL 2
REMARK VINA RESULT:     -11.0      1.776      2.743
REMARK  Name = 5326927
REMARK  6 active torsions:
REMARK  status: ('A' for Active; 'I' for Inactive)
REMARK    1  A    between atoms: C_5  and  O_9
REMARK    2  A    between atoms: C_6  and  O_22
REMARK    3  A    between atoms: O_9  and  C_10
REMARK    4  A    between atoms: C_13  and  C_18
REMARK    5  A    between atoms: O_22  and  C_23
REMARK    6  A    between atoms: C_28  and  C_31
REMARK                            x       y       z     vdW  Elec       q    Type
REMARK                         _______ _______ _______ _____ _____    ______ ____
ROOT
ATOM      1  O   UNL     1      34.481 -15.279 -21.170  0.00  0.00    -0.346 OA
ATOM      2  O   UNL     1      34.331 -15.497 -24.218  0.00  0.00    -0.346 OA
ATOM      3  C   UNL     1      33.304 -15.292 -23.229  0.00  0.00    +0.188 C 
ATOM      4  C   UNL     1      33.686 -16.124 -22.020  0.00  0.00    +0.188 C 
ATOM      5  C   UNL     1      33.346 -13.877 -22.710  0.00  0.00    +0.225 C 
ATOM      6  C   UNL     1      34.508 -17.230 -22.634  0.00  0.00    +0.225 C 
ATOM      7  C   UNL     1      34.461 -13.936 -21.684  0.00  0.00    +0.188 C 
ATOM      8  C   UNL     1      35.236 -16.507 -23.745  0.00  0.00    +0.188 C 
ENDROOT
BRANCH   5   9
ATOM      9  O   UNL     1      32.128 -13.572 -22.041  0.00  0.00    -0.474 OA
BRANCH   9  10
ATOM     10  C   UNL     1      31.982 -12.289 -21.583  0.00  0.00    +0.139 C 
ATOM     11  C   UNL     1      32.113 -11.223 -22.466  0.00  0.00    +0.040 C 
ATOM     12  C   UNL     1      31.703 -12.066 -20.239  0.00  0.00    +0.037 C 
ATOM     13  C   UNL     1      31.965  -9.917 -21.999  0.00  0.00    +0.034 C 
ATOM     14  C   UNL     1      31.555 -10.761 -19.772  0.00  0.00    +0.003 C 
ATOM     15  C   UNL     1      31.686  -9.686 -20.651  0.00  0.00    +0.003 C 
BRANCH  13  18
ATOM     16  N   UNL     1      30.985  -8.147 -23.438  0.00  0.00    -0.343 N 
ATOM     17  N   UNL     1      33.304  -8.380 -23.270  0.00  0.00    -0.285 NA
ATOM     18  C   UNL     1      32.102  -8.797 -22.915  0.00  0.00    +0.117 C 
ATOM     19  H   UNL     1      31.101  -7.390 -24.058  0.00  0.00    +0.144 HD
ATOM     20  H   UNL     1      30.081  -8.444 -23.188  0.00  0.00    +0.144 HD
ATOM     21  H   UNL     1      33.400  -7.622 -23.891  0.00  0.00    +0.188 HD
ENDBRANCH  13  18
ENDBRANCH   9  10
ENDBRANCH   5   9
BRANCH   6  22
ATOM     22  O   UNL     1      35.382 -17.838 -21.711  0.00  0.00    -0.474 OA
BRANCH  22  23
ATOM     23  C   UNL     1      34.939 -18.974 -21.076  0.00  0.00    +0.139 C 
ATOM     24  C   UNL     1      35.862 -19.876 -20.566  0.00  0.00    +0.037 C 
ATOM     25  C   UNL     1      33.576 -19.201 -20.954  0.00  0.00    +0.037 C 
ATOM     26  C   UNL     1      35.413 -21.029 -19.921  0.00  0.00    +0.006 C 
ATOM     27  C   UNL     1      33.125 -20.354 -20.310  0.00  0.00    +0.006 C 
ATOM     28  C   UNL     1      34.045 -21.267 -19.793  0.00  0.00    +0.031 C 
BRANCH  28  31
ATOM     29  N   UNL     1      32.574 -22.411 -18.152  0.00  0.00    -0.343 N 
ATOM     30  N   UNL     1      34.105 -23.641 -19.420  0.00  0.00    -0.285 NA
ATOM     31  C   UNL     1      33.575 -22.468 -19.120  0.00  0.00    +0.117 C 
ATOM     32  H   UNL     1      32.270 -23.237 -17.709  0.00  0.00    +0.144 HD
ATOM     33  H   UNL     1      32.168 -21.546 -17.913  0.00  0.00    +0.144 HD
ATOM     34  H   UNL     1      33.788 -24.454 -18.965  0.00  0.00    +0.188 HD
ENDBRANCH  28  31
ENDBRANCH  22  23
ENDBRANCH   6  22
TORSDOF 6
ENDMDL
MODEL 3
REMARK VINA RESULT:     -10.9      1.584     10.195
REMARK  Name = 5326927
REMARK  6 active torsions:
REMARK  status: ('A' for Active; 'I' for Inactive)
REMARK    1  A    between atoms: C_5  and  O_9
REMARK    2  A    between atoms: C_6  and  O_22
REMARK    3  A    between atoms: O_9  and  C_10
REMARK    4  A    between atoms: C_13  and  C_18
REMARK    5  A    between atoms: O_22  and  C_23
REMARK    6  A    between atoms: C_28  and  C_31
REMARK                            x       y       z     vdW  Elec       q    Type
REMARK                         _______ _______ _______ _____ _____    ______ ____
ROOT
ATOM      1  O   UNL     1      34.152 -16.189 -23.297  0.00  0.00    -0.346 OA
ATOM      2  O   UNL     1      34.867 -15.234 -20.481  0.00  0.00    -0.346 OA
ATOM      3  C   UNL     1      34.112 -16.374 -20.934  0.00  0.00    +0.188 C 
ATOM      4  C   UNL     1      33.326 -15.925 -22.151  0.00  0.00    +0.188 C 
ATOM      5  C   UNL     1      35.034 -17.433 -21.482  0.00  0.00    +0.225 C 
ATOM      6  C   UNL     1      33.166 -14.445 -21.906  0.00  0.00    +0.225 C 
ATOM      7  C   UNL     1      35.311 -16.933 -22.886  0.00  0.00    +0.188 C 
ATOM      8  C   UNL     1      34.483 -14.086 -21.254  0.00  0.00    +0.188 C 
ENDROOT
BRANCH   5   9
ATOM      9  O   UNL     1      34.346 -18.676 -21.568  0.00  0.00    -0.474 OA
BRANCH   9  10
ATOM     10  C   UNL     1      34.818 -19.697 -20.787  0.00  0.00    +0.139 C 
ATOM     11  C   UNL     1      33.924 -20.589 -20.206  0.00  0.00    +0.040 C 
ATOM     12  C   UNL     1      36.187 -19.831 -20.584  0.00  0.00    +0.037 C 
ATOM     13  C   UNL     1      34.405 -21.629 -19.409  0.00  0.00    +0.034 C 
ATOM     14  C   UNL     1      36.668 -20.870 -19.787  0.00  0.00    +0.003 C 
ATOM     15  C   UNL     1      35.778 -21.768 -19.200  0.00  0.00    +0.003 C 
BRANCH  13  18
ATOM     16  N   UNL     1      32.278 -22.133 -18.233  0.00  0.00    -0.343 N 
ATOM     17  N   UNL     1      33.768 -23.853 -18.763  0.00  0.00    -0.285 NA
ATOM     18  C   UNL     1      33.477 -22.565 -18.796  0.00  0.00    +0.117 C 
ATOM     19  H   UNL     1      31.664 -22.784 -17.822  0.00  0.00    +0.144 HD
ATOM     20  H   UNL     1      32.045 -21.176 -18.244  0.00  0.00    +0.144 HD
ATOM     21  H   UNL     1      33.141 -24.489 -18.348  0.00  0.00    +0.188 HD
ENDBRANCH  13  18
ENDBRANCH   9  10
ENDBRANCH   5   9
BRANCH   6  22
ATOM     22  O   UNL     1      32.924 -13.719 -23.089  0.00  0.00    -0.474 OA
BRANCH  22  23
ATOM     23  C   UNL     1      32.626 -12.382 -22.959  0.00  0.00    +0.139 C 
ATOM     24  C   UNL     1      31.625 -11.988 -22.084  0.00  0.00    +0.037 C 
ATOM     25  C   UNL     1      33.333 -11.450 -23.705  0.00  0.00    +0.037 C 
ATOM     26  C   UNL     1      31.323 -10.632 -21.951  0.00  0.00    +0.006 C 
ATOM     27  C   UNL     1      33.031 -10.094 -23.573  0.00  0.00    +0.006 C 
ATOM     28  C   UNL     1      32.026  -9.686 -22.696  0.00  0.00    +0.031 C 
BRANCH  28  31
ATOM     29  N   UNL     1      31.216  -7.532 -23.630  0.00  0.00    -0.343 N 
ATOM     30  N   UNL     1      31.904  -7.665 -21.400  0.00  0.00    -0.285 NA
ATOM     31  C   UNL     1      31.713  -8.272 -22.558  0.00  0.00    +0.117 C 
ATOM     32  H   UNL     1      31.010  -6.576 -23.514  0.00  0.00    +0.144 HD
ATOM     33  H   UNL     1      31.069  -7.966 -24.502  0.00  0.00    +0.144 HD
ATOM     34  H   UNL     1      31.692  -6.709 -21.306  0.00  0.00    +0.188 HD
ENDBRANCH  28  31
ENDBRANCH  22  23
ENDBRANCH   6  22
TORSDOF 6
ENDMDL
MODEL 4
REMARK VINA RESULT:     -10.4      1.632      2.524
REMARK  Name = 5326927
REMARK  6 active torsions:
REMARK  status: ('A' for Active; 'I' for Inactive)
REMARK    1  A    between atoms: C_5  and  O_9
REMARK    2  A    between atoms: C_6  and  O_22
REMARK    3  A    between atoms: O_9  and  C_10
REMARK    4  A    between atoms: C_13  and  C_18
REMARK    5  A    between atoms: O_22  and  C_23
REMARK    6  A    between atoms: C_28  and  C_31
REMARK                            x       y       z     vdW  Elec       q    Type
REMARK                         _______ _______ _______ _____ _____    ______ ____
ROOT
ATOM      1  O   UNL     1      34.490 -15.034 -21.724  0.00  0.00    -0.346 OA
ATOM      2  O   UNL     1      34.365 -15.844 -24.671  0.00  0.00    -0.346 OA
ATOM      3  C   UNL     1      33.344 -15.368 -23.773  0.00  0.00    +0.188 C 
ATOM      4  C   UNL     1      33.641 -15.968 -22.413  0.00  0.00    +0.188 C 
ATOM      5  C   UNL     1      33.494 -13.885 -23.543  0.00  0.00    +0.225 C 
ATOM      6  C   UNL     1      34.378 -17.235 -22.771  0.00  0.00    +0.225 C 
ATOM      7  C   UNL     1      34.586 -13.824 -22.494  0.00  0.00    +0.188 C 
ATOM      8  C   UNL     1      35.177 -16.806 -23.982  0.00  0.00    +0.188 C 
ENDROOT
BRANCH   5   9
ATOM      9  O   UNL     1      32.296 -13.359 -22.985  0.00  0.00    -0.474 OA
BRANCH   9  10
ATOM     10  C   UNL     1      32.297 -12.026 -22.669  0.00  0.00    +0.139 C 
ATOM     11  C   UNL     1      31.944 -11.622 -21.386  0.00  0.00    +0.040 C 
ATOM     12  C   UNL     1      32.651 -11.091 -23.634  0.00  0.00    +0.037 C 
ATOM     13  C   UNL     1      31.945 -10.264 -21.065  0.00  0.00    +0.034 C 
ATOM     14  C   UNL     1      32.652  -9.734 -23.313  0.00  0.00    +0.003 C 
ATOM     15  C   UNL     1      32.298  -9.320 -22.029  0.00  0.00    +0.003 C 
BRANCH  13  18
ATOM     16  N   UNL     1      31.892  -8.557 -19.263  0.00  0.00    -0.343 N 
ATOM     17  N   UNL     1      30.933 -10.660 -18.922  0.00  0.00    -0.285 NA
ATOM     18  C   UNL     1      31.577  -9.833 -19.726  0.00  0.00    +0.117 C 
ATOM     19  H   UNL     1      31.633  -8.286 -18.352  0.00  0.00    +0.144 HD
ATOM     20  H   UNL     1      32.375  -7.927 -19.845  0.00  0.00    +0.144 HD
ATOM     21  H   UNL     1      30.683 -10.371 -18.015  0.00  0.00    +0.188 HD
ENDBRANCH  13  18
ENDBRANCH   9  10
ENDBRANCH   5   9
BRANCH   6  22
ATOM     22  O   UNL     1      35.187 -17.711 -21.720  0.00  0.00    -0.474 OA
BRANCH  22  23
ATOM     23  C   UNL     1      34.790 -18.869 -21.092  0.00  0.00    +0.139 C 
ATOM     24  C   UNL     1      33.436 -19.124 -20.925  0.00  0.00    +0.037 C 
ATOM     25  C   UNL     1      35.748 -19.763 -20.637  0.00  0.00    +0.037 C 
ATOM     26  C   UNL     1      33.033 -20.298 -20.288  0.00  0.00    +0.006 C 
ATOM     27  C   UNL     1      35.345 -20.937 -20.001  0.00  0.00    +0.006 C 
ATOM     28  C   UNL     1      33.987 -21.204 -19.827  0.00  0.00    +0.031 C 
BRANCH  28  31
ATOM     29  N   UNL     1      32.568 -22.421 -18.193  0.00  0.00    -0.343 N 
ATOM     30  N   UNL     1      34.142 -23.577 -19.477  0.00  0.00    -0.285 NA
ATOM     31  C   UNL     1      33.568 -22.429 -19.164  0.00  0.00    +0.117 C 
ATOM     32  H   UNL     1      32.299 -23.262 -17.757  0.00  0.00    +0.144 HD
ATOM     33  H   UNL     1      32.130 -21.575 -17.943  0.00  0.00    +0.144 HD
ATOM     34  H   UNL     1      33.859 -24.406 -19.029  0.00  0.00    +0.188 HD
ENDBRANCH  28  31
ENDBRANCH  22  23
ENDBRANCH   6  22
TORSDOF 6
ENDMDL
MODEL 5
REMARK VINA RESULT:     -10.3      3.709      5.729
REMARK  Name = 5326927
REMARK  6 active torsions:
REMARK  status: ('A' for Active; 'I' for Inactive)
REMARK    1  A    between atoms: C_5  and  O_9
REMARK    2  A    between atoms: C_6  and  O_22
REMARK    3  A    between atoms: O_9  and  C_10
REMARK    4  A    between atoms: C_13  and  C_18
REMARK    5  A    between atoms: O_22  and  C_23
REMARK    6  A    between atoms: C_28  and  C_31
REMARK                            x       y       z     vdW  Elec       q    Type
REMARK                         _______ _______ _______ _____ _____    ______ ____
ROOT
ATOM      1  O   UNL     1      35.643 -20.000 -21.847  0.00  0.00    -0.346 OA
ATOM      2  O   UNL     1      32.719 -19.498 -21.102  0.00  0.00    -0.346 OA
ATOM      3  C   UNL     1      33.858 -18.617 -21.123  0.00  0.00    +0.188 C 
ATOM      4  C   UNL     1      35.053 -19.432 -20.666  0.00  0.00    +0.188 C 
ATOM      5  C   UNL     1      34.210 -18.244 -22.541  0.00  0.00    +0.225 C 
ATOM      6  C   UNL     1      34.413 -20.486 -19.798  0.00  0.00    +0.225 C 
ATOM      7  C   UNL     1      35.005 -19.446 -23.010  0.00  0.00    +0.188 C 
ATOM      8  C   UNL     1      33.114 -20.753 -20.526  0.00  0.00    +0.188 C 
ENDROOT
BRANCH   5   9
ATOM      9  O   UNL     1      35.062 -17.104 -22.544  0.00  0.00    -0.474 OA
BRANCH   9  10
ATOM     10  C   UNL     1      34.544 -15.950 -23.069  0.00  0.00    +0.139 C 
ATOM     11  C   UNL     1      34.082 -15.936 -24.380  0.00  0.00    +0.040 C 
ATOM     12  C   UNL     1      34.485 -14.803 -22.284  0.00  0.00    +0.037 C 
ATOM     13  C   UNL     1      33.555 -14.759 -24.914  0.00  0.00    +0.034 C 
ATOM     14  C   UNL     1      33.959 -13.628 -22.818  0.00  0.00    +0.003 C 
ATOM     15  C   UNL     1      33.494 -13.605 -24.133  0.00  0.00    +0.003 C 
BRANCH  13  18
ATOM     16  N   UNL     1      33.284 -13.633 -27.110  0.00  0.00    -0.343 N 
ATOM     17  N   UNL     1      32.410 -15.773 -26.768  0.00  0.00    -0.285 NA
ATOM     18  C   UNL     1      33.071 -14.736 -26.285  0.00  0.00    +0.117 C 
ATOM     19  H   UNL     1      32.946 -13.638 -28.036  0.00  0.00    +0.144 HD
ATOM     20  H   UNL     1      33.771 -12.849 -26.768  0.00  0.00    +0.144 HD
ATOM     21  H   UNL     1      32.081 -15.759 -27.695  0.00  0.00    +0.188 HD
ENDBRANCH  13  18
ENDBRANCH   9  10
ENDBRANCH   5   9
BRANCH   6  22
ATOM     22  O   UNL     1      35.211 -21.640 -19.662  0.00  0.00    -0.474 OA
BRANCH  22  23
ATOM     23  C   UNL     1      35.543 -22.030 -18.385  0.00  0.00    +0.139 C 
ATOM     24  C   UNL     1      34.619 -22.732 -17.624  0.00  0.00    +0.037 C 
ATOM     25  C   UNL     1      36.796 -21.715 -17.879  0.00  0.00    +0.037 C 
ATOM     26  C   UNL     1      34.956 -23.128 -16.329  0.00  0.00    +0.006 C 
ATOM     27  C   UNL     1      37.133 -22.112 -16.584  0.00  0.00    +0.006 C 
ATOM     28  C   UNL     1      36.213 -22.818 -15.810  0.00  0.00    +0.031 C 
BRANCH  28  31
ATOM     29  N   UNL     1      35.626 -23.220 -13.431  0.00  0.00    -0.343 N 
ATOM     30  N   UNL     1      37.798 -23.624 -14.193  0.00  0.00    -0.285 NA
ATOM     31  C   UNL     1      36.565 -23.232 -14.461  0.00  0.00    +0.117 C 
ATOM     32  H   UNL     1      35.886 -23.504 -12.525  0.00  0.00    +0.144 HD
ATOM     33  H   UNL     1      34.702 -22.928 -13.609  0.00  0.00    +0.144 HD
ATOM     34  H   UNL     1      38.038 -23.904 -13.281  0.00  0.00    +0.188 HD
ENDBRANCH  28  31
ENDBRANCH  22  23
ENDBRANCH   6  22
TORSDOF 6
ENDMDL
MODEL 6
REMARK VINA RESULT:     -10.1      1.264      1.875
REMARK  Name = 5326927
REMARK  6 active torsions:
REMARK  status: ('A' for Active; 'I' for Inactive)
REMARK    1  A    between atoms: C_5  and  O_9
REMARK    2  A    between atoms: C_6  and  O_22
REMARK    3  A    between atoms: O_9  and  C_10
REMARK    4  A    between atoms: C_13  and  C_18
REMARK    5  A    between atoms: O_22  and  C_23
REMARK    6  A    between atoms: C_28  and  C_31
REMARK                            x       y       z     vdW  Elec       q    Type
REMARK                         _______ _______ _______ _____ _____    ______ ____
ROOT
ATOM      1  O   UNL     1      34.213 -15.231 -23.812  0.00  0.00    -0.346 OA
ATOM      2  O   UNL     1      32.444 -14.981 -21.329  0.00  0.00    -0.346 OA
ATOM      3  C   UNL     1      33.377 -14.060 -21.928  0.00  0.00    +0.188 C 
ATOM      4  C   UNL     1      34.534 -14.886 -22.454  0.00  0.00    +0.188 C 
ATOM      5  C   UNL     1      32.787 -13.447 -23.173  0.00  0.00    +0.225 C 
ATOM      6  C   UNL     1      34.507 -16.094 -21.550  0.00  0.00    +0.225 C 
ATOM      7  C   UNL     1      33.028 -14.523 -24.214  0.00  0.00    +0.188 C 
ATOM      8  C   UNL     1      33.024 -16.294 -21.330  0.00  0.00    +0.188 C 
ENDROOT
BRANCH   5   9
ATOM      9  O   UNL     1      33.527 -12.287 -23.537  0.00  0.00    -0.474 OA
BRANCH   9  10
ATOM     10  C   UNL     1      32.982 -11.078 -23.195  0.00  0.00    +0.139 C 
ATOM     11  C   UNL     1      33.604  -9.903 -23.604  0.00  0.00    +0.040 C 
ATOM     12  C   UNL     1      31.813 -11.037 -22.444  0.00  0.00    +0.037 C 
ATOM     13  C   UNL     1      33.049  -8.671 -23.255  0.00  0.00    +0.034 C 
ATOM     14  C   UNL     1      31.259  -9.806 -22.096  0.00  0.00    +0.003 C 
ATOM     15  C   UNL     1      31.877  -8.623 -22.500  0.00  0.00    +0.003 C 
BRANCH  13  18
ATOM     16  N   UNL     1      32.949  -6.335 -24.091  0.00  0.00    -0.343 N 
ATOM     17  N   UNL     1      35.012  -7.350 -23.675  0.00  0.00    -0.285 NA
ATOM     18  C   UNL     1      33.694  -7.438 -23.676  0.00  0.00    +0.117 C 
ATOM     19  H   UNL     1      33.406  -5.509 -24.372  0.00  0.00    +0.144 HD
ATOM     20  H   UNL     1      31.966  -6.382 -24.102  0.00  0.00    +0.144 HD
ATOM     21  H   UNL     1      35.451  -6.516 -23.960  0.00  0.00    +0.188 HD
ENDBRANCH  13  18
ENDBRANCH   9  10
ENDBRANCH   5   9
BRANCH   6  22
ATOM     22  O   UNL     1      35.132 -17.219 -22.124  0.00  0.00    -0.474 OA
BRANCH  22  23
ATOM     23  C   UNL     1      35.077 -18.400 -21.419  0.00  0.00    +0.139 C 
ATOM     24  C   UNL     1      36.249 -18.961 -20.934  0.00  0.00    +0.037 C 
ATOM     25  C   UNL     1      33.849 -19.010 -21.204  0.00  0.00    +0.037 C 
ATOM     26  C   UNL     1      36.194 -20.157 -20.219  0.00  0.00    +0.006 C 
ATOM     27  C   UNL     1      33.793 -20.206 -20.489  0.00  0.00    +0.006 C 
ATOM     28  C   UNL     1      34.965 -20.779 -19.997  0.00  0.00    +0.031 C 
BRANCH  28  31
ATOM     29  N   UNL     1      33.922 -22.980 -19.510  0.00  0.00    -0.343 N 
ATOM     30  N   UNL     1      35.793 -22.269 -18.301  0.00  0.00    -0.285 NA
ATOM     31  C   UNL     1      34.906 -22.027 -19.250  0.00  0.00    +0.117 C 
ATOM     32  H   UNL     1      33.901 -23.817 -18.992  0.00  0.00    +0.144 HD
ATOM     33  H   UNL     1      33.251 -22.817 -20.211  0.00  0.00    +0.144 HD
ATOM     34  H   UNL     1      35.753 -23.112 -17.795  0.00  0.00    +0.188 HD
ENDBRANCH  28  31
ENDBRANCH  22  23
ENDBRANCH   6  22
TORSDOF 6
ENDMDL
MODEL 7
REMARK VINA RESULT:      -9.8      1.445      9.923
REMARK  Name = 5326927
REMARK  6 active torsions:
REMARK  status: ('A' for Active; 'I' for Inactive)
REMARK    1  A    between atoms: C_5  and  O_9
REMARK    2  A    between atoms: C_6  and  O_22
REMARK    3  A    between atoms: O_9  and  C_10
REMARK    4  A    between atoms: C_13  and  C_18
REMARK    5  A    between atoms: O_22  and  C_23
REMARK    6  A    between atoms: C_28  and  C_31
REMARK                            x       y       z     vdW  Elec       q    Type
REMARK                         _______ _______ _______ _____ _____    ______ ____
ROOT
ATOM      1  O   UNL     1      33.443 -15.368 -21.920  0.00  0.00    -0.346 OA
ATOM      2  O   UNL     1      34.137 -15.853 -24.859  0.00  0.00    -0.346 OA
ATOM      3  C   UNL     1      34.956 -15.871 -23.675  0.00  0.00    +0.188 C 
ATOM      4  C   UNL     1      34.441 -14.772 -22.767  0.00  0.00    +0.188 C 
ATOM      5  C   UNL     1      34.707 -17.128 -22.881  0.00  0.00    +0.225 C 
ATOM      6  C   UNL     1      33.834 -13.799 -23.747  0.00  0.00    +0.225 C 
ATOM      7  C   UNL     1      33.440 -16.791 -22.120  0.00  0.00    +0.188 C 
ATOM      8  C   UNL     1      33.252 -14.724 -24.794  0.00  0.00    +0.188 C 
ENDROOT
BRANCH   5   9
ATOM      9  O   UNL     1      35.761 -17.327 -21.946  0.00  0.00    -0.474 OA
BRANCH   9  10
ATOM     10  C   UNL     1      35.775 -18.523 -21.278  0.00  0.00    +0.139 C 
ATOM     11  C   UNL     1      34.574 -19.132 -20.932  0.00  0.00    +0.040 C 
ATOM     12  C   UNL     1      36.990 -19.116 -20.955  0.00  0.00    +0.037 C 
ATOM     13  C   UNL     1      34.588 -20.350 -20.252  0.00  0.00    +0.034 C 
ATOM     14  C   UNL     1      37.004 -20.333 -20.275  0.00  0.00    +0.003 C 
ATOM     15  C   UNL     1      35.804 -20.950 -19.923  0.00  0.00    +0.003 C 
BRANCH  13  18
ATOM     16  N   UNL     1      33.290 -22.343 -19.541  0.00  0.00    -0.343 N 
ATOM     17  N   UNL     1      32.216 -20.295 -19.877  0.00  0.00    -0.285 NA
ATOM     18  C   UNL     1      33.337 -20.993 -19.885  0.00  0.00    +0.117 C 
ATOM     19  H   UNL     1      32.431 -22.759 -19.296  0.00  0.00    +0.144 HD
ATOM     20  H   UNL     1      34.114 -22.881 -19.543  0.00  0.00    +0.144 HD
ATOM     21  H   UNL     1      31.367 -20.729 -19.630  0.00  0.00    +0.188 HD
ENDBRANCH  13  18
ENDBRANCH   9  10
ENDBRANCH   5   9
BRANCH   6  22
ATOM     22  O   UNL     1      32.866 -12.962 -23.157  0.00  0.00    -0.474 OA
BRANCH  22  23
ATOM     23  C   UNL     1      33.051 -11.604 -23.274  0.00  0.00    +0.139 C 
ATOM     24  C   UNL     1      32.195 -10.738 -22.610  0.00  0.00    +0.037 C 
ATOM     25  C   UNL     1      34.092 -11.121 -24.055  0.00  0.00    +0.037 C 
ATOM     26  C   UNL     1      32.382  -9.360 -22.728  0.00  0.00    +0.006 C 
ATOM     27  C   UNL     1      34.281  -9.744 -24.174  0.00  0.00    +0.006 C 
ATOM     28  C   UNL     1      33.425  -8.864 -23.510  0.00  0.00    +0.031 C 
BRANCH  28  31
ATOM     29  N   UNL     1      34.505  -6.896 -24.572  0.00  0.00    -0.343 N 
ATOM     30  N   UNL     1      32.963  -6.602 -22.840  0.00  0.00    -0.285 NA
ATOM     31  C   UNL     1      33.623  -7.428 -23.633  0.00  0.00    +0.117 C 
ATOM     32  H   UNL     1      34.623  -5.921 -24.639  0.00  0.00    +0.144 HD
ATOM     33  H   UNL     1      35.008  -7.495 -25.170  0.00  0.00    +0.144 HD
ATOM     34  H   UNL     1      33.096  -5.631 -22.922  0.00  0.00    +0.188 HD
ENDBRANCH  28  31
ENDBRANCH  22  23
ENDBRANCH   6  22
TORSDOF 6
ENDMDL
MODEL 8
REMARK VINA RESULT:      -9.8      3.375      5.322
REMARK  Name = 5326927
REMARK  6 active torsions:
REMARK  status: ('A' for Active; 'I' for Inactive)
REMARK    1  A    between atoms: C_5  and  O_9
REMARK    2  A    between atoms: C_6  and  O_22
REMARK    3  A    between atoms: O_9  and  C_10
REMARK    4  A    between atoms: C_13  and  C_18
REMARK    5  A    between atoms: O_22  and  C_23
REMARK    6  A    between atoms: C_28  and  C_31
REMARK                            x       y       z     vdW  Elec       q    Type
REMARK                         _______ _______ _______ _____ _____    ______ ____
ROOT
ATOM      1  O   UNL     1      31.861 -10.036 -23.422  0.00  0.00    -0.346 OA
ATOM      2  O   UNL     1      31.084  -9.819 -20.471  0.00  0.00    -0.346 OA
ATOM      3  C   UNL     1      32.201  -9.277 -21.201  0.00  0.00    +0.188 C 
ATOM      4  C   UNL     1      32.606 -10.320 -22.225  0.00  0.00    +0.188 C 
ATOM      5  C   UNL     1      31.761  -8.108 -22.046  0.00  0.00    +0.225 C 
ATOM      6  C   UNL     1      32.153 -11.604 -21.576  0.00  0.00    +0.225 C 
ATOM      7  C   UNL     1      31.167  -8.787 -23.264  0.00  0.00    +0.188 C 
ATOM      8  C   UNL     1      30.876 -11.178 -20.885  0.00  0.00    +0.188 C 
ENDROOT
BRANCH   5   9
ATOM      9  O   UNL     1      32.895  -7.352 -22.455  0.00  0.00    -0.474 OA
BRANCH   9  10
ATOM     10  C   UNL     1      32.679  -6.371 -23.386  0.00  0.00    +0.139 C 
ATOM     11  C   UNL     1      31.824  -5.316 -23.089  0.00  0.00    +0.040 C 
ATOM     12  C   UNL     1      33.318  -6.440 -24.619  0.00  0.00    +0.037 C 
ATOM     13  C   UNL     1      31.603  -4.317 -24.038  0.00  0.00    +0.034 C 
ATOM     14  C   UNL     1      33.098  -5.442 -25.567  0.00  0.00    +0.003 C 
ATOM     15  C   UNL     1      32.240  -4.381 -25.277  0.00  0.00    +0.003 C 
BRANCH  13  18
ATOM     16  N   UNL     1      30.404  -2.864 -22.421  0.00  0.00    -0.343 N 
ATOM     17  N   UNL     1      30.165  -2.517 -24.720  0.00  0.00    -0.285 NA
ATOM     18  C   UNL     1      30.709  -3.211 -23.736  0.00  0.00    +0.117 C 
ATOM     19  H   UNL     1      29.796  -2.111 -22.239  0.00  0.00    +0.144 HD
ATOM     20  H   UNL     1      30.797  -3.371 -21.674  0.00  0.00    +0.144 HD
ATOM     21  H   UNL     1      29.559  -1.768 -24.518  0.00  0.00    +0.188 HD
ENDBRANCH  13  18
ENDBRANCH   9  10
ENDBRANCH   5   9
BRANCH   6  22
ATOM     22  O   UNL     1      31.952 -12.644 -22.505  0.00  0.00    -0.474 OA
BRANCH  22  23
ATOM     23  C   UNL     1      32.759 -13.753 -22.393  0.00  0.00    +0.139 C 
ATOM     24  C   UNL     1      32.661 -14.558 -21.268  0.00  0.00    +0.037 C 
ATOM     25  C   UNL     1      33.657 -14.049 -23.409  0.00  0.00    +0.037 C 
ATOM     26  C   UNL     1      33.479 -15.683 -21.155  0.00  0.00    +0.006 C 
ATOM     27  C   UNL     1      34.474 -15.174 -23.297  0.00  0.00    +0.006 C 
ATOM     28  C   UNL     1      34.385 -15.991 -22.169  0.00  0.00    +0.031 C 
BRANCH  28  31
ATOM     29  N   UNL     1      35.405 -17.819 -20.834  0.00  0.00    -0.343 N 
ATOM     30  N   UNL     1      35.872 -17.624 -23.116  0.00  0.00    -0.285 NA
ATOM     31  C   UNL     1      35.237 -17.164 -22.053  0.00  0.00    +0.117 C 
ATOM     32  H   UNL     1      35.987 -18.612 -20.778  0.00  0.00    +0.144 HD
ATOM     33  H   UNL     1      34.943 -17.490 -20.029  0.00  0.00    +0.144 HD
ATOM     34  H   UNL     1      36.449 -18.418 -23.038  0.00  0.00    +0.188 HD
ENDBRANCH  28  31
ENDBRANCH  22  23
ENDBRANCH   6  22
TORSDOF 6
ENDMDL
MODEL 9
REMARK VINA RESULT:      -9.7      3.216      5.247
REMARK  Name = 5326927
REMARK  6 active torsions:
REMARK  status: ('A' for Active; 'I' for Inactive)
REMARK    1  A    between atoms: C_5  and  O_9
REMARK    2  A    between atoms: C_6  and  O_22
REMARK    3  A    between atoms: O_9  and  C_10
REMARK    4  A    between atoms: C_13  and  C_18
REMARK    5  A    between atoms: O_22  and  C_23
REMARK    6  A    between atoms: C_28  and  C_31
REMARK                            x       y       z     vdW  Elec       q    Type
REMARK                         _______ _______ _______ _____ _____    ______ ____
ROOT
ATOM      1  O   UNL     1      35.566 -19.972 -21.868  0.00  0.00    -0.346 OA
ATOM      2  O   UNL     1      32.635 -19.666 -21.049  0.00  0.00    -0.346 OA
ATOM      3  C   UNL     1      33.706 -18.705 -21.123  0.00  0.00    +0.188 C 
ATOM      4  C   UNL     1      34.969 -19.420 -20.683  0.00  0.00    +0.188 C 
ATOM      5  C   UNL     1      33.989 -18.342 -22.558  0.00  0.00    +0.225 C 
ATOM      6  C   UNL     1      34.432 -20.497 -19.773  0.00  0.00    +0.225 C 
ATOM      7  C   UNL     1      34.858 -19.494 -23.024  0.00  0.00    +0.188 C 
ATOM      8  C   UNL     1      33.136 -20.874 -20.457  0.00  0.00    +0.188 C 
ENDROOT
BRANCH   5   9
ATOM      9  O   UNL     1      34.756 -17.144 -22.611  0.00  0.00    -0.474 OA
BRANCH   9  10
ATOM     10  C   UNL     1      34.122 -16.028 -23.091  0.00  0.00    +0.139 C 
ATOM     11  C   UNL     1      33.495 -15.158 -22.205  0.00  0.00    +0.040 C 
ATOM     12  C   UNL     1      34.112 -15.777 -24.458  0.00  0.00    +0.037 C 
ATOM     13  C   UNL     1      32.850 -14.022 -22.695  0.00  0.00    +0.034 C 
ATOM     14  C   UNL     1      33.467 -14.641 -24.947  0.00  0.00    +0.003 C 
ATOM     15  C   UNL     1      32.835 -13.764 -24.066  0.00  0.00    +0.003 C 
BRANCH  13  18
ATOM     16  N   UNL     1      32.297 -13.266 -20.396  0.00  0.00    -0.343 N 
ATOM     17  N   UNL     1      31.471 -12.105 -22.248  0.00  0.00    -0.285 NA
ATOM     18  C   UNL     1      32.191 -13.108 -21.776  0.00  0.00    +0.117 C 
ATOM     19  H   UNL     1      31.842 -12.635 -19.791  0.00  0.00    +0.144 HD
ATOM     20  H   UNL     1      32.826 -14.008 -20.024  0.00  0.00    +0.144 HD
ATOM     21  H   UNL     1      31.023 -11.486 -21.628  0.00  0.00    +0.188 HD
ENDBRANCH  13  18
ENDBRANCH   9  10
ENDBRANCH   5   9
BRANCH   6  22
ATOM     22  O   UNL     1      35.316 -21.586 -19.635  0.00  0.00    -0.474 OA
BRANCH  22  23
ATOM     23  C   UNL     1      35.624 -21.989 -18.357  0.00  0.00    +0.139 C 
ATOM     24  C   UNL     1      36.861 -21.664 -17.818  0.00  0.00    +0.037 C 
ATOM     25  C   UNL     1      34.694 -22.715 -17.626  0.00  0.00    +0.037 C 
ATOM     26  C   UNL     1      37.174 -22.073 -16.521  0.00  0.00    +0.006 C 
ATOM     27  C   UNL     1      35.006 -23.124 -16.330  0.00  0.00    +0.006 C 
ATOM     28  C   UNL     1      36.247 -22.802 -15.778  0.00  0.00    +0.031 C 
BRANCH  28  31
ATOM     29  N   UNL     1      35.618 -23.203 -13.409  0.00  0.00    -0.343 N 
ATOM     30  N   UNL     1      37.794 -23.644 -14.141  0.00  0.00    -0.285 NA
ATOM     31  C   UNL     1      36.572 -23.228 -14.425  0.00  0.00    +0.117 C 
ATOM     32  H   UNL     1      35.859 -23.496 -12.501  0.00  0.00    +0.144 HD
ATOM     33  H   UNL     1      34.703 -22.894 -13.600  0.00  0.00    +0.144 HD
ATOM     34  H   UNL     1      38.015 -23.931 -13.227  0.00  0.00    +0.188 HD
ENDBRANCH  28  31
ENDBRANCH  22  23
ENDBRANCH   6  22
TORSDOF 6
ENDMDL
