MODEL 1
REMARK VINA RESULT:     -10.1      0.000      0.000
REMARK  Name = 53630042
REMARK  11 active torsions:
REMARK  status: ('A' for Active; 'I' for Inactive)
REMARK    1  A    between atoms: N_1  and  C_4
REMARK    2  A    between atoms: N_1  and  C_19
REMARK    3  A    between atoms: C_4  and  C_5
REMARK    4  A    between atoms: C_4  and  C_12
REMARK    5  A    between atoms: C_12  and  O_13
REMARK    6  A    between atoms: O_13  and  C_14
REMARK    7  A    between atoms: C_19  and  C_21
REMARK    8  A    between atoms: C_25  and  C_26
REMARK    9  A    between atoms: C_26  and  C_27
REMARK   10  A    between atoms: C_27  and  C_30
REMARK   11  A    between atoms: N_29  and  O_32
REMARK                            x       y       z     vdW  Elec       q    Type
REMARK                         _______ _______ _______ _____ _____    ______ ____
ROOT
ATOM      1  N   UNL     1      33.619 -22.900 -16.493  0.00  0.00    +0.395 N 
ATOM      2  H   UNL     1      34.454 -22.321 -16.403  0.00  0.00    -0.083 HD
ATOM      3  H   UNL     1      32.792 -22.381 -16.196  0.00  0.00    -0.083 HD
ENDROOT
BRANCH   1   4
ATOM      4  C   UNL     1      33.760 -24.080 -15.645  0.00  0.00    +0.040 C 
BRANCH   4   5
ATOM      5  C   UNL     1      35.113 -24.040 -14.936  0.00  0.00    -0.009 C 
ATOM      6  C   UNL     1      36.015 -22.962 -15.550  0.00  0.00    -0.002 C 
ATOM      7  C   UNL     1      35.792 -25.416 -14.988  0.00  0.00    -0.002 C 
ATOM      8  C   UNL     1      37.170 -25.390 -14.332  0.00  0.00    -0.000 C 
ATOM      9  C   UNL     1      37.394 -22.939 -14.893  0.00  0.00    -0.000 C 
ATOM     10  C   UNL     1      38.062 -24.310 -14.938  0.00  0.00    -0.000 C 
ENDBRANCH   4   5
BRANCH   4  12
ATOM     11  O   UNL     1      32.757 -23.890 -13.432  0.00  0.00    -0.252 OA
ATOM     12  C   UNL     1      32.631 -24.078 -14.634  0.00  0.00    +0.297 C 
BRANCH  12  13
ATOM     13  O   UNL     1      31.449 -24.312 -15.280  0.00  0.00    -0.454 OA
BRANCH  13  14
ATOM     14  C   UNL     1      30.274 -23.973 -14.554  0.00  0.00    +0.169 C 
ATOM     15  C   UNL     1      29.776 -22.595 -14.965  0.00  0.00    +0.044 C 
ATOM     16  C   UNL     1      29.135 -24.888 -14.976  0.00  0.00    +0.044 C 
ATOM     17  C   UNL     1      28.638 -24.297 -16.295  0.00  0.00    +0.004 C 
ATOM     18  C   UNL     1      29.076 -22.833 -16.300  0.00  0.00    +0.004 C 
ENDBRANCH  13  14
ENDBRANCH  12  13
ENDBRANCH   4  12
ENDBRANCH   1   4
BRANCH   1  19
ATOM     19  C   UNL     1      33.451 -23.282 -17.888  0.00  0.00    -0.052 C 
BRANCH  19  21
ATOM     20  N   UNL     1      35.713 -21.028 -19.921  0.00  0.00    -0.249 NA
ATOM     21  C   UNL     1      33.900 -22.194 -18.825  0.00  0.00    -0.025 C 
ATOM     22  C   UNL     1      32.978 -21.363 -19.452  0.00  0.00    -0.004 C 
ATOM     23  C   UNL     1      35.244 -21.987 -19.092  0.00  0.00    +0.092 C 
ATOM     24  C   UNL     1      33.421 -20.365 -20.313  0.00  0.00    +0.014 C 
ATOM     25  C   UNL     1      34.787 -20.240 -20.511  0.00  0.00    +0.059 C 
BRANCH  25  26
ATOM     26  C   UNL     1      35.300 -19.181 -21.430  0.00  0.00    +0.055 C 
BRANCH  26  27
ATOM     27  C   UNL     1      34.886 -19.425 -22.885  0.00  0.00    +0.093 C 
BRANCH  27  30
ATOM     28  O   UNL     1      34.465 -18.099 -24.864  0.00  0.00    -0.273 OA
ATOM     29  N   UNL     1      35.570 -17.140 -23.077  0.00  0.00    -0.197 N 
ATOM     30  C   UNL     1      34.935 -18.168 -23.732  0.00  0.00    +0.245 C 
ATOM     31  H   UNL     1      35.932 -17.244 -22.167  0.00  0.00    +0.182 HD
BRANCH  29  32
ATOM     32  O   UNL     1      35.669 -15.934 -23.785  0.00  0.00    -0.295 OA
ATOM     33  H   UNL     1      36.493 -15.483 -23.542  0.00  0.00    +0.241 HD
ENDBRANCH  29  32
ENDBRANCH  27  30
ENDBRANCH  26  27
ENDBRANCH  25  26
ENDBRANCH  19  21
ENDBRANCH   1  19
TORSDOF 11
ENDMDL
MODEL 2
REMARK VINA RESULT:     -10.1      1.771      4.640
REMARK  Name = 53630042
REMARK  11 active torsions:
REMARK  status: ('A' for Active; 'I' for Inactive)
REMARK    1  A    between atoms: N_1  and  C_4
REMARK    2  A    between atoms: N_1  and  C_19
REMARK    3  A    between atoms: C_4  and  C_5
REMARK    4  A    between atoms: C_4  and  C_12
REMARK    5  A    between atoms: C_12  and  O_13
REMARK    6  A    between atoms: O_13  and  C_14
REMARK    7  A    between atoms: C_19  and  C_21
REMARK    8  A    between atoms: C_25  and  C_26
REMARK    9  A    between atoms: C_26  and  C_27
REMARK   10  A    between atoms: C_27  and  C_30
REMARK   11  A    between atoms: N_29  and  O_32
REMARK                            x       y       z     vdW  Elec       q    Type
REMARK                         _______ _______ _______ _____ _____    ______ ____
ROOT
ATOM      1  N   UNL     1      34.327 -23.167 -17.349  0.00  0.00    +0.395 N 
ATOM      2  H   UNL     1      33.483 -22.746 -17.736  0.00  0.00    -0.083 HD
ATOM      3  H   UNL     1      34.447 -24.116 -17.704  0.00  0.00    -0.083 HD
ENDROOT
BRANCH   1   4
ATOM      4  C   UNL     1      34.211 -23.223 -15.895  0.00  0.00    +0.040 C 
BRANCH   4   5
ATOM      5  C   UNL     1      32.783 -23.610 -15.511  0.00  0.00    -0.009 C 
ATOM      6  C   UNL     1      31.781 -23.069 -16.539  0.00  0.00    -0.002 C 
ATOM      7  C   UNL     1      32.446 -23.107 -14.100  0.00  0.00    -0.002 C 
ATOM      8  C   UNL     1      31.006 -23.435 -13.714  0.00  0.00    -0.000 C 
ATOM      9  C   UNL     1      30.340 -23.397 -16.148  0.00  0.00    -0.000 C 
ATOM     10  C   UNL     1      30.012 -22.904 -14.743  0.00  0.00    -0.000 C 
ENDBRANCH   4   5
BRANCH   4  12
ATOM     11  O   UNL     1      35.405 -25.347 -15.877  0.00  0.00    -0.252 OA
ATOM     12  C   UNL     1      35.197 -24.250 -15.376  0.00  0.00    +0.297 C 
BRANCH  12  13
ATOM     13  O   UNL     1      35.823 -23.753 -14.268  0.00  0.00    -0.454 OA
BRANCH  13  14
ATOM     14  C   UNL     1      35.805 -24.595 -13.121  0.00  0.00    +0.169 C 
ATOM     15  C   UNL     1      37.189 -25.172 -12.866  0.00  0.00    +0.044 C 
ATOM     16  C   UNL     1      35.549 -23.756 -11.880  0.00  0.00    +0.044 C 
ATOM     17  C   UNL     1      36.906 -23.134 -11.552  0.00  0.00    +0.004 C 
ATOM     18  C   UNL     1      37.957 -24.027 -12.211  0.00  0.00    +0.004 C 
ENDBRANCH  13  14
ENDBRANCH  12  13
ENDBRANCH   4  12
ENDBRANCH   1   4
BRANCH   1  19
ATOM     19  C   UNL     1      35.481 -22.374 -17.746  0.00  0.00    -0.052 C 
BRANCH  19  21
ATOM     20  N   UNL     1      35.994 -20.069 -20.706  0.00  0.00    -0.249 NA
ATOM     21  C   UNL     1      35.180 -21.500 -18.934  0.00  0.00    -0.025 C 
ATOM     22  C   UNL     1      33.873 -21.302 -19.364  0.00  0.00    -0.004 C 
ATOM     23  C   UNL     1      36.195 -20.867 -19.633  0.00  0.00    +0.092 C 
ATOM     24  C   UNL     1      33.624 -20.488 -20.464  0.00  0.00    +0.014 C 
ATOM     25  C   UNL     1      34.710 -19.900 -21.094  0.00  0.00    +0.059 C 
BRANCH  25  26
ATOM     26  C   UNL     1      34.482 -19.022 -22.279  0.00  0.00    +0.055 C 
BRANCH  26  27
ATOM     27  C   UNL     1      35.447 -17.832 -22.313  0.00  0.00    +0.093 C 
BRANCH  27  30
ATOM     28  O   UNL     1      35.256 -15.690 -23.422  0.00  0.00    -0.273 OA
ATOM     29  N   UNL     1      34.941 -17.624 -24.643  0.00  0.00    -0.197 N 
ATOM     30  C   UNL     1      35.211 -16.914 -23.498  0.00  0.00    +0.245 C 
ATOM     31  H   UNL     1      34.916 -18.609 -24.655  0.00  0.00    +0.182 HD
BRANCH  29  32
ATOM     32  O   UNL     1      34.704 -16.860 -25.794  0.00  0.00    -0.295 OA
ATOM     33  H   UNL     1      33.812 -17.046 -26.127  0.00  0.00    +0.241 HD
ENDBRANCH  29  32
ENDBRANCH  27  30
ENDBRANCH  26  27
ENDBRANCH  25  26
ENDBRANCH  19  21
ENDBRANCH   1  19
TORSDOF 11
ENDMDL
MODEL 3
REMARK VINA RESULT:      -9.8      4.805     11.230
REMARK  Name = 53630042
REMARK  11 active torsions:
REMARK  status: ('A' for Active; 'I' for Inactive)
REMARK    1  A    between atoms: N_1  and  C_4
REMARK    2  A    between atoms: N_1  and  C_19
REMARK    3  A    between atoms: C_4  and  C_5
REMARK    4  A    between atoms: C_4  and  C_12
REMARK    5  A    between atoms: C_12  and  O_13
REMARK    6  A    between atoms: O_13  and  C_14
REMARK    7  A    between atoms: C_19  and  C_21
REMARK    8  A    between atoms: C_25  and  C_26
REMARK    9  A    between atoms: C_26  and  C_27
REMARK   10  A    between atoms: C_27  and  C_30
REMARK   11  A    between atoms: N_29  and  O_32
REMARK                            x       y       z     vdW  Elec       q    Type
REMARK                         _______ _______ _______ _____ _____    ______ ____
ROOT
ATOM      1  N   UNL     1      33.891 -15.854 -23.033  0.00  0.00    +0.395 N 
ATOM      2  H   UNL     1      33.883 -16.058 -24.032  0.00  0.00    -0.083 HD
ATOM      3  H   UNL     1      33.136 -16.353 -22.561  0.00  0.00    -0.083 HD
ENDROOT
BRANCH   1   4
ATOM      4  C   UNL     1      33.697 -14.421 -22.835  0.00  0.00    +0.040 C 
BRANCH   4   5
ATOM      5  C   UNL     1      33.179 -13.792 -24.129  0.00  0.00    -0.009 C 
ATOM      6  C   UNL     1      33.223 -14.807 -25.279  0.00  0.00    -0.002 C 
ATOM      7  C   UNL     1      33.985 -12.533 -24.479  0.00  0.00    -0.002 C 
ATOM      8  C   UNL     1      33.521 -11.916 -25.797  0.00  0.00    -0.000 C 
ATOM      9  C   UNL     1      32.760 -14.186 -26.596  0.00  0.00    -0.000 C 
ATOM     10  C   UNL     1      33.556 -12.930 -26.936  0.00  0.00    -0.000 C 
ENDBRANCH   4   5
BRANCH   4  12
ATOM     11  O   UNL     1      32.003 -15.103 -21.222  0.00  0.00    -0.252 OA
ATOM     12  C   UNL     1      32.698 -14.224 -21.713  0.00  0.00    +0.297 C 
BRANCH  12  13
ATOM     13  O   UNL     1      32.704 -12.912 -21.330  0.00  0.00    -0.454 OA
BRANCH  13  14
ATOM     14  C   UNL     1      31.429 -12.348 -21.047  0.00  0.00    +0.169 C 
ATOM     15  C   UNL     1      31.481 -11.543 -19.757  0.00  0.00    +0.044 C 
ATOM     16  C   UNL     1      31.096 -11.296 -22.093  0.00  0.00    +0.044 C 
ATOM     17  C   UNL     1      31.877 -10.058 -21.653  0.00  0.00    +0.004 C 
ATOM     18  C   UNL     1      32.150 -10.232 -20.159  0.00  0.00    +0.004 C 
ENDBRANCH  13  14
ENDBRANCH  12  13
ENDBRANCH   4  12
ENDBRANCH   1   4
BRANCH   1  19
ATOM     19  C   UNL     1      35.159 -16.288 -22.466  0.00  0.00    -0.052 C 
BRANCH  19  21
ATOM     20  N   UNL     1      36.119 -19.478 -20.668  0.00  0.00    -0.249 NA
ATOM     21  C   UNL     1      35.038 -17.618 -21.772  0.00  0.00    -0.025 C 
ATOM     22  C   UNL     1      33.798 -18.218 -21.585  0.00  0.00    -0.004 C 
ATOM     23  C   UNL     1      36.158 -18.283 -21.299  0.00  0.00    +0.092 C 
ATOM     24  C   UNL     1      33.717 -19.447 -20.940  0.00  0.00    +0.014 C 
ATOM     25  C   UNL     1      34.897 -20.030 -20.505  0.00  0.00    +0.059 C 
BRANCH  25  26
ATOM     26  C   UNL     1      34.848 -21.349 -19.808  0.00  0.00    +0.055 C 
BRANCH  26  27
ATOM     27  C   UNL     1      33.427 -21.722 -19.372  0.00  0.00    +0.093 C 
BRANCH  27  30
ATOM     28  O   UNL     1      34.401 -23.195 -17.717  0.00  0.00    -0.273 OA
ATOM     29  N   UNL     1      32.134 -22.759 -17.644  0.00  0.00    -0.197 N 
ATOM     30  C   UNL     1      33.402 -22.637 -18.161  0.00  0.00    +0.245 C 
ATOM     31  H   UNL     1      31.362 -22.290 -18.037  0.00  0.00    +0.182 HD
BRANCH  29  32
ATOM     32  O   UNL     1      32.009 -23.590 -16.524  0.00  0.00    -0.295 OA
ATOM     33  H   UNL     1      32.800 -24.146 -16.443  0.00  0.00    +0.241 HD
ENDBRANCH  29  32
ENDBRANCH  27  30
ENDBRANCH  26  27
ENDBRANCH  25  26
ENDBRANCH  19  21
ENDBRANCH   1  19
TORSDOF 11
ENDMDL
MODEL 4
REMARK VINA RESULT:      -9.7      7.131     13.308
REMARK  Name = 53630042
REMARK  11 active torsions:
REMARK  status: ('A' for Active; 'I' for Inactive)
REMARK    1  A    between atoms: N_1  and  C_4
REMARK    2  A    between atoms: N_1  and  C_19
REMARK    3  A    between atoms: C_4  and  C_5
REMARK    4  A    between atoms: C_4  and  C_12
REMARK    5  A    between atoms: C_12  and  O_13
REMARK    6  A    between atoms: O_13  and  C_14
REMARK    7  A    between atoms: C_19  and  C_21
REMARK    8  A    between atoms: C_25  and  C_26
REMARK    9  A    between atoms: C_26  and  C_27
REMARK   10  A    between atoms: C_27  and  C_30
REMARK   11  A    between atoms: N_29  and  O_32
REMARK                            x       y       z     vdW  Elec       q    Type
REMARK                         _______ _______ _______ _____ _____    ______ ____
ROOT
ATOM      1  N   UNL     1      32.267 -12.545 -22.932  0.00  0.00    +0.395 N 
ATOM      2  H   UNL     1      32.753 -13.071 -23.659  0.00  0.00    -0.083 HD
ATOM      3  H   UNL     1      31.282 -12.430 -23.173  0.00  0.00    -0.083 HD
ENDROOT
BRANCH   1   4
ATOM      4  C   UNL     1      32.876 -11.224 -22.810  0.00  0.00    +0.040 C 
BRANCH   4   5
ATOM      5  C   UNL     1      33.411 -10.780 -24.171  0.00  0.00    -0.009 C 
ATOM      6  C   UNL     1      33.718 -11.996 -25.055  0.00  0.00    -0.002 C 
ATOM      7  C   UNL     1      34.656  -9.898 -24.002  0.00  0.00    -0.002 C 
ATOM      8  C   UNL     1      35.242  -9.485 -25.350  0.00  0.00    -0.000 C 
ATOM      9  C   UNL     1      34.306 -11.580 -26.402  0.00  0.00    -0.000 C 
ATOM     10  C   UNL     1      35.538 -10.696 -26.230  0.00  0.00    -0.000 C 
ENDBRANCH   4   5
BRANCH   4  12
ATOM     11  O   UNL     1      31.189 -10.371 -21.272  0.00  0.00    -0.252 OA
ATOM     12  C   UNL     1      31.821 -10.256 -22.314  0.00  0.00    +0.297 C 
BRANCH  12  13
ATOM     13  O   UNL     1      31.693  -9.232 -23.209  0.00  0.00    -0.454 OA
BRANCH  13  14
ATOM     14  C   UNL     1      31.441  -7.950 -22.645  0.00  0.00    +0.169 C 
ATOM     15  C   UNL     1      32.748  -7.281 -22.247  0.00  0.00    +0.044 C 
ATOM     16  C   UNL     1      30.896  -7.022 -23.720  0.00  0.00    +0.044 C 
ATOM     17  C   UNL     1      32.130  -6.572 -24.500  0.00  0.00    +0.004 C 
ATOM     18  C   UNL     1      33.323  -6.766 -23.563  0.00  0.00    +0.004 C 
ENDBRANCH  13  14
ENDBRANCH  12  13
ENDBRANCH   4  12
ENDBRANCH   1   4
BRANCH   1  19
ATOM     19  C   UNL     1      32.356 -13.274 -21.675  0.00  0.00    -0.052 C 
BRANCH  19  21
ATOM     20  N   UNL     1      34.212 -16.206 -23.188  0.00  0.00    -0.249 NA
ATOM     21  C   UNL     1      33.235 -14.490 -21.793  0.00  0.00    -0.025 C 
ATOM     22  C   UNL     1      33.871 -15.024 -20.678  0.00  0.00    -0.004 C 
ATOM     23  C   UNL     1      33.437 -15.113 -23.014  0.00  0.00    +0.092 C 
ATOM     24  C   UNL     1      34.677 -16.149 -20.816  0.00  0.00    +0.014 C 
ATOM     25  C   UNL     1      34.813 -16.697 -22.082  0.00  0.00    +0.059 C 
BRANCH  25  26
ATOM     26  C   UNL     1      35.671 -17.904 -22.269  0.00  0.00    +0.055 C 
BRANCH  26  27
ATOM     27  C   UNL     1      34.846 -19.189 -22.391  0.00  0.00    +0.093 C 
BRANCH  27  30
ATOM     28  O   UNL     1      35.286 -20.055 -20.175  0.00  0.00    -0.273 OA
ATOM     29  N   UNL     1      33.108 -19.962 -20.938  0.00  0.00    -0.197 N 
ATOM     30  C   UNL     1      34.466 -19.778 -21.046  0.00  0.00    +0.245 C 
ATOM     31  H   UNL     1      32.489 -19.724 -21.665  0.00  0.00    +0.182 HD
BRANCH  29  32
ATOM     32  O   UNL     1      32.660 -20.508 -19.727  0.00  0.00    -0.295 OA
ATOM     33  H   UNL     1      32.605 -21.473 -19.809  0.00  0.00    +0.241 HD
ENDBRANCH  29  32
ENDBRANCH  27  30
ENDBRANCH  26  27
ENDBRANCH  25  26
ENDBRANCH  19  21
ENDBRANCH   1  19
TORSDOF 11
ENDMDL
MODEL 5
REMARK VINA RESULT:      -9.7      8.280     12.201
REMARK  Name = 53630042
REMARK  11 active torsions:
REMARK  status: ('A' for Active; 'I' for Inactive)
REMARK    1  A    between atoms: N_1  and  C_4
REMARK    2  A    between atoms: N_1  and  C_19
REMARK    3  A    between atoms: C_4  and  C_5
REMARK    4  A    between atoms: C_4  and  C_12
REMARK    5  A    between atoms: C_12  and  O_13
REMARK    6  A    between atoms: O_13  and  C_14
REMARK    7  A    between atoms: C_19  and  C_21
REMARK    8  A    between atoms: C_25  and  C_26
REMARK    9  A    between atoms: C_26  and  C_27
REMARK   10  A    between atoms: C_27  and  C_30
REMARK   11  A    between atoms: N_29  and  O_32
REMARK                            x       y       z     vdW  Elec       q    Type
REMARK                         _______ _______ _______ _____ _____    ______ ____
ROOT
ATOM      1  N   UNL     1      33.084 -13.364 -24.990  0.00  0.00    +0.395 N 
ATOM      2  H   UNL     1      32.521 -12.920 -24.264  0.00  0.00    -0.083 HD
ATOM      3  H   UNL     1      32.483 -13.788 -25.697  0.00  0.00    -0.083 HD
ENDROOT
BRANCH   1   4
ATOM      4  C   UNL     1      33.905 -14.408 -24.386  0.00  0.00    +0.040 C 
BRANCH   4   5
ATOM      5  C   UNL     1      33.411 -14.691 -22.968  0.00  0.00    -0.009 C 
ATOM      6  C   UNL     1      32.337 -13.676 -22.556  0.00  0.00    -0.002 C 
ATOM      7  C   UNL     1      34.582 -14.683 -21.975  0.00  0.00    -0.002 C 
ATOM      8  C   UNL     1      34.107 -14.910 -20.542  0.00  0.00    -0.000 C 
ATOM      9  C   UNL     1      31.866 -13.905 -21.121  0.00  0.00    -0.000 C 
ATOM     10  C   UNL     1      33.032 -13.905 -20.139  0.00  0.00    -0.000 C 
ENDBRANCH   4   5
BRANCH   4  12
ATOM     11  O   UNL     1      33.704 -15.667 -26.464  0.00  0.00    -0.252 OA
ATOM     12  C   UNL     1      33.800 -15.653 -25.243  0.00  0.00    +0.297 C 
BRANCH  12  13
ATOM     13  O   UNL     1      33.838 -16.758 -24.439  0.00  0.00    -0.454 OA
BRANCH  13  14
ATOM     14  C   UNL     1      34.988 -17.583 -24.582  0.00  0.00    +0.169 C 
ATOM     15  C   UNL     1      35.878 -17.469 -23.353  0.00  0.00    +0.044 C 
ATOM     16  C   UNL     1      34.568 -19.045 -24.566  0.00  0.00    +0.044 C 
ATOM     17  C   UNL     1      34.368 -19.370 -23.086  0.00  0.00    +0.004 C 
ATOM     18  C   UNL     1      35.186 -18.339 -22.308  0.00  0.00    +0.004 C 
ENDBRANCH  13  14
ENDBRANCH  12  13
ENDBRANCH   4  12
ENDBRANCH   1   4
BRANCH   1  19
ATOM     19  C   UNL     1      33.916 -12.356 -25.631  0.00  0.00    -0.052 C 
BRANCH  19  21
ATOM     20  N   UNL     1      32.840  -9.587 -23.285  0.00  0.00    -0.249 NA
ATOM     21  C   UNL     1      33.930 -11.065 -24.859  0.00  0.00    -0.025 C 
ATOM     22  C   UNL     1      34.987 -10.170 -24.978  0.00  0.00    -0.004 C 
ATOM     23  C   UNL     1      32.890 -10.729 -24.006  0.00  0.00    +0.092 C 
ATOM     24  C   UNL     1      34.973  -8.984 -24.252  0.00  0.00    +0.014 C 
ATOM     25  C   UNL     1      33.885  -8.742 -23.428  0.00  0.00    +0.059 C 
BRANCH  25  26
ATOM     26  C   UNL     1      33.835  -7.480 -22.633  0.00  0.00    +0.055 C 
BRANCH  26  27
ATOM     27  C   UNL     1      32.530  -7.343 -21.842  0.00  0.00    +0.093 C 
BRANCH  27  30
ATOM     28  O   UNL     1      32.996  -6.980 -19.495  0.00  0.00    -0.273 OA
ATOM     29  N   UNL     1      32.404  -9.094 -20.214  0.00  0.00    -0.197 N 
ATOM     30  C   UNL     1      32.673  -7.758 -20.389  0.00  0.00    +0.245 C 
ATOM     31  H   UNL     1      32.148  -9.678 -20.965  0.00  0.00    +0.182 HD
BRANCH  29  32
ATOM     32  O   UNL     1      32.515  -9.572 -18.902  0.00  0.00    -0.295 OA
ATOM     33  H   UNL     1      31.637  -9.591 -18.489  0.00  0.00    +0.241 HD
ENDBRANCH  29  32
ENDBRANCH  27  30
ENDBRANCH  26  27
ENDBRANCH  25  26
ENDBRANCH  19  21
ENDBRANCH   1  19
TORSDOF 11
ENDMDL
MODEL 6
REMARK VINA RESULT:      -9.4      5.176     12.082
REMARK  Name = 53630042
REMARK  11 active torsions:
REMARK  status: ('A' for Active; 'I' for Inactive)
REMARK    1  A    between atoms: N_1  and  C_4
REMARK    2  A    between atoms: N_1  and  C_19
REMARK    3  A    between atoms: C_4  and  C_5
REMARK    4  A    between atoms: C_4  and  C_12
REMARK    5  A    between atoms: C_12  and  O_13
REMARK    6  A    between atoms: O_13  and  C_14
REMARK    7  A    between atoms: C_19  and  C_21
REMARK    8  A    between atoms: C_25  and  C_26
REMARK    9  A    between atoms: C_26  and  C_27
REMARK   10  A    between atoms: C_27  and  C_30
REMARK   11  A    between atoms: N_29  and  O_32
REMARK                            x       y       z     vdW  Elec       q    Type
REMARK                         _______ _______ _______ _____ _____    ______ ____
ROOT
ATOM      1  N   UNL     1      34.482 -14.569 -22.735  0.00  0.00    +0.395 N 
ATOM      2  H   UNL     1      34.440 -14.871 -21.762  0.00  0.00    -0.083 HD
ATOM      3  H   UNL     1      35.174 -13.828 -22.849  0.00  0.00    -0.083 HD
ENDROOT
BRANCH   1   4
ATOM      4  C   UNL     1      33.175 -14.052 -23.131  0.00  0.00    +0.040 C 
BRANCH   4   5
ATOM      5  C   UNL     1      32.787 -12.889 -22.218  0.00  0.00    -0.009 C 
ATOM      6  C   UNL     1      32.502 -13.389 -20.796  0.00  0.00    -0.002 C 
ATOM      7  C   UNL     1      31.577 -12.135 -22.787  0.00  0.00    -0.002 C 
ATOM      8  C   UNL     1      31.136 -11.001 -21.865  0.00  0.00    -0.000 C 
ATOM      9  C   UNL     1      32.060 -12.252 -19.877  0.00  0.00    -0.000 C 
ATOM     10  C   UNL     1      30.862 -11.499 -20.449  0.00  0.00    -0.000 C 
ENDBRANCH   4   5
BRANCH   4  12
ATOM     11  O   UNL     1      32.635 -14.068 -25.508  0.00  0.00    -0.252 OA
ATOM     12  C   UNL     1      33.262 -13.590 -24.572  0.00  0.00    +0.297 C 
BRANCH  12  13
ATOM     13  O   UNL     1      34.144 -12.549 -24.658  0.00  0.00    -0.454 OA
BRANCH  13  14
ATOM     14  C   UNL     1      33.745 -11.474 -25.501  0.00  0.00    +0.169 C 
ATOM     15  C   UNL     1      33.541 -10.208 -24.682  0.00  0.00    +0.044 C 
ATOM     16  C   UNL     1      34.895 -11.102 -26.425  0.00  0.00    +0.044 C 
ATOM     17  C   UNL     1      35.819 -10.245 -25.561  0.00  0.00    +0.004 C 
ATOM     18  C   UNL     1      34.955  -9.695 -24.425  0.00  0.00    +0.004 C 
ENDBRANCH  13  14
ENDBRANCH  12  13
ENDBRANCH   4  12
ENDBRANCH   1   4
BRANCH   1  19
ATOM     19  C   UNL     1      34.867 -15.697 -23.570  0.00  0.00    -0.052 C 
BRANCH  19  21
ATOM     20  N   UNL     1      35.160 -18.090 -20.651  0.00  0.00    -0.249 NA
ATOM     21  C   UNL     1      34.921 -16.982 -22.786  0.00  0.00    -0.025 C 
ATOM     22  C   UNL     1      34.793 -18.213 -23.419  0.00  0.00    -0.004 C 
ATOM     23  C   UNL     1      35.101 -16.975 -21.412  0.00  0.00    +0.092 C 
ATOM     24  C   UNL     1      34.848 -19.383 -22.670  0.00  0.00    +0.014 C 
ATOM     25  C   UNL     1      35.032 -19.268 -21.301  0.00  0.00    +0.059 C 
BRANCH  25  26
ATOM     26  C   UNL     1      35.094 -20.503 -20.465  0.00  0.00    +0.055 C 
BRANCH  26  27
ATOM     27  C   UNL     1      33.707 -20.963 -20.005  0.00  0.00    +0.093 C 
BRANCH  27  30
ATOM     28  O   UNL     1      34.578 -23.155 -19.466  0.00  0.00    -0.273 OA
ATOM     29  N   UNL     1      32.722 -22.369 -18.337  0.00  0.00    -0.197 N 
ATOM     30  C   UNL     1      33.740 -22.283 -19.257  0.00  0.00    +0.245 C 
ATOM     31  H   UNL     1      32.073 -21.641 -18.206  0.00  0.00    +0.182 HD
BRANCH  29  32
ATOM     32  O   UNL     1      32.667 -23.558 -17.598  0.00  0.00    -0.295 OA
ATOM     33  H   UNL     1      31.823 -24.005 -17.766  0.00  0.00    +0.241 HD
ENDBRANCH  29  32
ENDBRANCH  27  30
ENDBRANCH  26  27
ENDBRANCH  25  26
ENDBRANCH  19  21
ENDBRANCH   1  19
TORSDOF 11
ENDMDL
MODEL 7
REMARK VINA RESULT:      -9.3      8.022     13.943
REMARK  Name = 53630042
REMARK  11 active torsions:
REMARK  status: ('A' for Active; 'I' for Inactive)
REMARK    1  A    between atoms: N_1  and  C_4
REMARK    2  A    between atoms: N_1  and  C_19
REMARK    3  A    between atoms: C_4  and  C_5
REMARK    4  A    between atoms: C_4  and  C_12
REMARK    5  A    between atoms: C_12  and  O_13
REMARK    6  A    between atoms: O_13  and  C_14
REMARK    7  A    between atoms: C_19  and  C_21
REMARK    8  A    between atoms: C_25  and  C_26
REMARK    9  A    between atoms: C_26  and  C_27
REMARK   10  A    between atoms: C_27  and  C_30
REMARK   11  A    between atoms: N_29  and  O_32
REMARK                            x       y       z     vdW  Elec       q    Type
REMARK                         _______ _______ _______ _____ _____    ______ ____
ROOT
ATOM      1  N   UNL     1      33.447 -11.160 -23.364  0.00  0.00    +0.395 N 
ATOM      2  H   UNL     1      33.252 -11.716 -22.531  0.00  0.00    -0.083 HD
ATOM      3  H   UNL     1      34.400 -10.794 -23.333  0.00  0.00    -0.083 HD
ENDROOT
BRANCH   1   4
ATOM      4  C   UNL     1      32.517 -10.037 -23.419  0.00  0.00    +0.040 C 
BRANCH   4   5
ATOM      5  C   UNL     1      31.771  -9.926 -22.090  0.00  0.00    -0.009 C 
ATOM      6  C   UNL     1      32.579  -9.096 -21.084  0.00  0.00    -0.002 C 
ATOM      7  C   UNL     1      31.460 -11.319 -21.525  0.00  0.00    -0.002 C 
ATOM      8  C   UNL     1      30.762 -11.235 -20.170  0.00  0.00    -0.000 C 
ATOM      9  C   UNL     1      31.879  -9.015 -19.728  0.00  0.00    -0.000 C 
ATOM     10  C   UNL     1      31.563 -10.401 -19.175  0.00  0.00    -0.000 C 
ENDBRANCH   4   5
BRANCH   4  12
ATOM     11  O   UNL     1      34.528  -8.678 -23.642  0.00  0.00    -0.252 OA
ATOM     12  C   UNL     1      33.308  -8.774 -23.692  0.00  0.00    +0.297 C 
BRANCH  12  13
ATOM     13  O   UNL     1      32.446  -7.762 -24.010  0.00  0.00    -0.454 OA
BRANCH  13  14
ATOM     14  C   UNL     1      32.919  -6.446 -23.747  0.00  0.00    +0.169 C 
ATOM     15  C   UNL     1      32.484  -5.497 -24.855  0.00  0.00    +0.044 C 
ATOM     16  C   UNL     1      32.211  -5.889 -22.522  0.00  0.00    +0.044 C 
ATOM     17  C   UNL     1      30.850  -5.428 -23.043  0.00  0.00    +0.004 C 
ATOM     18  C   UNL     1      31.019  -5.206 -24.546  0.00  0.00    +0.004 C 
ENDBRANCH  13  14
ENDBRANCH  12  13
ENDBRANCH   4  12
ENDBRANCH   1   4
BRANCH   1  19
ATOM     19  C   UNL     1      33.312 -12.003 -24.543  0.00  0.00    -0.052 C 
BRANCH  19  21
ATOM     20  N   UNL     1      33.804 -15.728 -25.013  0.00  0.00    -0.249 NA
ATOM     21  C   UNL     1      33.668 -13.436 -24.251  0.00  0.00    -0.025 C 
ATOM     22  C   UNL     1      34.171 -13.812 -23.011  0.00  0.00    -0.004 C 
ATOM     23  C   UNL     1      33.505 -14.424 -25.210  0.00  0.00    +0.092 C 
ATOM     24  C   UNL     1      34.490 -15.143 -22.769  0.00  0.00    +0.014 C 
ATOM     25  C   UNL     1      34.290 -16.054 -23.795  0.00  0.00    +0.059 C 
BRANCH  25  26
ATOM     26  C   UNL     1      34.622 -17.492 -23.573  0.00  0.00    +0.055 C 
BRANCH  26  27
ATOM     27  C   UNL     1      35.632 -17.684 -22.436  0.00  0.00    +0.093 C 
BRANCH  27  30
ATOM     28  O   UNL     1      34.376 -19.643 -21.773  0.00  0.00    -0.273 OA
ATOM     29  N   UNL     1      36.303 -19.096 -20.624  0.00  0.00    -0.197 N 
ATOM     30  C   UNL     1      35.348 -18.915 -21.595  0.00  0.00    +0.245 C 
ATOM     31  H   UNL     1      37.067 -18.483 -20.520  0.00  0.00    +0.182 HD
BRANCH  29  32
ATOM     32  O   UNL     1      36.123 -20.208 -19.791  0.00  0.00    -0.295 OA
ATOM     33  H   UNL     1      36.836 -20.847 -19.945  0.00  0.00    +0.241 HD
ENDBRANCH  29  32
ENDBRANCH  27  30
ENDBRANCH  26  27
ENDBRANCH  25  26
ENDBRANCH  19  21
ENDBRANCH   1  19
TORSDOF 11
ENDMDL
MODEL 8
REMARK VINA RESULT:      -9.2      5.902     12.341
REMARK  Name = 53630042
REMARK  11 active torsions:
REMARK  status: ('A' for Active; 'I' for Inactive)
REMARK    1  A    between atoms: N_1  and  C_4
REMARK    2  A    between atoms: N_1  and  C_19
REMARK    3  A    between atoms: C_4  and  C_5
REMARK    4  A    between atoms: C_4  and  C_12
REMARK    5  A    between atoms: C_12  and  O_13
REMARK    6  A    between atoms: O_13  and  C_14
REMARK    7  A    between atoms: C_19  and  C_21
REMARK    8  A    between atoms: C_25  and  C_26
REMARK    9  A    between atoms: C_26  and  C_27
REMARK   10  A    between atoms: C_27  and  C_30
REMARK   11  A    between atoms: N_29  and  O_32
REMARK                            x       y       z     vdW  Elec       q    Type
REMARK                         _______ _______ _______ _____ _____    ______ ____
ROOT
ATOM      1  N   UNL     1      33.246 -14.040 -22.483  0.00  0.00    +0.395 N 
ATOM      2  H   UNL     1      32.957 -14.743 -23.163  0.00  0.00    -0.083 HD
ATOM      3  H   UNL     1      32.581 -13.998 -21.710  0.00  0.00    -0.083 HD
ENDROOT
BRANCH   1   4
ATOM      4  C   UNL     1      33.289 -12.734 -23.133  0.00  0.00    +0.040 C 
BRANCH   4   5
ATOM      5  C   UNL     1      32.941 -12.888 -24.613  0.00  0.00    -0.009 C 
ATOM      6  C   UNL     1      33.002 -14.363 -25.033  0.00  0.00    -0.002 C 
ATOM      7  C   UNL     1      33.876 -12.033 -25.481  0.00  0.00    -0.002 C 
ATOM      8  C   UNL     1      33.583 -12.212 -26.969  0.00  0.00    -0.000 C 
ATOM      9  C   UNL     1      32.710 -14.538 -26.522  0.00  0.00    -0.000 C 
ATOM     10  C   UNL     1      33.634 -13.680 -27.381  0.00  0.00    -0.000 C 
ENDBRANCH   4   5
BRANCH   4  12
ATOM     11  O   UNL     1      31.426 -12.189 -21.659  0.00  0.00    -0.252 OA
ATOM     12  C   UNL     1      32.291 -11.825 -22.445  0.00  0.00    +0.297 C 
BRANCH  12  13
ATOM     13  O   UNL     1      32.515 -10.534 -22.834  0.00  0.00    -0.454 OA
BRANCH  13  14
ATOM     14  C   UNL     1      31.604  -9.570 -22.321  0.00  0.00    +0.169 C 
ATOM     15  C   UNL     1      32.247  -8.784 -21.188  0.00  0.00    +0.044 C 
ATOM     16  C   UNL     1      31.348  -8.503 -23.375  0.00  0.00    +0.044 C 
ATOM     17  C   UNL     1      32.563  -7.580 -23.289  0.00  0.00    +0.004 C 
ATOM     18  C   UNL     1      33.156  -7.783 -21.894  0.00  0.00    +0.004 C 
ENDBRANCH  13  14
ENDBRANCH  12  13
ENDBRANCH   4  12
ENDBRANCH   1   4
BRANCH   1  19
ATOM     19  C   UNL     1      34.553 -14.398 -21.953  0.00  0.00    -0.052 C 
BRANCH  19  21
ATOM     20  N   UNL     1      35.029 -17.924 -20.658  0.00  0.00    -0.249 NA
ATOM     21  C   UNL     1      34.763 -15.888 -21.937  0.00  0.00    -0.025 C 
ATOM     22  C   UNL     1      34.887 -16.607 -23.120  0.00  0.00    -0.004 C 
ATOM     23  C   UNL     1      34.841 -16.588 -20.743  0.00  0.00    +0.092 C 
ATOM     24  C   UNL     1      35.081 -17.983 -23.075  0.00  0.00    +0.014 C 
ATOM     25  C   UNL     1      35.144 -18.588 -21.829  0.00  0.00    +0.059 C 
BRANCH  25  26
ATOM     26  C   UNL     1      35.351 -20.064 -21.742  0.00  0.00    +0.055 C 
BRANCH  26  27
ATOM     27  C   UNL     1      35.874 -20.496 -20.368  0.00  0.00    +0.093 C 
BRANCH  27  30
ATOM     28  O   UNL     1      35.268 -22.398 -19.001  0.00  0.00    -0.273 OA
ATOM     29  N   UNL     1      33.611 -20.979 -19.758  0.00  0.00    -0.197 N 
ATOM     30  C   UNL     1      34.911 -21.405 -19.628  0.00  0.00    +0.245 C 
ATOM     31  H   UNL     1      33.373 -20.174 -20.273  0.00  0.00    +0.182 HD
BRANCH  29  32
ATOM     32  O   UNL     1      32.645 -21.761 -19.110  0.00  0.00    -0.295 OA
ATOM     33  H   UNL     1      32.351 -21.310 -18.303  0.00  0.00    +0.241 HD
ENDBRANCH  29  32
ENDBRANCH  27  30
ENDBRANCH  26  27
ENDBRANCH  25  26
ENDBRANCH  19  21
ENDBRANCH   1  19
TORSDOF 11
ENDMDL
MODEL 9
REMARK VINA RESULT:      -9.2      8.424     13.106
REMARK  Name = 53630042
REMARK  11 active torsions:
REMARK  status: ('A' for Active; 'I' for Inactive)
REMARK    1  A    between atoms: N_1  and  C_4
REMARK    2  A    between atoms: N_1  and  C_19
REMARK    3  A    between atoms: C_4  and  C_5
REMARK    4  A    between atoms: C_4  and  C_12
REMARK    5  A    between atoms: C_12  and  O_13
REMARK    6  A    between atoms: O_13  and  C_14
REMARK    7  A    between atoms: C_19  and  C_21
REMARK    8  A    between atoms: C_25  and  C_26
REMARK    9  A    between atoms: C_26  and  C_27
REMARK   10  A    between atoms: C_27  and  C_30
REMARK   11  A    between atoms: N_29  and  O_32
REMARK                            x       y       z     vdW  Elec       q    Type
REMARK                         _______ _______ _______ _____ _____    ______ ____
ROOT
ATOM      1  N   UNL     1      33.171 -13.060 -21.985  0.00  0.00    +0.395 N 
ATOM      2  H   UNL     1      33.747 -12.335 -22.414  0.00  0.00    -0.083 HD
ATOM      3  H   UNL     1      33.564 -13.342 -21.087  0.00  0.00    -0.083 HD
ENDROOT
BRANCH   1   4
ATOM      4  C   UNL     1      33.132 -14.223 -22.865  0.00  0.00    +0.040 C 
BRANCH   4   5
ATOM      5  C   UNL     1      33.648 -13.834 -24.250  0.00  0.00    -0.009 C 
ATOM      6  C   UNL     1      33.770 -12.310 -24.373  0.00  0.00    -0.002 C 
ATOM      7  C   UNL     1      32.736 -14.401 -25.347  0.00  0.00    -0.002 C 
ATOM      8  C   UNL     1      33.201 -13.981 -26.739  0.00  0.00    -0.000 C 
ATOM      9  C   UNL     1      34.234 -11.892 -25.768  0.00  0.00    -0.000 C 
ATOM     10  C   UNL     1      33.330 -12.465 -26.856  0.00  0.00    -0.000 C 
ENDBRANCH   4   5
BRANCH   4  12
ATOM     11  O   UNL     1      34.668 -15.194 -21.241  0.00  0.00    -0.252 OA
ATOM     12  C   UNL     1      34.000 -15.308 -22.261  0.00  0.00    +0.297 C 
BRANCH  12  13
ATOM     13  O   UNL     1      33.912 -16.435 -23.028  0.00  0.00    -0.454 OA
BRANCH  13  14
ATOM     14  C   UNL     1      35.130 -16.874 -23.619  0.00  0.00    +0.169 C 
ATOM     15  C   UNL     1      35.615 -18.149 -22.947  0.00  0.00    +0.044 C 
ATOM     16  C   UNL     1      34.867 -17.319 -25.049  0.00  0.00    +0.044 C 
ATOM     17  C   UNL     1      34.286 -18.726 -24.912  0.00  0.00    +0.004 C 
ATOM     18  C   UNL     1      34.742 -19.246 -23.549  0.00  0.00    +0.004 C 
ENDBRANCH  13  14
ENDBRANCH  12  13
ENDBRANCH   4  12
ENDBRANCH   1   4
BRANCH   1  19
ATOM     19  C   UNL     1      31.832 -12.535 -21.761  0.00  0.00    -0.052 C 
BRANCH  19  21
ATOM     20  N   UNL     1      31.880  -8.772 -22.172  0.00  0.00    -0.249 NA
ATOM     21  C   UNL     1      31.853 -11.069 -21.418  0.00  0.00    -0.025 C 
ATOM     22  C   UNL     1      31.867 -10.643 -20.095  0.00  0.00    -0.004 C 
ATOM     23  C   UNL     1      31.860 -10.102 -22.411  0.00  0.00    +0.092 C 
ATOM     24  C   UNL     1      31.888  -9.283 -19.808  0.00  0.00    +0.014 C 
ATOM     25  C   UNL     1      31.894  -8.396 -20.874  0.00  0.00    +0.059 C 
BRANCH  25  26
ATOM     26  C   UNL     1      31.914  -6.928 -20.605  0.00  0.00    +0.055 C 
BRANCH  26  27
ATOM     27  C   UNL     1      32.062  -6.105 -21.889  0.00  0.00    +0.093 C 
BRANCH  27  30
ATOM     28  O   UNL     1      29.756  -5.375 -21.951  0.00  0.00    -0.273 OA
ATOM     29  N   UNL     1      31.433  -3.853 -22.403  0.00  0.00    -0.197 N 
ATOM     30  C   UNL     1      30.945  -5.095 -22.075  0.00  0.00    +0.245 C 
ATOM     31  H   UNL     1      32.398  -3.678 -22.491  0.00  0.00    +0.182 HD
BRANCH  29  32
ATOM     32  O   UNL     1      30.473  -2.853 -22.601  0.00  0.00    -0.295 OA
ATOM     33  H   UNL     1      29.633  -3.258 -22.868  0.00  0.00    +0.241 HD
ENDBRANCH  29  32
ENDBRANCH  27  30
ENDBRANCH  26  27
ENDBRANCH  25  26
ENDBRANCH  19  21
ENDBRANCH   1  19
TORSDOF 11
ENDMDL
