MODEL 1
REMARK VINA RESULT:      -2.2      0.000      0.000
REMARK  Name = 24341
REMARK  0 active torsions:
REMARK  status: ('A' for Active; 'I' for Inactive)
REMARK                            x       y       z     vdW  Elec       q    Type
REMARK                         _______ _______ _______ _____ _____    ______ ____
ROOT
ATOM      1 CL   UNL     1      40.723 -13.703 -14.437  0.00  0.00    +0.058 Cl
ATOM      2  O   UNL     1      40.911 -13.278 -12.829  0.00  0.00    -0.294 OA
ATOM      3  H   UNL     1      40.434 -13.912 -12.269  0.00  0.00    +0.235 HD
ENDROOT
TORSDOF 0
ENDMDL
MODEL 2
REMARK VINA RESULT:      -2.1     12.694     12.694
REMARK  Name = 24341
REMARK  0 active torsions:
REMARK  status: ('A' for Active; 'I' for Inactive)
REMARK                            x       y       z     vdW  Elec       q    Type
REMARK                         _______ _______ _______ _____ _____    ______ ____
ROOT
ATOM      1 CL   UNL     1      40.500 -25.970 -14.385  0.00  0.00    +0.058 Cl
ATOM      2  O   UNL     1      40.458 -25.971 -16.058  0.00  0.00    -0.294 OA
ATOM      3  H   UNL     1      39.926 -26.721 -16.368  0.00  0.00    +0.235 HD
ENDROOT
TORSDOF 0
ENDMDL
MODEL 3
REMARK VINA RESULT:      -2.0     16.906     16.906
REMARK  Name = 24341
REMARK  0 active torsions:
REMARK  status: ('A' for Active; 'I' for Inactive)
REMARK                            x       y       z     vdW  Elec       q    Type
REMARK                         _______ _______ _______ _____ _____    ______ ____
ROOT
ATOM      1 CL   UNL     1      26.402 -21.599 -17.246  0.00  0.00    +0.058 Cl
ATOM      2  O   UNL     1      26.006 -20.160 -18.003  0.00  0.00    -0.294 OA
ATOM      3  H   UNL     1      26.536 -20.063 -18.810  0.00  0.00    +0.235 HD
ENDROOT
TORSDOF 0
ENDMDL
MODEL 4
REMARK VINA RESULT:      -2.0     14.634     14.634
REMARK  Name = 24341
REMARK  0 active torsions:
REMARK  status: ('A' for Active; 'I' for Inactive)
REMARK                            x       y       z     vdW  Elec       q    Type
REMARK                         _______ _______ _______ _____ _____    ______ ____
ROOT
ATOM      1 CL   UNL     1      36.811 -26.837 -15.354  0.00  0.00    +0.058 Cl
ATOM      2  O   UNL     1      36.746 -27.645 -16.819  0.00  0.00    -0.294 OA
ATOM      3  H   UNL     1      37.629 -27.658 -17.220  0.00  0.00    +0.235 HD
ENDROOT
TORSDOF 0
ENDMDL
MODEL 5
REMARK VINA RESULT:      -2.0     14.408     14.408
REMARK  Name = 24341
REMARK  0 active torsions:
REMARK  status: ('A' for Active; 'I' for Inactive)
REMARK                            x       y       z     vdW  Elec       q    Type
REMARK                         _______ _______ _______ _____ _____    ______ ____
ROOT
ATOM      1 CL   UNL     1      42.310 -20.683 -26.564  0.00  0.00    +0.058 Cl
ATOM      2  O   UNL     1      42.849 -21.226 -25.075  0.00  0.00    -0.294 OA
ATOM      3  H   UNL     1      43.817 -21.156 -25.037  0.00  0.00    +0.235 HD
ENDROOT
TORSDOF 0
ENDMDL
MODEL 6
REMARK VINA RESULT:      -2.0     16.998     16.998
REMARK  Name = 24341
REMARK  0 active torsions:
REMARK  status: ('A' for Active; 'I' for Inactive)
REMARK                            x       y       z     vdW  Elec       q    Type
REMARK                         _______ _______ _______ _____ _____    ______ ____
ROOT
ATOM      1 CL   UNL     1      27.126 -22.185 -15.991  0.00  0.00    +0.058 Cl
ATOM      2  O   UNL     1      25.569 -22.037 -15.395  0.00  0.00    -0.294 OA
ATOM      3  H   UNL     1      25.202 -21.178 -15.660  0.00  0.00    +0.235 HD
ENDROOT
TORSDOF 0
ENDMDL
MODEL 7
REMARK VINA RESULT:      -1.9     12.789     12.789
REMARK  Name = 24341
REMARK  0 active torsions:
REMARK  status: ('A' for Active; 'I' for Inactive)
REMARK                            x       y       z     vdW  Elec       q    Type
REMARK                         _______ _______ _______ _____ _____    ______ ____
ROOT
ATOM      1 CL   UNL     1      32.886 -20.273 -20.203  0.00  0.00    +0.058 Cl
ATOM      2  O   UNL     1      32.844 -21.914 -19.875  0.00  0.00    -0.294 OA
ATOM      3  H   UNL     1      32.128 -22.099 -19.246  0.00  0.00    +0.235 HD
ENDROOT
TORSDOF 0
ENDMDL
MODEL 8
REMARK VINA RESULT:      -1.9     12.948     12.948
REMARK  Name = 24341
REMARK  0 active torsions:
REMARK  status: ('A' for Active; 'I' for Inactive)
REMARK                            x       y       z     vdW  Elec       q    Type
REMARK                         _______ _______ _______ _____ _____    ______ ____
ROOT
ATOM      1 CL   UNL     1      35.552 -10.333 -25.772  0.00  0.00    +0.058 Cl
ATOM      2  O   UNL     1      35.420 -10.004 -24.136  0.00  0.00    -0.294 OA
ATOM      3  H   UNL     1      34.525  -9.684 -23.942  0.00  0.00    +0.235 HD
ENDROOT
TORSDOF 0
ENDMDL
MODEL 9
REMARK VINA RESULT:      -1.8     12.501     12.501
REMARK  Name = 24341
REMARK  0 active torsions:
REMARK  status: ('A' for Active; 'I' for Inactive)
REMARK                            x       y       z     vdW  Elec       q    Type
REMARK                         _______ _______ _______ _____ _____    ______ ____
ROOT
ATOM      1 CL   UNL     1      35.913 -24.165 -11.148  0.00  0.00    +0.058 Cl
ATOM      2  O   UNL     1      35.325 -24.582  -9.637  0.00  0.00    -0.294 OA
ATOM      3  H   UNL     1      34.484 -24.123  -9.480  0.00  0.00    +0.235 HD
ENDROOT
TORSDOF 0
ENDMDL
