MODEL 1
REMARK VINA RESULT:      -9.6      0.000      0.000
REMARK  Name = 11840930
REMARK  11 active torsions:
REMARK  status: ('A' for Active; 'I' for Inactive)
REMARK    1  A    between atoms: C_1  and  C_4
REMARK    2  A    between atoms: C_1  and  N_14
REMARK    3  A    between atoms: C_1  and  C_29
REMARK    4  A    between atoms: N_3  and  C_6
REMARK    5  A    between atoms: C_6  and  C_9
REMARK    6  A    between atoms: C_9  and  N_10
REMARK    7  A    between atoms: N_14  and  C_17
REMARK    8  A    between atoms: C_17  and  C_19
REMARK    9  A    between atoms: C_17  and  C_28
REMARK   10  A    between atoms: C_29  and  S_30
REMARK   11  A    between atoms: S_30  and  N_34
REMARK                            x       y       z     vdW  Elec       q    Type
REMARK                         _______ _______ _______ _____ _____    ______ ____
ROOT
ATOM      1  C   UNL     1      35.175 -23.697 -13.988  0.00  0.00    +0.043 C 
ENDROOT
BRANCH   1   4
ATOM      2  O   UNL     1      33.405 -25.350 -13.878  0.00  0.00    -0.277 OA
ATOM      3  N   UNL     1      32.849 -23.158 -14.397  0.00  0.00    -0.311 N 
ATOM      4  C   UNL     1      33.730 -24.179 -14.067  0.00  0.00    +0.204 C 
ATOM      5  H   UNL     1      33.204 -22.250 -14.527  0.00  0.00    +0.149 HD
BRANCH   3   6
ATOM      6  C   UNL     1      31.439 -23.379 -14.554  0.00  0.00    +0.037 C 
ATOM      7  C   UNL     1      30.685 -22.633 -15.615  0.00  0.00    +0.017 C 
ATOM      8  C   UNL     1      30.931 -24.106 -15.764  0.00  0.00    +0.017 C 
BRANCH   6   9
ATOM      9  C   UNL     1      30.721 -23.630 -13.270  0.00  0.00    -0.068 C 
BRANCH   9  10
ATOM     10  N   UNL     1      30.376 -25.038 -13.121  0.00  0.00    +0.382 N 
ATOM     11  H   UNL     1      30.617 -25.540 -13.976  0.00  0.00    -0.089 HD
ATOM     12  H   UNL     1      29.375 -25.127 -12.946  0.00  0.00    -0.089 HD
ATOM     13  H   UNL     1      30.895 -25.435 -12.337  0.00  0.00    -0.089 HD
ENDBRANCH   9  10
ENDBRANCH   6   9
ENDBRANCH   3   6
ENDBRANCH   1   4
BRANCH   1  14
ATOM     14  N   UNL     1      35.264 -22.547 -14.886  0.00  0.00    +0.401 N 
ATOM     15  H   UNL     1      35.711 -21.772 -14.394  0.00  0.00    -0.083 HD
ATOM     16  H   UNL     1      34.322 -22.285 -15.176  0.00  0.00    -0.083 HD
BRANCH  14  17
ATOM     17  C   UNL     1      36.043 -22.875 -16.069  0.00  0.00    +0.059 C 
BRANCH  17  19
ATOM     18  F   UNL     1      33.481 -21.158 -20.797  0.00  0.00    -0.204 F 
ATOM     19  C   UNL     1      35.355 -22.414 -17.338  0.00  0.00    -0.034 C 
ATOM     20  C   UNL     1      36.073 -21.706 -18.303  0.00  0.00    -0.004 C 
ATOM     21  C   UNL     1      34.005 -22.696 -17.542  0.00  0.00    -0.004 C 
ATOM     22  C   UNL     1      35.440 -21.282 -19.472  0.00  0.00    +0.029 C 
ATOM     23  C   UNL     1      33.371 -22.272 -18.710  0.00  0.00    +0.029 C 
ATOM     24  C   UNL     1      34.089 -21.565 -19.675  0.00  0.00    +0.140 C 
ENDBRANCH  17  19
BRANCH  17  28
ATOM     25  F   UNL     1      37.846 -22.298 -14.644  0.00  0.00    -0.172 F 
ATOM     26  F   UNL     1      38.346 -23.122 -16.595  0.00  0.00    -0.172 F 
ATOM     27  F   UNL     1      37.585 -21.081 -16.435  0.00  0.00    -0.172 F 
ATOM     28  C   UNL     1      37.463 -22.332 -15.943  0.00  0.00    +0.384 C 
ENDBRANCH  17  28
ENDBRANCH  14  17
ENDBRANCH   1  14
BRANCH   1  29
ATOM     29  C   UNL     1      35.563 -23.262 -12.577  0.00  0.00    +0.157 C 
BRANCH  29  30
ATOM     30  S   UNL     1      36.585 -24.463 -11.779  0.00  0.00    +0.042 S 
ATOM     31  O   UNL     1      37.595 -23.757 -11.010  0.00  0.00    -0.157 OA
ATOM     32  O   UNL     1      35.721 -25.446 -11.152  0.00  0.00    -0.157 OA
BRANCH  30  34
ATOM     33  O   UNL     1      38.877 -26.827 -14.846  0.00  0.00    -0.351 OA
ATOM     34  N   UNL     1      37.327 -25.169 -13.151  0.00  0.00    -0.154 NA
ATOM     35  C   UNL     1      36.906 -26.567 -13.462  0.00  0.00    +0.127 C 
ATOM     36  C   UNL     1      38.811 -25.029 -13.223  0.00  0.00    +0.127 C 
ATOM     37  C   UNL     1      37.453 -26.950 -14.829  0.00  0.00    +0.161 C 
ATOM     38  C   UNL     1      39.278 -25.477 -14.601  0.00  0.00    +0.161 C 
ENDBRANCH  30  34
ENDBRANCH  29  30
ENDBRANCH   1  29
TORSDOF 11
ENDMDL
MODEL 2
REMARK VINA RESULT:      -8.8      3.292      6.731
REMARK  Name = 11840930
REMARK  11 active torsions:
REMARK  status: ('A' for Active; 'I' for Inactive)
REMARK    1  A    between atoms: C_1  and  C_4
REMARK    2  A    between atoms: C_1  and  N_14
REMARK    3  A    between atoms: C_1  and  C_29
REMARK    4  A    between atoms: N_3  and  C_6
REMARK    5  A    between atoms: C_6  and  C_9
REMARK    6  A    between atoms: C_9  and  N_10
REMARK    7  A    between atoms: N_14  and  C_17
REMARK    8  A    between atoms: C_17  and  C_19
REMARK    9  A    between atoms: C_17  and  C_28
REMARK   10  A    between atoms: C_29  and  S_30
REMARK   11  A    between atoms: S_30  and  N_34
REMARK                            x       y       z     vdW  Elec       q    Type
REMARK                         _______ _______ _______ _____ _____    ______ ____
ROOT
ATOM      1  C   UNL     1      33.363 -23.631 -15.303  0.00  0.00    +0.043 C 
ENDROOT
BRANCH   1   4
ATOM      2  O   UNL     1      32.516 -23.386 -17.561  0.00  0.00    -0.277 OA
ATOM      3  N   UNL     1      34.664 -22.647 -17.094  0.00  0.00    -0.311 N 
ATOM      4  C   UNL     1      33.439 -23.212 -16.768  0.00  0.00    +0.204 C 
ATOM      5  H   UNL     1      35.343 -22.547 -16.389  0.00  0.00    +0.149 HD
BRANCH   3   6
ATOM      6  C   UNL     1      34.977 -22.201 -18.423  0.00  0.00    +0.037 C 
ATOM      7  C   UNL     1      34.400 -22.926 -19.604  0.00  0.00    +0.017 C 
ATOM      8  C   UNL     1      33.914 -21.548 -19.258  0.00  0.00    +0.017 C 
BRANCH   6   9
ATOM      9  C   UNL     1      36.365 -21.673 -18.570  0.00  0.00    -0.068 C 
BRANCH   9  10
ATOM     10  N   UNL     1      36.408 -20.548 -19.497  0.00  0.00    +0.382 N 
ATOM     11  H   UNL     1      37.095 -20.737 -20.228  0.00  0.00    -0.089 HD
ATOM     12  H   UNL     1      36.673 -19.702 -18.993  0.00  0.00    -0.089 HD
ATOM     13  H   UNL     1      35.489 -20.420 -19.920  0.00  0.00    -0.089 HD
ENDBRANCH   9  10
ENDBRANCH   6   9
ENDBRANCH   3   6
ENDBRANCH   1   4
BRANCH   1  14
ATOM     14  N   UNL     1      34.621 -23.198 -14.697  0.00  0.00    +0.401 N 
ATOM     15  H   UNL     1      34.446 -22.380 -14.111  0.00  0.00    -0.083 HD
ATOM     16  H   UNL     1      35.280 -22.965 -15.440  0.00  0.00    -0.083 HD
BRANCH  14  17
ATOM     17  C   UNL     1      35.192 -24.257 -13.881  0.00  0.00    +0.059 C 
BRANCH  17  19
ATOM     18  F   UNL     1      40.457 -25.516 -15.482  0.00  0.00    -0.204 F 
ATOM     19  C   UNL     1      36.606 -24.595 -14.311  0.00  0.00    -0.034 C 
ATOM     20  C   UNL     1      37.158 -25.834 -13.981  0.00  0.00    -0.004 C 
ATOM     21  C   UNL     1      37.355 -23.669 -15.036  0.00  0.00    -0.004 C 
ATOM     22  C   UNL     1      38.459 -26.145 -14.377  0.00  0.00    +0.029 C 
ATOM     23  C   UNL     1      38.656 -23.979 -15.432  0.00  0.00    +0.029 C 
ATOM     24  C   UNL     1      39.207 -25.217 -15.103  0.00  0.00    +0.140 C 
ENDBRANCH  17  19
BRANCH  17  28
ATOM     25  F   UNL     1      35.189 -25.016 -11.636  0.00  0.00    -0.172 F 
ATOM     26  F   UNL     1      36.115 -23.088 -12.032  0.00  0.00    -0.172 F 
ATOM     27  F   UNL     1      33.941 -23.285 -12.087  0.00  0.00    -0.172 F 
ATOM     28  C   UNL     1      35.100 -23.902 -12.401  0.00  0.00    +0.384 C 
ENDBRANCH  17  28
ENDBRANCH  14  17
ENDBRANCH   1  14
BRANCH   1  29
ATOM     29  C   UNL     1      32.200 -22.966 -14.572  0.00  0.00    +0.157 C 
BRANCH  29  30
ATOM     30  S   UNL     1      31.097 -24.158 -13.874  0.00  0.00    +0.042 S 
ATOM     31  O   UNL     1      31.633 -25.481 -14.142  0.00  0.00    -0.157 OA
ATOM     32  O   UNL     1      30.779 -23.741 -12.521  0.00  0.00    -0.157 OA
BRANCH  30  34
ATOM     33  O   UNL     1      28.036 -23.188 -17.027  0.00  0.00    -0.351 OA
ATOM     34  N   UNL     1      29.728 -23.902 -14.870  0.00  0.00    -0.154 NA
ATOM     35  C   UNL     1      29.678 -24.720 -16.118  0.00  0.00    +0.127 C 
ATOM     36  C   UNL     1      29.396 -22.475 -15.153  0.00  0.00    +0.127 C 
ATOM     37  C   UNL     1      28.303 -24.564 -16.750  0.00  0.00    +0.161 C 
ATOM     38  C   UNL     1      28.031 -22.414 -15.825  0.00  0.00    +0.161 C 
ENDBRANCH  30  34
ENDBRANCH  29  30
ENDBRANCH   1  29
TORSDOF 11
ENDMDL
MODEL 3
REMARK VINA RESULT:      -8.8      3.555      6.818
REMARK  Name = 11840930
REMARK  11 active torsions:
REMARK  status: ('A' for Active; 'I' for Inactive)
REMARK    1  A    between atoms: C_1  and  C_4
REMARK    2  A    between atoms: C_1  and  N_14
REMARK    3  A    between atoms: C_1  and  C_29
REMARK    4  A    between atoms: N_3  and  C_6
REMARK    5  A    between atoms: C_6  and  C_9
REMARK    6  A    between atoms: C_9  and  N_10
REMARK    7  A    between atoms: N_14  and  C_17
REMARK    8  A    between atoms: C_17  and  C_19
REMARK    9  A    between atoms: C_17  and  C_28
REMARK   10  A    between atoms: C_29  and  S_30
REMARK   11  A    between atoms: S_30  and  N_34
REMARK                            x       y       z     vdW  Elec       q    Type
REMARK                         _______ _______ _______ _____ _____    ______ ____
ROOT
ATOM      1  C   UNL     1      35.233 -24.115 -16.251  0.00  0.00    +0.043 C 
ENDROOT
BRANCH   1   4
ATOM      2  O   UNL     1      37.188 -22.888 -15.511  0.00  0.00    -0.277 OA
ATOM      3  N   UNL     1      36.915 -25.078 -14.798  0.00  0.00    -0.311 N 
ATOM      4  C   UNL     1      36.541 -23.933 -15.487  0.00  0.00    +0.204 C 
ATOM      5  H   UNL     1      36.329 -25.868 -14.838  0.00  0.00    +0.149 HD
BRANCH   3   6
ATOM      6  C   UNL     1      38.125 -25.153 -14.029  0.00  0.00    +0.037 C 
ATOM      7  C   UNL     1      38.268 -24.321 -12.788  0.00  0.00    +0.017 C 
ATOM      8  C   UNL     1      38.109 -25.809 -12.680  0.00  0.00    +0.017 C 
BRANCH   6   9
ATOM      9  C   UNL     1      39.354 -25.345 -14.854  0.00  0.00    -0.068 C 
BRANCH   9  10
ATOM     10  N   UNL     1      40.337 -26.166 -14.158  0.00  0.00    +0.382 N 
ATOM     11  H   UNL     1      40.049 -26.293 -13.188  0.00  0.00    -0.089 HD
ATOM     12  H   UNL     1      41.246 -25.703 -14.184  0.00  0.00    -0.089 HD
ATOM     13  H   UNL     1      40.405 -27.076 -14.615  0.00  0.00    -0.089 HD
ENDBRANCH   9  10
ENDBRANCH   6   9
ENDBRANCH   3   6
ENDBRANCH   1   4
BRANCH   1  14
ATOM     14  N   UNL     1      34.303 -24.739 -15.311  0.00  0.00    +0.401 N 
ATOM     15  H   UNL     1      34.825 -25.345 -14.677  0.00  0.00    -0.083 HD
ATOM     16  H   UNL     1      33.620 -25.283 -15.838  0.00  0.00    -0.083 HD
BRANCH  14  17
ATOM     17  C   UNL     1      33.599 -23.730 -14.536  0.00  0.00    +0.059 C 
BRANCH  17  19
ATOM     18  F   UNL     1      28.003 -24.190 -15.112  0.00  0.00    -0.204 F 
ATOM     19  C   UNL     1      32.096 -23.853 -14.691  0.00  0.00    -0.034 C 
ATOM     20  C   UNL     1      31.483 -25.101 -14.572  0.00  0.00    -0.004 C 
ATOM     21  C   UNL     1      31.326 -22.720 -14.953  0.00  0.00    -0.004 C 
ATOM     22  C   UNL     1      30.100 -25.215 -14.713  0.00  0.00    +0.029 C 
ATOM     23  C   UNL     1      29.943 -22.834 -15.095  0.00  0.00    +0.029 C 
ATOM     24  C   UNL     1      29.330 -24.081 -14.975  0.00  0.00    +0.140 C 
ENDBRANCH  17  19
BRANCH  17  28
ATOM     25  F   UNL     1      33.113 -23.189 -12.281  0.00  0.00    -0.172 F 
ATOM     26  F   UNL     1      34.191 -25.043 -12.649  0.00  0.00    -0.172 F 
ATOM     27  F   UNL     1      35.210 -23.125 -12.873  0.00  0.00    -0.172 F 
ATOM     28  C   UNL     1      34.042 -23.769 -13.077  0.00  0.00    +0.384 C 
ENDBRANCH  17  28
ENDBRANCH  14  17
ENDBRANCH   1  14
BRANCH   1  29
ATOM     29  C   UNL     1      34.650 -22.786 -16.724  0.00  0.00    +0.157 C 
BRANCH  29  30
ATOM     30  S   UNL     1      33.695 -22.977 -18.199  0.00  0.00    +0.042 S 
ATOM     31  O   UNL     1      33.832 -24.350 -18.652  0.00  0.00    -0.157 OA
ATOM     32  O   UNL     1      32.386 -22.395 -17.968  0.00  0.00    -0.157 OA
BRANCH  30  34
ATOM     33  O   UNL     1      35.930 -19.733 -20.374  0.00  0.00    -0.351 OA
ATOM     34  N   UNL     1      34.579 -21.955 -19.251  0.00  0.00    -0.154 NA
ATOM     35  C   UNL     1      35.928 -21.543 -18.764  0.00  0.00    +0.127 C 
ATOM     36  C   UNL     1      33.826 -20.786 -19.794  0.00  0.00    +0.127 C 
ATOM     37  C   UNL     1      36.671 -20.860 -19.902  0.00  0.00    +0.161 C 
ATOM     38  C   UNL     1      34.658 -20.135 -20.890  0.00  0.00    +0.161 C 
ENDBRANCH  30  34
ENDBRANCH  29  30
ENDBRANCH   1  29
TORSDOF 11
ENDMDL
MODEL 4
REMARK VINA RESULT:      -8.6      2.072      3.183
REMARK  Name = 11840930
REMARK  11 active torsions:
REMARK  status: ('A' for Active; 'I' for Inactive)
REMARK    1  A    between atoms: C_1  and  C_4
REMARK    2  A    between atoms: C_1  and  N_14
REMARK    3  A    between atoms: C_1  and  C_29
REMARK    4  A    between atoms: N_3  and  C_6
REMARK    5  A    between atoms: C_6  and  C_9
REMARK    6  A    between atoms: C_9  and  N_10
REMARK    7  A    between atoms: N_14  and  C_17
REMARK    8  A    between atoms: C_17  and  C_19
REMARK    9  A    between atoms: C_17  and  C_28
REMARK   10  A    between atoms: C_29  and  S_30
REMARK   11  A    between atoms: S_30  and  N_34
REMARK                            x       y       z     vdW  Elec       q    Type
REMARK                         _______ _______ _______ _____ _____    ______ ____
ROOT
ATOM      1  C   UNL     1      34.142 -23.138 -16.694  0.00  0.00    +0.043 C 
ENDROOT
BRANCH   1   4
ATOM      2  O   UNL     1      31.980 -23.160 -17.790  0.00  0.00    -0.277 OA
ATOM      3  N   UNL     1      32.083 -23.649 -15.525  0.00  0.00    -0.311 N 
ATOM      4  C   UNL     1      32.629 -23.318 -16.758  0.00  0.00    +0.204 C 
ATOM      5  H   UNL     1      32.684 -23.755 -14.754  0.00  0.00    +0.149 HD
BRANCH   3   6
ATOM      6  C   UNL     1      30.673 -23.842 -15.335  0.00  0.00    +0.037 C 
ATOM      7  C   UNL     1      30.047 -25.156 -15.703  0.00  0.00    +0.017 C 
ATOM      8  C   UNL     1      30.188 -24.770 -14.259  0.00  0.00    +0.017 C 
BRANCH   6   9
ATOM      9  C   UNL     1      29.857 -22.617 -15.582  0.00  0.00    -0.068 C 
BRANCH   9  10
ATOM     10  N   UNL     1      29.129 -22.710 -16.842  0.00  0.00    +0.382 N 
ATOM     11  H   UNL     1      29.792 -22.813 -17.611  0.00  0.00    -0.089 HD
ATOM     12  H   UNL     1      28.579 -21.862 -16.979  0.00  0.00    -0.089 HD
ATOM     13  H   UNL     1      28.508 -23.519 -16.817  0.00  0.00    -0.089 HD
ENDBRANCH   9  10
ENDBRANCH   6   9
ENDBRANCH   3   6
ENDBRANCH   1   4
BRANCH   1  14
ATOM     14  N   UNL     1      34.420 -21.852 -17.332  0.00  0.00    +0.401 N 
ATOM     15  H   UNL     1      34.874 -21.235 -16.657  0.00  0.00    -0.083 HD
ATOM     16  H   UNL     1      33.540 -21.445 -17.647  0.00  0.00    -0.083 HD
BRANCH  14  17
ATOM     17  C   UNL     1      35.292 -22.026 -18.483  0.00  0.00    +0.059 C 
BRANCH  17  19
ATOM     18  F   UNL     1      33.790 -18.667 -22.763  0.00  0.00    -0.204 F 
ATOM     19  C   UNL     1      34.889 -21.124 -19.632  0.00  0.00    -0.034 C 
ATOM     20  C   UNL     1      35.867 -20.547 -20.442  0.00  0.00    -0.004 C 
ATOM     21  C   UNL     1      33.540 -20.870 -19.879  0.00  0.00    -0.004 C 
ATOM     22  C   UNL     1      35.496 -19.717 -21.501  0.00  0.00    +0.029 C 
ATOM     23  C   UNL     1      33.168 -20.040 -20.937  0.00  0.00    +0.029 C 
ATOM     24  C   UNL     1      34.146 -19.464 -21.748  0.00  0.00    +0.140 C 
ENDBRANCH  17  19
BRANCH  17  28
ATOM     25  F   UNL     1      37.568 -22.050 -19.141  0.00  0.00    -0.172 F 
ATOM     26  F   UNL     1      36.982 -20.584 -17.644  0.00  0.00    -0.172 F 
ATOM     27  F   UNL     1      37.132 -22.695 -17.105  0.00  0.00    -0.172 F 
ATOM     28  C   UNL     1      36.752 -21.844 -18.080  0.00  0.00    +0.384 C 
ENDBRANCH  17  28
ENDBRANCH  14  17
ENDBRANCH   1  14
BRANCH   1  29
ATOM     29  C   UNL     1      34.660 -23.107 -15.258  0.00  0.00    +0.157 C 
BRANCH  29  30
ATOM     30  S   UNL     1      35.066 -24.725 -14.673  0.00  0.00    +0.042 S 
ATOM     31  O   UNL     1      33.913 -25.251 -13.964  0.00  0.00    -0.157 OA
ATOM     32  O   UNL     1      35.670 -25.462 -15.768  0.00  0.00    -0.157 OA
BRANCH  30  34
ATOM     33  O   UNL     1      37.868 -24.189 -11.193  0.00  0.00    -0.351 OA
ATOM     34  N   UNL     1      36.282 -24.324 -13.536  0.00  0.00    -0.154 NA
ATOM     35  C   UNL     1      37.203 -25.437 -13.161  0.00  0.00    +0.127 C 
ATOM     36  C   UNL     1      35.813 -23.587 -12.326  0.00  0.00    +0.127 C 
ATOM     37  C   UNL     1      38.359 -24.863 -12.353  0.00  0.00    +0.161 C 
ATOM     38  C   UNL     1      37.027 -23.091 -11.554  0.00  0.00    +0.161 C 
ENDBRANCH  30  34
ENDBRANCH  29  30
ENDBRANCH   1  29
TORSDOF 11
ENDMDL
MODEL 5
REMARK VINA RESULT:      -8.4     11.756     14.386
REMARK  Name = 11840930
REMARK  11 active torsions:
REMARK  status: ('A' for Active; 'I' for Inactive)
REMARK    1  A    between atoms: C_1  and  C_4
REMARK    2  A    between atoms: C_1  and  N_14
REMARK    3  A    between atoms: C_1  and  C_29
REMARK    4  A    between atoms: N_3  and  C_6
REMARK    5  A    between atoms: C_6  and  C_9
REMARK    6  A    between atoms: C_9  and  N_10
REMARK    7  A    between atoms: N_14  and  C_17
REMARK    8  A    between atoms: C_17  and  C_19
REMARK    9  A    between atoms: C_17  and  C_28
REMARK   10  A    between atoms: C_29  and  S_30
REMARK   11  A    between atoms: S_30  and  N_34
REMARK                            x       y       z     vdW  Elec       q    Type
REMARK                         _______ _______ _______ _____ _____    ______ ____
ROOT
ATOM      1  C   UNL     1      32.937 -12.696 -22.612  0.00  0.00    +0.043 C 
ENDROOT
BRANCH   1   4
ATOM      2  O   UNL     1      34.255 -11.886 -24.479  0.00  0.00    -0.277 OA
ATOM      3  N   UNL     1      32.798 -13.656 -24.832  0.00  0.00    -0.311 N 
ATOM      4  C   UNL     1      33.421 -12.686 -24.058  0.00  0.00    +0.204 C 
ATOM      5  H   UNL     1      32.143 -14.254 -24.405  0.00  0.00    +0.149 HD
BRANCH   3   6
ATOM      6  C   UNL     1      33.074 -13.819 -26.231  0.00  0.00    +0.037 C 
ATOM      7  C   UNL     1      32.290 -13.031 -27.239  0.00  0.00    +0.017 C 
ATOM      8  C   UNL     1      33.735 -12.708 -26.994  0.00  0.00    +0.017 C 
BRANCH   6   9
ATOM      9  C   UNL     1      33.451 -15.212 -26.613  0.00  0.00    -0.068 C 
BRANCH   9  10
ATOM     10  N   UNL     1      32.289 -16.092 -26.622  0.00  0.00    +0.382 N 
ATOM     11  H   UNL     1      31.492 -15.607 -26.211  0.00  0.00    -0.089 HD
ATOM     12  H   UNL     1      32.494 -16.931 -26.079  0.00  0.00    -0.089 HD
ATOM     13  H   UNL     1      32.069 -16.354 -27.583  0.00  0.00    -0.089 HD
ENDBRANCH   9  10
ENDBRANCH   6   9
ENDBRANCH   3   6
ENDBRANCH   1   4
BRANCH   1  14
ATOM     14  N   UNL     1      31.859 -11.712 -22.544  0.00  0.00    +0.401 N 
ATOM     15  H   UNL     1      30.972 -12.196 -22.395  0.00  0.00    -0.083 HD
ATOM     16  H   UNL     1      31.834 -11.191 -23.420  0.00  0.00    -0.083 HD
BRANCH  14  17
ATOM     17  C   UNL     1      32.081 -10.778 -21.451  0.00  0.00    +0.059 C 
BRANCH  17  19
ATOM     18  F   UNL     1      31.732  -5.418 -23.188  0.00  0.00    -0.204 F 
ATOM     19  C   UNL     1      31.987  -9.338 -21.918  0.00  0.00    -0.034 C 
ATOM     20  C   UNL     1      32.636  -8.330 -21.203  0.00  0.00    -0.004 C 
ATOM     21  C   UNL     1      31.253  -9.021 -23.060  0.00  0.00    -0.004 C 
ATOM     22  C   UNL     1      32.550  -7.006 -21.633  0.00  0.00    +0.029 C 
ATOM     23  C   UNL     1      31.166  -7.698 -23.490  0.00  0.00    +0.029 C 
ATOM     24  C   UNL     1      31.815  -6.690 -22.776  0.00  0.00    +0.140 C 
ENDBRANCH  17  19
BRANCH  17  28
ATOM     25  F   UNL     1      29.913 -11.420 -20.746  0.00  0.00    -0.172 F 
ATOM     26  F   UNL     1      31.593 -12.121 -19.555  0.00  0.00    -0.172 F 
ATOM     27  F   UNL     1      30.988 -10.025 -19.460  0.00  0.00    -0.172 F 
ATOM     28  C   UNL     1      31.141 -11.079 -20.289  0.00  0.00    +0.384 C 
ENDBRANCH  17  28
ENDBRANCH  14  17
ENDBRANCH   1  14
BRANCH   1  29
ATOM     29  C   UNL     1      32.396 -14.061 -22.194  0.00  0.00    +0.157 C 
BRANCH  29  30
ATOM     30  S   UNL     1      33.468 -14.865 -21.040  0.00  0.00    +0.042 S 
ATOM     31  O   UNL     1      34.636 -14.023 -20.847  0.00  0.00    -0.157 OA
ATOM     32  O   UNL     1      32.669 -15.304 -19.912  0.00  0.00    -0.157 OA
BRANCH  30  34
ATOM     33  O   UNL     1      35.400 -18.311 -23.196  0.00  0.00    -0.351 OA
ATOM     34  N   UNL     1      33.918 -16.232 -21.968  0.00  0.00    -0.154 NA
ATOM     35  C   UNL     1      34.385 -17.415 -21.187  0.00  0.00    +0.127 C 
ATOM     36  C   UNL     1      34.828 -15.957 -23.119  0.00  0.00    +0.127 C 
ATOM     37  C   UNL     1      34.501 -18.606 -22.126  0.00  0.00    +0.161 C 
ATOM     38  C   UNL     1      34.925 -17.211 -23.976  0.00  0.00    +0.161 C 
ENDBRANCH  30  34
ENDBRANCH  29  30
ENDBRANCH   1  29
TORSDOF 11
ENDMDL
MODEL 6
REMARK VINA RESULT:      -8.2     12.241     14.976
REMARK  Name = 11840930
REMARK  11 active torsions:
REMARK  status: ('A' for Active; 'I' for Inactive)
REMARK    1  A    between atoms: C_1  and  C_4
REMARK    2  A    between atoms: C_1  and  N_14
REMARK    3  A    between atoms: C_1  and  C_29
REMARK    4  A    between atoms: N_3  and  C_6
REMARK    5  A    between atoms: C_6  and  C_9
REMARK    6  A    between atoms: C_9  and  N_10
REMARK    7  A    between atoms: N_14  and  C_17
REMARK    8  A    between atoms: C_17  and  C_19
REMARK    9  A    between atoms: C_17  and  C_28
REMARK   10  A    between atoms: C_29  and  S_30
REMARK   11  A    between atoms: S_30  and  N_34
REMARK                            x       y       z     vdW  Elec       q    Type
REMARK                         _______ _______ _______ _____ _____    ______ ____
ROOT
ATOM      1  C   UNL     1      33.170 -12.566 -22.907  0.00  0.00    +0.043 C 
ENDROOT
BRANCH   1   4
ATOM      2  O   UNL     1      33.465 -12.310 -25.300  0.00  0.00    -0.277 OA
ATOM      3  N   UNL     1      34.391 -10.719 -23.890  0.00  0.00    -0.311 N 
ATOM      4  C   UNL     1      33.669 -11.871 -24.170  0.00  0.00    +0.204 C 
ATOM      5  H   UNL     1      34.501 -10.446 -22.951  0.00  0.00    +0.149 HD
BRANCH   3   6
ATOM      6  C   UNL     1      34.983  -9.912 -24.919  0.00  0.00    +0.037 C 
ATOM      7  C   UNL     1      36.362 -10.235 -25.415  0.00  0.00    +0.017 C 
ATOM      8  C   UNL     1      35.170 -10.480 -26.295  0.00  0.00    +0.017 C 
BRANCH   6   9
ATOM      9  C   UNL     1      34.622  -8.466 -24.833  0.00  0.00    -0.068 C 
BRANCH   9  10
ATOM     10  N   UNL     1      34.881  -7.933 -23.501  0.00  0.00    +0.382 N 
ATOM     11  H   UNL     1      34.113  -7.321 -23.224  0.00  0.00    -0.089 HD
ATOM     12  H   UNL     1      35.752  -7.401 -23.511  0.00  0.00    -0.089 HD
ATOM     13  H   UNL     1      34.959  -8.702 -22.836  0.00  0.00    -0.089 HD
ENDBRANCH   9  10
ENDBRANCH   6   9
ENDBRANCH   3   6
ENDBRANCH   1   4
BRANCH   1  14
ATOM     14  N   UNL     1      31.965 -11.845 -22.503  0.00  0.00    +0.401 N 
ATOM     15  H   UNL     1      31.260 -12.516 -22.195  0.00  0.00    -0.083 HD
ATOM     16  H   UNL     1      31.619 -11.311 -23.300  0.00  0.00    -0.083 HD
BRANCH  14  17
ATOM     17  C   UNL     1      32.255 -10.925 -21.415  0.00  0.00    +0.059 C 
BRANCH  17  19
ATOM     18  F   UNL     1      31.155  -5.579 -22.858  0.00  0.00    -0.204 F 
ATOM     19  C   UNL     1      31.960  -9.489 -21.802  0.00  0.00    -0.034 C 
ATOM     20  C   UNL     1      31.330  -9.210 -23.016  0.00  0.00    -0.004 C 
ATOM     21  C   UNL     1      32.319  -8.447 -20.947  0.00  0.00    -0.004 C 
ATOM     22  C   UNL     1      31.057  -7.888 -23.372  0.00  0.00    +0.029 C 
ATOM     23  C   UNL     1      32.047  -7.127 -21.303  0.00  0.00    +0.029 C 
ATOM     24  C   UNL     1      31.416  -6.847 -22.515  0.00  0.00    +0.140 C 
ENDBRANCH  17  19
BRANCH  17  28
ATOM     25  F   UNL     1      30.188 -11.206 -20.293  0.00  0.00    -0.172 F 
ATOM     26  F   UNL     1      31.756 -12.653 -19.865  0.00  0.00    -0.172 F 
ATOM     27  F   UNL     1      31.895 -10.625 -19.068  0.00  0.00    -0.172 F 
ATOM     28  C   UNL     1      31.526 -11.349 -20.144  0.00  0.00    +0.384 C 
ENDBRANCH  17  28
ENDBRANCH  14  17
ENDBRANCH   1  14
BRANCH   1  29
ATOM     29  C   UNL     1      32.818 -14.030 -23.156  0.00  0.00    +0.157 C 
BRANCH  29  30
ATOM     30  S   UNL     1      33.267 -15.054 -21.786  0.00  0.00    +0.042 S 
ATOM     31  O   UNL     1      34.357 -14.406 -21.077  0.00  0.00    -0.157 OA
ATOM     32  O   UNL     1      32.051 -15.441 -21.094  0.00  0.00    -0.157 OA
BRANCH  30  34
ATOM     33  O   UNL     1      35.616 -18.313 -23.814  0.00  0.00    -0.351 OA
ATOM     34  N   UNL     1      33.882 -16.411 -22.629  0.00  0.00    -0.154 NA
ATOM     35  C   UNL     1      34.631 -17.399 -21.798  0.00  0.00    +0.127 C 
ATOM     36  C   UNL     1      34.620 -16.105 -23.889  0.00  0.00    +0.127 C 
ATOM     37  C   UNL     1      34.886 -18.646 -22.632  0.00  0.00    +0.161 C 
ATOM     38  C   UNL     1      34.875 -17.407 -24.636  0.00  0.00    +0.161 C 
ENDBRANCH  30  34
ENDBRANCH  29  30
ENDBRANCH   1  29
TORSDOF 11
ENDMDL
MODEL 7
REMARK VINA RESULT:      -8.1      3.626      7.404
REMARK  Name = 11840930
REMARK  11 active torsions:
REMARK  status: ('A' for Active; 'I' for Inactive)
REMARK    1  A    between atoms: C_1  and  C_4
REMARK    2  A    between atoms: C_1  and  N_14
REMARK    3  A    between atoms: C_1  and  C_29
REMARK    4  A    between atoms: N_3  and  C_6
REMARK    5  A    between atoms: C_6  and  C_9
REMARK    6  A    between atoms: C_9  and  N_10
REMARK    7  A    between atoms: N_14  and  C_17
REMARK    8  A    between atoms: C_17  and  C_19
REMARK    9  A    between atoms: C_17  and  C_28
REMARK   10  A    between atoms: C_29  and  S_30
REMARK   11  A    between atoms: S_30  and  N_34
REMARK                            x       y       z     vdW  Elec       q    Type
REMARK                         _______ _______ _______ _____ _____    ______ ____
ROOT
ATOM      1  C   UNL     1      32.522 -23.697 -16.637  0.00  0.00    +0.043 C 
ENDROOT
BRANCH   1   4
ATOM      2  O   UNL     1      33.686 -24.277 -18.684  0.00  0.00    -0.277 OA
ATOM      3  N   UNL     1      33.338 -22.035 -18.200  0.00  0.00    -0.311 N 
ATOM      4  C   UNL     1      33.236 -23.397 -17.951  0.00  0.00    +0.204 C 
ATOM      5  H   UNL     1      32.945 -21.405 -17.554  0.00  0.00    +0.149 HD
BRANCH   3   6
ATOM      6  C   UNL     1      33.994 -21.512 -19.365  0.00  0.00    +0.037 C 
ATOM      7  C   UNL     1      35.456 -21.178 -19.305  0.00  0.00    +0.017 C 
ATOM      8  C   UNL     1      34.988 -22.360 -20.103  0.00  0.00    +0.017 C 
BRANCH   6   9
ATOM      9  C   UNL     1      33.133 -20.615 -20.190  0.00  0.00    -0.068 C 
BRANCH   9  10
ATOM     10  N   UNL     1      33.928 -19.835 -21.131  0.00  0.00    +0.382 N 
ATOM     11  H   UNL     1      34.634 -20.435 -21.559  0.00  0.00    -0.089 HD
ATOM     12  H   UNL     1      34.389 -19.071 -20.635  0.00  0.00    -0.089 HD
ATOM     13  H   UNL     1      33.320 -19.453 -21.856  0.00  0.00    -0.089 HD
ENDBRANCH   9  10
ENDBRANCH   6   9
ENDBRANCH   3   6
ENDBRANCH   1   4
BRANCH   1  14
ATOM     14  N   UNL     1      33.414 -23.228 -15.580  0.00  0.00    +0.401 N 
ATOM     15  H   UNL     1      32.886 -22.645 -14.929  0.00  0.00    -0.083 HD
ATOM     16  H   UNL     1      34.170 -22.689 -16.003  0.00  0.00    -0.083 HD
BRANCH  14  17
ATOM     17  C   UNL     1      33.990 -24.350 -14.855  0.00  0.00    +0.059 C 
BRANCH  17  19
ATOM     18  F   UNL     1      39.615 -24.463 -15.316  0.00  0.00    -0.204 F 
ATOM     19  C   UNL     1      35.500 -24.380 -14.979  0.00  0.00    -0.034 C 
ATOM     20  C   UNL     1      36.203 -23.202 -15.237  0.00  0.00    -0.004 C 
ATOM     21  C   UNL     1      36.188 -25.585 -14.836  0.00  0.00    -0.004 C 
ATOM     22  C   UNL     1      37.593 -23.230 -15.350  0.00  0.00    +0.029 C 
ATOM     23  C   UNL     1      37.578 -25.614 -14.950  0.00  0.00    +0.029 C 
ATOM     24  C   UNL     1      38.280 -24.436 -15.206  0.00  0.00    +0.140 C 
ENDBRANCH  17  19
BRANCH  17  28
ATOM     25  F   UNL     1      34.542 -24.667 -12.573  0.00  0.00    -0.172 F 
ATOM     26  F   UNL     1      33.083 -23.121 -13.037  0.00  0.00    -0.172 F 
ATOM     27  F   UNL     1      32.524 -25.227 -13.179  0.00  0.00    -0.172 F 
ATOM     28  C   UNL     1      33.522 -24.347 -13.404  0.00  0.00    +0.384 C 
ENDBRANCH  17  28
ENDBRANCH  14  17
ENDBRANCH   1  14
BRANCH   1  29
ATOM     29  C   UNL     1      31.186 -22.966 -16.527  0.00  0.00    +0.157 C 
BRANCH  29  30
ATOM     30  S   UNL     1      30.131 -23.709 -15.319  0.00  0.00    +0.042 S 
ATOM     31  O   UNL     1      30.231 -25.151 -15.457  0.00  0.00    -0.157 OA
ATOM     32  O   UNL     1      30.378 -23.062 -14.044  0.00  0.00    -0.157 OA
BRANCH  30  34
ATOM     33  O   UNL     1      26.495 -21.651 -16.991  0.00  0.00    -0.351 OA
ATOM     34  N   UNL     1      28.608 -23.200 -15.913  0.00  0.00    -0.154 NA
ATOM     35  C   UNL     1      28.568 -22.849 -17.364  0.00  0.00    +0.127 C 
ATOM     36  C   UNL     1      27.911 -22.166 -15.093  0.00  0.00    +0.127 C 
ATOM     37  C   UNL     1      27.116 -22.666 -17.782  0.00  0.00    +0.161 C 
ATOM     38  C   UNL     1      26.486 -22.012 -15.608  0.00  0.00    +0.161 C 
ENDBRANCH  30  34
ENDBRANCH  29  30
ENDBRANCH   1  29
TORSDOF 11
ENDMDL
MODEL 8
REMARK VINA RESULT:      -8.1     11.663     14.321
REMARK  Name = 11840930
REMARK  11 active torsions:
REMARK  status: ('A' for Active; 'I' for Inactive)
REMARK    1  A    between atoms: C_1  and  C_4
REMARK    2  A    between atoms: C_1  and  N_14
REMARK    3  A    between atoms: C_1  and  C_29
REMARK    4  A    between atoms: N_3  and  C_6
REMARK    5  A    between atoms: C_6  and  C_9
REMARK    6  A    between atoms: C_9  and  N_10
REMARK    7  A    between atoms: N_14  and  C_17
REMARK    8  A    between atoms: C_17  and  C_19
REMARK    9  A    between atoms: C_17  and  C_28
REMARK   10  A    between atoms: C_29  and  S_30
REMARK   11  A    between atoms: S_30  and  N_34
REMARK                            x       y       z     vdW  Elec       q    Type
REMARK                         _______ _______ _______ _____ _____    ______ ____
ROOT
ATOM      1  C   UNL     1      32.905 -12.809 -22.534  0.00  0.00    +0.043 C 
ENDROOT
BRANCH   1   4
ATOM      2  O   UNL     1      34.173 -12.181 -24.503  0.00  0.00    -0.277 OA
ATOM      3  N   UNL     1      32.738 -13.998 -24.638  0.00  0.00    -0.311 N 
ATOM      4  C   UNL     1      33.361 -12.945 -23.983  0.00  0.00    +0.204 C 
ATOM      5  H   UNL     1      32.101 -14.557 -24.137  0.00  0.00    +0.149 HD
BRANCH   3   6
ATOM      6  C   UNL     1      32.989 -14.304 -26.018  0.00  0.00    +0.037 C 
ATOM      7  C   UNL     1      34.024 -15.330 -26.374  0.00  0.00    +0.017 C 
ATOM      8  C   UNL     1      32.568 -15.633 -26.574  0.00  0.00    +0.017 C 
BRANCH   6   9
ATOM      9  C   UNL     1      32.869 -13.127 -26.928  0.00  0.00    -0.068 C 
BRANCH   9  10
ATOM     10  N   UNL     1      34.145 -12.813 -27.559  0.00  0.00    +0.382 N 
ATOM     11  H   UNL     1      34.886 -12.830 -26.858  0.00  0.00    -0.089 HD
ATOM     12  H   UNL     1      34.097 -11.884 -27.979  0.00  0.00    -0.089 HD
ATOM     13  H   UNL     1      34.346 -13.504 -28.283  0.00  0.00    -0.089 HD
ENDBRANCH   9  10
ENDBRANCH   6   9
ENDBRANCH   3   6
ENDBRANCH   1   4
BRANCH   1  14
ATOM     14  N   UNL     1      31.872 -11.775 -22.534  0.00  0.00    +0.401 N 
ATOM     15  H   UNL     1      30.959 -12.214 -22.403  0.00  0.00    -0.083 HD
ATOM     16  H   UNL     1      31.902 -11.282 -23.426  0.00  0.00    -0.083 HD
BRANCH  14  17
ATOM     17  C   UNL     1      32.100 -10.819 -21.462  0.00  0.00    +0.059 C 
BRANCH  17  19
ATOM     18  F   UNL     1      31.835  -5.498 -23.328  0.00  0.00    -0.204 F 
ATOM     19  C   UNL     1      32.029  -9.390 -21.963  0.00  0.00    -0.034 C 
ATOM     20  C   UNL     1      31.257  -9.081 -23.084  0.00  0.00    -0.004 C 
ATOM     21  C   UNL     1      32.735  -8.383 -21.305  0.00  0.00    -0.004 C 
ATOM     22  C   UNL     1      31.191  -7.766 -23.545  0.00  0.00    +0.029 C 
ATOM     23  C   UNL     1      32.670  -7.069 -21.766  0.00  0.00    +0.029 C 
ATOM     24  C   UNL     1      31.898  -6.760 -22.885  0.00  0.00    +0.140 C 
ENDBRANCH  17  19
BRANCH  17  28
ATOM     25  F   UNL     1      30.977  -9.956 -19.563  0.00  0.00    -0.172 F 
ATOM     26  F   UNL     1      29.924 -11.447 -20.748  0.00  0.00    -0.172 F 
ATOM     27  F   UNL     1      31.591 -12.047 -19.472  0.00  0.00    -0.172 F 
ATOM     28  C   UNL     1      31.146 -11.079 -20.300  0.00  0.00    +0.384 C 
ENDBRANCH  17  28
ENDBRANCH  14  17
ENDBRANCH   1  14
BRANCH   1  29
ATOM     29  C   UNL     1      32.315 -14.107 -21.991  0.00  0.00    +0.157 C 
BRANCH  29  30
ATOM     30  S   UNL     1      33.410 -14.898 -20.849  0.00  0.00    +0.042 S 
ATOM     31  O   UNL     1      34.585 -14.059 -20.697  0.00  0.00    -0.157 OA
ATOM     32  O   UNL     1      32.634 -15.314 -19.695  0.00  0.00    -0.157 OA
BRANCH  30  34
ATOM     33  O   UNL     1      35.242 -18.466 -22.889  0.00  0.00    -0.351 OA
ATOM     34  N   UNL     1      33.831 -16.282 -21.764  0.00  0.00    -0.154 NA
ATOM     35  C   UNL     1      34.102 -17.519 -20.973  0.00  0.00    +0.127 C 
ATOM     36  C   UNL     1      34.881 -16.071 -22.803  0.00  0.00    +0.127 C 
ATOM     37  C   UNL     1      34.209 -18.697 -21.929  0.00  0.00    +0.161 C 
ATOM     38  C   UNL     1      34.956 -17.312 -23.683  0.00  0.00    +0.161 C 
ENDBRANCH  30  34
ENDBRANCH  29  30
ENDBRANCH   1  29
TORSDOF 11
ENDMDL
MODEL 9
REMARK VINA RESULT:      -7.5     15.019     17.771
REMARK  Name = 11840930
REMARK  11 active torsions:
REMARK  status: ('A' for Active; 'I' for Inactive)
REMARK    1  A    between atoms: C_1  and  C_4
REMARK    2  A    between atoms: C_1  and  N_14
REMARK    3  A    between atoms: C_1  and  C_29
REMARK    4  A    between atoms: N_3  and  C_6
REMARK    5  A    between atoms: C_6  and  C_9
REMARK    6  A    between atoms: C_9  and  N_10
REMARK    7  A    between atoms: N_14  and  C_17
REMARK    8  A    between atoms: C_17  and  C_19
REMARK    9  A    between atoms: C_17  and  C_28
REMARK   10  A    between atoms: C_29  and  S_30
REMARK   11  A    between atoms: S_30  and  N_34
REMARK                            x       y       z     vdW  Elec       q    Type
REMARK                         _______ _______ _______ _____ _____    ______ ____
ROOT
ATOM      1  C   UNL     1      32.107  -8.625 -23.035  0.00  0.00    +0.043 C 
ENDROOT
BRANCH   1   4
ATOM      2  O   UNL     1      30.535 -10.404 -22.541  0.00  0.00    -0.277 OA
ATOM      3  N   UNL     1      32.139  -9.865 -20.955  0.00  0.00    -0.311 N 
ATOM      4  C   UNL     1      31.499  -9.732 -22.179  0.00  0.00    +0.204 C 
ATOM      5  H   UNL     1      32.905  -9.281 -20.754  0.00  0.00    +0.149 HD
BRANCH   3   6
ATOM      6  C   UNL     1      31.725 -10.825 -19.970  0.00  0.00    +0.037 C 
ATOM      7  C   UNL     1      31.650 -10.421 -18.527  0.00  0.00    +0.017 C 
ATOM      8  C   UNL     1      30.390 -10.675 -19.301  0.00  0.00    +0.017 C 
BRANCH   6   9
ATOM      9  C   UNL     1      32.180 -12.217 -20.256  0.00  0.00    -0.068 C 
BRANCH   9  10
ATOM     10  N   UNL     1      31.388 -12.826 -21.317  0.00  0.00    +0.382 N 
ATOM     11  H   UNL     1      31.942 -13.543 -21.787  0.00  0.00    -0.089 HD
ATOM     12  H   UNL     1      31.116 -12.111 -21.992  0.00  0.00    -0.089 HD
ATOM     13  H   UNL     1      30.552 -13.252 -20.916  0.00  0.00    -0.089 HD
ENDBRANCH   9  10
ENDBRANCH   6   9
ENDBRANCH   3   6
ENDBRANCH   1   4
BRANCH   1  14
ATOM     14  N   UNL     1      32.586  -9.277 -24.253  0.00  0.00    +0.401 N 
ATOM     15  H   UNL     1      32.815  -8.565 -24.946  0.00  0.00    -0.083 HD
ATOM     16  H   UNL     1      31.853  -9.892 -24.605  0.00  0.00    -0.083 HD
BRANCH  14  17
ATOM     17  C   UNL     1      33.771 -10.074 -23.978  0.00  0.00    +0.059 C 
BRANCH  17  19
ATOM     18  F   UNL     1      33.348 -15.260 -26.168  0.00  0.00    -0.204 F 
ATOM     19  C   UNL     1      33.658 -11.467 -24.566  0.00  0.00    -0.034 C 
ATOM     20  C   UNL     1      33.621 -12.579 -23.724  0.00  0.00    -0.004 C 
ATOM     21  C   UNL     1      33.591 -11.637 -25.949  0.00  0.00    -0.004 C 
ATOM     22  C   UNL     1      33.515 -13.860 -24.265  0.00  0.00    +0.029 C 
ATOM     23  C   UNL     1      33.486 -12.918 -26.490  0.00  0.00    +0.029 C 
ATOM     24  C   UNL     1      33.448 -14.030 -25.649  0.00  0.00    +0.140 C 
ENDBRANCH  17  19
BRANCH  17  28
ATOM     25  F   UNL     1      34.810  -8.729 -25.629  0.00  0.00    -0.172 F 
ATOM     26  F   UNL     1      35.385  -8.384 -23.560  0.00  0.00    -0.172 F 
ATOM     27  F   UNL     1      36.080 -10.173 -24.601  0.00  0.00    -0.172 F 
ATOM     28  C   UNL     1      35.027  -9.344 -24.442  0.00  0.00    +0.384 C 
ENDBRANCH  17  28
ENDBRANCH  14  17
ENDBRANCH   1  14
BRANCH   1  29
ATOM     29  C   UNL     1      31.084  -7.556 -23.409  0.00  0.00    +0.157 C 
BRANCH  29  30
ATOM     30  S   UNL     1      31.377  -6.039 -22.549  0.00  0.00    +0.042 S 
ATOM     31  O   UNL     1      30.096  -5.520 -22.103  0.00  0.00    -0.157 OA
ATOM     32  O   UNL     1      32.463  -6.254 -21.612  0.00  0.00    -0.157 OA
BRANCH  30  34
ATOM     33  O   UNL     1      32.185  -3.743 -26.334  0.00  0.00    -0.351 OA
ATOM     34  N   UNL     1      31.944  -5.077 -23.846  0.00  0.00    -0.154 NA
ATOM     35  C   UNL     1      31.123  -3.871 -24.160  0.00  0.00    +0.127 C 
ATOM     36  C   UNL     1      32.301  -5.820 -25.091  0.00  0.00    +0.127 C 
ATOM     37  C   UNL     1      31.887  -3.002 -25.149  0.00  0.00    +0.161 C 
ATOM     38  C   UNL     1      33.016  -4.869 -26.040  0.00  0.00    +0.161 C 
ENDBRANCH  30  34
ENDBRANCH  29  30
ENDBRANCH   1  29
TORSDOF 11
ENDMDL
