MODEL 1
REMARK VINA RESULT:     -10.4      0.000      0.000
REMARK  Name = 40636608
REMARK  3 active torsions:
REMARK  status: ('A' for Active; 'I' for Inactive)
REMARK    1  A    between atoms: N_2  and  C_7
REMARK    2  A    between atoms: C_4  and  C_15
REMARK    3  A    between atoms: N_14  and  C_18
REMARK                            x       y       z     vdW  Elec       q    Type
REMARK                         _______ _______ _______ _____ _____    ______ ____
ROOT
ATOM      1  O   UNL     1      32.791 -15.474 -25.911  0.00  0.00    -0.275 OA
ATOM      2  N   UNL     1      33.744 -15.276 -23.771  0.00  0.00    -0.281 N 
ATOM      3  C   UNL     1      34.942 -15.722 -23.098  0.00  0.00    +0.103 C 
ATOM      4  C   UNL     1      35.429 -16.879 -23.955  0.00  0.00    +0.106 C 
ATOM      5  C   UNL     1      34.859 -16.602 -25.345  0.00  0.00    +0.096 C 
ATOM      6  C   UNL     1      33.651 -15.732 -25.081  0.00  0.00    +0.226 C 
ENDROOT
BRANCH   2   7
ATOM      7  C   UNL     1      32.836 -14.344 -23.148  0.00  0.00    +0.075 C 
ATOM      8  C   UNL     1      32.832 -14.525 -21.627  0.00  0.00    +0.020 C 
ATOM      9  C   UNL     1      33.191 -12.907 -23.536  0.00  0.00    +0.020 C 
ATOM     10  C   UNL     1      31.918 -13.512 -20.943  0.00  0.00    +0.002 C 
ATOM     11  C   UNL     1      32.278 -11.896 -22.848  0.00  0.00    +0.002 C 
ATOM     12  C   UNL     1      32.272 -12.081 -21.334  0.00  0.00    +0.000 C 
ENDBRANCH   2   7
BRANCH   4  15
ATOM     13  O   UNL     1      34.644 -19.108 -24.199  0.00  0.00    -0.275 OA
ATOM     14  N   UNL     1      34.910 -18.206 -22.043  0.00  0.00    -0.284 N 
ATOM     15  C   UNL     1      34.948 -18.201 -23.431  0.00  0.00    +0.228 C 
ATOM     16  H   UNL     1      35.192 -17.374 -21.597  0.00  0.00    +0.155 HD
BRANCH  14  18
ATOM     17 CL   UNL     1      36.168 -21.972 -18.728  0.00  0.00    -0.083 Cl
ATOM     18  C   UNL     1      34.513 -19.266 -21.195  0.00  0.00    +0.047 C 
ATOM     19  C   UNL     1      35.453 -20.000 -20.471  0.00  0.00    +0.002 C 
ATOM     20  C   UNL     1      33.157 -19.575 -21.089  0.00  0.00    +0.014 C 
ATOM     21  C   UNL     1      35.037 -21.041 -19.641  0.00  0.00    +0.055 C 
ATOM     22  C   UNL     1      36.906 -19.658 -20.591  0.00  0.00    +0.033 C 
ATOM     23  C   UNL     1      32.740 -20.616 -20.260  0.00  0.00    +0.002 C 
ATOM     24  C   UNL     1      33.681 -21.350 -19.537  0.00  0.00    +0.011 C 
ENDBRANCH  14  18
ENDBRANCH   4  15
TORSDOF 3
ENDMDL
MODEL 2
REMARK VINA RESULT:     -10.0      4.460      7.184
REMARK  Name = 40636608
REMARK  3 active torsions:
REMARK  status: ('A' for Active; 'I' for Inactive)
REMARK    1  A    between atoms: N_2  and  C_7
REMARK    2  A    between atoms: C_4  and  C_15
REMARK    3  A    between atoms: N_14  and  C_18
REMARK                            x       y       z     vdW  Elec       q    Type
REMARK                         _______ _______ _______ _____ _____    ______ ____
ROOT
ATOM      1  O   UNL     1      32.683  -8.443 -19.814  0.00  0.00    -0.275 OA
ATOM      2  N   UNL     1      31.816  -8.535 -21.997  0.00  0.00    -0.281 N 
ATOM      3  C   UNL     1      31.023  -9.450 -22.785  0.00  0.00    +0.103 C 
ATOM      4  C   UNL     1      31.162 -10.774 -22.052  0.00  0.00    +0.106 C 
ATOM      5  C   UNL     1      31.479 -10.389 -20.608  0.00  0.00    +0.096 C 
ATOM      6  C   UNL     1      32.092  -9.012 -20.720  0.00  0.00    +0.226 C 
ENDROOT
BRANCH   2   7
ATOM      7  C   UNL     1      32.148  -7.218 -22.483  0.00  0.00    +0.075 C 
ATOM      8  C   UNL     1      32.516  -7.266 -23.969  0.00  0.00    +0.020 C 
ATOM      9  C   UNL     1      30.995  -6.245 -22.226  0.00  0.00    +0.020 C 
ATOM     10  C   UNL     1      32.818  -5.874 -24.518  0.00  0.00    +0.002 C 
ATOM     11  C   UNL     1      31.299  -4.855 -22.779  0.00  0.00    +0.002 C 
ATOM     12  C   UNL     1      31.669  -4.905 -24.258  0.00  0.00    +0.000 C 
ENDBRANCH   2   7
BRANCH   4  15
ATOM     13  O   UNL     1      33.206 -11.106 -23.218  0.00  0.00    -0.275 OA
ATOM     14  N   UNL     1      32.017 -12.970 -22.414  0.00  0.00    -0.284 N 
ATOM     15  C   UNL     1      32.257 -11.620 -22.635  0.00  0.00    +0.228 C 
ATOM     16  H   UNL     1      31.192 -13.191 -21.924  0.00  0.00    +0.155 HD
BRANCH  14  18
ATOM     17 CL   UNL     1      34.878 -17.091 -21.154  0.00  0.00    -0.083 Cl
ATOM     18  C   UNL     1      32.820 -14.064 -22.813  0.00  0.00    +0.047 C 
ATOM     19  C   UNL     1      33.380 -14.928 -21.871  0.00  0.00    +0.002 C 
ATOM     20  C   UNL     1      33.050 -14.273 -24.173  0.00  0.00    +0.014 C 
ATOM     21  C   UNL     1      34.168 -16.000 -22.288  0.00  0.00    +0.055 C 
ATOM     22  C   UNL     1      33.125 -14.694 -20.413  0.00  0.00    +0.033 C 
ATOM     23  C   UNL     1      33.840 -15.345 -24.590  0.00  0.00    +0.002 C 
ATOM     24  C   UNL     1      34.399 -16.208 -23.648  0.00  0.00    +0.011 C 
ENDBRANCH  14  18
ENDBRANCH   4  15
TORSDOF 3
ENDMDL
MODEL 3
REMARK VINA RESULT:     -10.0      4.240      6.791
REMARK  Name = 40636608
REMARK  3 active torsions:
REMARK  status: ('A' for Active; 'I' for Inactive)
REMARK    1  A    between atoms: N_2  and  C_7
REMARK    2  A    between atoms: C_4  and  C_15
REMARK    3  A    between atoms: N_14  and  C_18
REMARK                            x       y       z     vdW  Elec       q    Type
REMARK                         _______ _______ _______ _____ _____    ______ ____
ROOT
ATOM      1  O   UNL     1      32.100  -8.770 -19.283  0.00  0.00    -0.275 OA
ATOM      2  N   UNL     1      32.158  -9.530 -21.506  0.00  0.00    -0.281 N 
ATOM      3  C   UNL     1      31.526 -10.567 -22.289  0.00  0.00    +0.103 C 
ATOM      4  C   UNL     1      31.019 -11.550 -21.247  0.00  0.00    +0.106 C 
ATOM      5  C   UNL     1      30.838 -10.717 -19.980  0.00  0.00    +0.096 C 
ATOM      6  C   UNL     1      31.782  -9.551 -20.168  0.00  0.00    +0.226 C 
ENDROOT
BRANCH   2   7
ATOM      7  C   UNL     1      32.983  -8.521 -22.124  0.00  0.00    +0.075 C 
ATOM      8  C   UNL     1      33.806  -9.119 -23.269  0.00  0.00    +0.020 C 
ATOM      9  C   UNL     1      32.127  -7.349 -22.606  0.00  0.00    +0.020 C 
ATOM     10  C   UNL     1      34.645  -8.056 -23.972  0.00  0.00    +0.002 C 
ATOM     11  C   UNL     1      32.969  -6.289 -23.311  0.00  0.00    +0.002 C 
ATOM     12  C   UNL     1      33.790  -6.887 -24.450  0.00  0.00    +0.000 C 
ENDBRANCH   2   7
BRANCH   4  15
ATOM     13  O   UNL     1      32.383 -12.942 -19.888  0.00  0.00    -0.275 OA
ATOM     14  N   UNL     1      32.341 -13.283 -22.215  0.00  0.00    -0.284 N 
ATOM     15  C   UNL     1      31.993 -12.670 -21.019  0.00  0.00    +0.228 C 
ATOM     16  H   UNL     1      31.922 -12.919 -23.029  0.00  0.00    +0.155 HD
BRANCH  14  18
ATOM     17 CL   UNL     1      34.793 -16.541 -25.399  0.00  0.00    -0.083 Cl
ATOM     18  C   UNL     1      33.228 -14.368 -22.401  0.00  0.00    +0.047 C 
ATOM     19  C   UNL     1      33.523 -14.847 -23.678  0.00  0.00    +0.002 C 
ATOM     20  C   UNL     1      33.812 -14.963 -21.282  0.00  0.00    +0.014 C 
ATOM     21  C   UNL     1      34.401 -15.919 -23.836  0.00  0.00    +0.055 C 
ATOM     22  C   UNL     1      32.892 -14.199 -24.872  0.00  0.00    +0.033 C 
ATOM     23  C   UNL     1      34.689 -16.036 -21.440  0.00  0.00    +0.002 C 
ATOM     24  C   UNL     1      34.983 -16.514 -22.717  0.00  0.00    +0.011 C 
ENDBRANCH  14  18
ENDBRANCH   4  15
TORSDOF 3
ENDMDL
MODEL 4
REMARK VINA RESULT:      -9.6      3.864      8.452
REMARK  Name = 40636608
REMARK  3 active torsions:
REMARK  status: ('A' for Active; 'I' for Inactive)
REMARK    1  A    between atoms: N_2  and  C_7
REMARK    2  A    between atoms: C_4  and  C_15
REMARK    3  A    between atoms: N_14  and  C_18
REMARK                            x       y       z     vdW  Elec       q    Type
REMARK                         _______ _______ _______ _____ _____    ______ ____
ROOT
ATOM      1  O   UNL     1      37.288 -21.047 -17.240  0.00  0.00    -0.275 OA
ATOM      2  N   UNL     1      35.291 -22.083 -17.921  0.00  0.00    -0.281 N 
ATOM      3  C   UNL     1      34.676 -22.486 -19.165  0.00  0.00    +0.103 C 
ATOM      4  C   UNL     1      35.409 -21.667 -20.214  0.00  0.00    +0.106 C 
ATOM      5  C   UNL     1      36.766 -21.353 -19.586  0.00  0.00    +0.096 C 
ATOM      6  C   UNL     1      36.513 -21.444 -18.098  0.00  0.00    +0.226 C 
ENDROOT
BRANCH   2   7
ATOM      7  C   UNL     1      34.719 -22.449 -16.648  0.00  0.00    +0.075 C 
ATOM      8  C   UNL     1      33.389 -23.181 -16.841  0.00  0.00    +0.020 C 
ATOM      9  C   UNL     1      35.707 -23.292 -15.838  0.00  0.00    +0.020 C 
ATOM     10  C   UNL     1      32.793 -23.626 -15.508  0.00  0.00    +0.002 C 
ATOM     11  C   UNL     1      35.107 -23.737 -14.507  0.00  0.00    +0.002 C 
ATOM     12  C   UNL     1      33.780 -24.464 -14.702  0.00  0.00    +0.000 C 
ENDBRANCH   2   7
BRANCH   4  15
ATOM     13  O   UNL     1      33.508 -20.241 -20.189  0.00  0.00    -0.275 OA
ATOM     14  N   UNL     1      35.467 -19.536 -21.284  0.00  0.00    -0.284 N 
ATOM     15  C   UNL     1      34.669 -20.404 -20.551  0.00  0.00    +0.228 C 
ATOM     16  H   UNL     1      36.380 -19.848 -21.482  0.00  0.00    +0.155 HD
BRANCH  14  18
ATOM     17 CL   UNL     1      34.168 -16.503 -25.268  0.00  0.00    -0.083 Cl
ATOM     18  C   UNL     1      35.121 -18.258 -21.780  0.00  0.00    +0.047 C 
ATOM     19  C   UNL     1      34.850 -18.060 -23.135  0.00  0.00    +0.002 C 
ATOM     20  C   UNL     1      35.051 -17.185 -20.892  0.00  0.00    +0.014 C 
ATOM     21  C   UNL     1      34.510 -16.790 -23.600  0.00  0.00    +0.055 C 
ATOM     22  C   UNL     1      34.926 -19.220 -24.079  0.00  0.00    +0.033 C 
ATOM     23  C   UNL     1      34.712 -15.914 -21.357  0.00  0.00    +0.002 C 
ATOM     24  C   UNL     1      34.442 -15.717 -22.712  0.00  0.00    +0.011 C 
ENDBRANCH  14  18
ENDBRANCH   4  15
TORSDOF 3
ENDMDL
MODEL 5
REMARK VINA RESULT:      -9.3      1.641      2.206
REMARK  Name = 40636608
REMARK  3 active torsions:
REMARK  status: ('A' for Active; 'I' for Inactive)
REMARK    1  A    between atoms: N_2  and  C_7
REMARK    2  A    between atoms: C_4  and  C_15
REMARK    3  A    between atoms: N_14  and  C_18
REMARK                            x       y       z     vdW  Elec       q    Type
REMARK                         _______ _______ _______ _____ _____    ______ ____
ROOT
ATOM      1  O   UNL     1      33.357 -17.682 -25.844  0.00  0.00    -0.275 OA
ATOM      2  N   UNL     1      34.280 -16.173 -24.297  0.00  0.00    -0.281 N 
ATOM      3  C   UNL     1      35.344 -16.174 -23.319  0.00  0.00    +0.103 C 
ATOM      4  C   UNL     1      35.602 -17.650 -23.066  0.00  0.00    +0.106 C 
ATOM      5  C   UNL     1      35.134 -18.352 -24.340  0.00  0.00    +0.096 C 
ATOM      6  C   UNL     1      34.125 -17.397 -24.937  0.00  0.00    +0.226 C 
ENDROOT
BRANCH   2   7
ATOM      7  C   UNL     1      33.569 -14.963 -24.631  0.00  0.00    +0.075 C 
ATOM      8  C   UNL     1      34.042 -13.797 -23.757  0.00  0.00    +0.020 C 
ATOM      9  C   UNL     1      33.725 -14.642 -26.119  0.00  0.00    +0.020 C 
ATOM     10  C   UNL     1      33.341 -12.494 -24.132  0.00  0.00    +0.002 C 
ATOM     11  C   UNL     1      33.026 -13.337 -26.490  0.00  0.00    +0.002 C 
ATOM     12  C   UNL     1      33.496 -12.178 -25.616  0.00  0.00    +0.000 C 
ENDBRANCH   2   7
BRANCH   4  15
ATOM     13  O   UNL     1      34.143 -17.391 -21.208  0.00  0.00    -0.275 OA
ATOM     14  N   UNL     1      35.069 -19.505 -21.666  0.00  0.00    -0.284 N 
ATOM     15  C   UNL     1      34.845 -18.150 -21.869  0.00  0.00    +0.228 C 
ATOM     16  H   UNL     1      35.672 -19.948 -22.307  0.00  0.00    +0.155 HD
BRANCH  14  18
ATOM     17 CL   UNL     1      35.799 -22.556 -17.553  0.00  0.00    -0.083 Cl
ATOM     18  C   UNL     1      34.532 -20.323 -20.645  0.00  0.00    +0.047 C 
ATOM     19  C   UNL     1      35.361 -20.955 -19.718  0.00  0.00    +0.002 C 
ATOM     20  C   UNL     1      33.149 -20.495 -20.574  0.00  0.00    +0.014 C 
ATOM     21  C   UNL     1      34.808 -21.757 -18.719  0.00  0.00    +0.055 C 
ATOM     22  C   UNL     1      36.844 -20.763 -19.803  0.00  0.00    +0.033 C 
ATOM     23  C   UNL     1      32.596 -21.298 -19.576  0.00  0.00    +0.002 C 
ATOM     24  C   UNL     1      33.426 -21.929 -18.649  0.00  0.00    +0.011 C 
ENDBRANCH  14  18
ENDBRANCH   4  15
TORSDOF 3
ENDMDL
MODEL 6
REMARK VINA RESULT:      -9.2      4.044      8.354
REMARK  Name = 40636608
REMARK  3 active torsions:
REMARK  status: ('A' for Active; 'I' for Inactive)
REMARK    1  A    between atoms: N_2  and  C_7
REMARK    2  A    between atoms: C_4  and  C_15
REMARK    3  A    between atoms: N_14  and  C_18
REMARK                            x       y       z     vdW  Elec       q    Type
REMARK                         _______ _______ _______ _____ _____    ______ ____
ROOT
ATOM      1  O   UNL     1      34.302 -16.014 -26.123  0.00  0.00    -0.275 OA
ATOM      2  N   UNL     1      33.916 -15.540 -23.853  0.00  0.00    -0.281 N 
ATOM      3  C   UNL     1      33.030 -14.699 -23.081  0.00  0.00    +0.103 C 
ATOM      4  C   UNL     1      32.549 -13.663 -24.084  0.00  0.00    +0.106 C 
ATOM      5  C   UNL     1      32.683 -14.345 -25.444  0.00  0.00    +0.096 C 
ATOM      6  C   UNL     1      33.746 -15.398 -25.225  0.00  0.00    +0.226 C 
ENDROOT
BRANCH   2   7
ATOM      7  C   UNL     1      34.775 -16.508 -23.217  0.00  0.00    +0.075 C 
ATOM      8  C   UNL     1      34.511 -16.559 -21.709  0.00  0.00    +0.020 C 
ATOM      9  C   UNL     1      34.602 -17.885 -23.860  0.00  0.00    +0.020 C 
ATOM     10  C   UNL     1      35.373 -17.616 -21.024  0.00  0.00    +0.002 C 
ATOM     11  C   UNL     1      35.462 -18.941 -23.170  0.00  0.00    +0.002 C 
ATOM     12  C   UNL     1      35.200 -18.988 -21.668  0.00  0.00    +0.000 C 
ENDBRANCH   2   7
BRANCH   4  15
ATOM     13  O   UNL     1      34.514 -12.387 -24.484  0.00  0.00    -0.275 OA
ATOM     14  N   UNL     1      32.676 -11.376 -23.420  0.00  0.00    -0.284 N 
ATOM     15  C   UNL     1      33.375 -12.410 -24.029  0.00  0.00    +0.228 C 
ATOM     16  H   UNL     1      31.764 -11.589 -23.113  0.00  0.00    +0.155 HD
BRANCH  14  18
ATOM     17 CL   UNL     1      32.427  -7.009 -20.659  0.00  0.00    -0.083 Cl
ATOM     18  C   UNL     1      33.121 -10.054 -23.188  0.00  0.00    +0.047 C 
ATOM     19  C   UNL     1      32.596  -9.289 -22.146  0.00  0.00    +0.002 C 
ATOM     20  C   UNL     1      34.102  -9.516 -24.021  0.00  0.00    +0.014 C 
ATOM     21  C   UNL     1      33.051  -7.988 -21.937  0.00  0.00    +0.055 C 
ATOM     22  C   UNL     1      31.544  -9.878 -21.257  0.00  0.00    +0.033 C 
ATOM     23  C   UNL     1      34.557  -8.214 -23.813  0.00  0.00    +0.002 C 
ATOM     24  C   UNL     1      34.031  -7.450 -22.771  0.00  0.00    +0.011 C 
ENDBRANCH  14  18
ENDBRANCH   4  15
TORSDOF 3
ENDMDL
MODEL 7
REMARK VINA RESULT:      -8.9      3.325      7.515
REMARK  Name = 40636608
REMARK  3 active torsions:
REMARK  status: ('A' for Active; 'I' for Inactive)
REMARK    1  A    between atoms: N_2  and  C_7
REMARK    2  A    between atoms: C_4  and  C_15
REMARK    3  A    between atoms: N_14  and  C_18
REMARK                            x       y       z     vdW  Elec       q    Type
REMARK                         _______ _______ _______ _____ _____    ______ ____
ROOT
ATOM      1  O   UNL     1      37.302 -18.955 -21.144  0.00  0.00    -0.275 OA
ATOM      2  N   UNL     1      34.953 -19.008 -21.180  0.00  0.00    -0.281 N 
ATOM      3  C   UNL     1      33.891 -18.459 -21.993  0.00  0.00    +0.103 C 
ATOM      4  C   UNL     1      34.557 -17.307 -22.728  0.00  0.00    +0.106 C 
ATOM      5  C   UNL     1      36.039 -17.674 -22.767  0.00  0.00    +0.096 C 
ATOM      6  C   UNL     1      36.219 -18.610 -21.593  0.00  0.00    +0.226 C 
ENDROOT
BRANCH   2   7
ATOM      7  C   UNL     1      34.680 -19.972 -20.142  0.00  0.00    +0.075 C 
ATOM      8  C   UNL     1      33.254 -20.514 -20.265  0.00  0.00    +0.020 C 
ATOM      9  C   UNL     1      35.711 -21.103 -20.176  0.00  0.00    +0.020 C 
ATOM     10  C   UNL     1      32.963 -21.576 -19.209  0.00  0.00    +0.002 C 
ATOM     11  C   UNL     1      35.415 -22.165 -19.120  0.00  0.00    +0.002 C 
ATOM     12  C   UNL     1      33.992 -22.701 -19.243  0.00  0.00    +0.000 C 
ENDBRANCH   2   7
BRANCH   4  15
ATOM     13  O   UNL     1      35.009 -15.708 -21.029  0.00  0.00    -0.275 OA
ATOM     14  N   UNL     1      33.352 -15.252 -22.635  0.00  0.00    -0.284 N 
ATOM     15  C   UNL     1      34.346 -16.000 -22.019  0.00  0.00    +0.228 C 
ATOM     16  H   UNL     1      32.927 -15.658 -23.425  0.00  0.00    +0.155 HD
BRANCH  14  18
ATOM     17 CL   UNL     1      32.687 -10.241 -23.734  0.00  0.00    -0.083 Cl
ATOM     18  C   UNL     1      32.877 -13.974 -22.258  0.00  0.00    +0.047 C 
ATOM     19  C   UNL     1      33.014 -12.875 -23.107  0.00  0.00    +0.002 C 
ATOM     20  C   UNL     1      32.263 -13.821 -21.014  0.00  0.00    +0.014 C 
ATOM     21  C   UNL     1      32.537 -11.625 -22.713  0.00  0.00    +0.055 C 
ATOM     22  C   UNL     1      33.673 -13.052 -24.440  0.00  0.00    +0.033 C 
ATOM     23  C   UNL     1      31.787 -12.571 -20.620  0.00  0.00    +0.002 C 
ATOM     24  C   UNL     1      31.924 -11.473 -21.469  0.00  0.00    +0.011 C 
ENDBRANCH  14  18
ENDBRANCH   4  15
TORSDOF 3
ENDMDL
MODEL 8
REMARK VINA RESULT:      -8.9      3.093      4.841
REMARK  Name = 40636608
REMARK  3 active torsions:
REMARK  status: ('A' for Active; 'I' for Inactive)
REMARK    1  A    between atoms: N_2  and  C_7
REMARK    2  A    between atoms: C_4  and  C_15
REMARK    3  A    between atoms: N_14  and  C_18
REMARK                            x       y       z     vdW  Elec       q    Type
REMARK                         _______ _______ _______ _____ _____    ______ ____
ROOT
ATOM      1  O   UNL     1      32.540 -18.236 -20.641  0.00  0.00    -0.275 OA
ATOM      2  N   UNL     1      34.751 -18.308 -21.435  0.00  0.00    -0.281 N 
ATOM      3  C   UNL     1      35.728 -19.321 -21.763  0.00  0.00    +0.103 C 
ATOM      4  C   UNL     1      35.227 -20.556 -21.033  0.00  0.00    +0.106 C 
ATOM      5  C   UNL     1      33.723 -20.337 -20.880  0.00  0.00    +0.096 C 
ATOM      6  C   UNL     1      33.562 -18.835 -20.943  0.00  0.00    +0.226 C 
ENDROOT
BRANCH   2   7
ATOM      7  C   UNL     1      34.984 -16.916 -21.734  0.00  0.00    +0.075 C 
ATOM      8  C   UNL     1      34.399 -16.549 -23.100  0.00  0.00    +0.020 C 
ATOM      9  C   UNL     1      34.415 -16.027 -20.626  0.00  0.00    +0.020 C 
ATOM     10  C   UNL     1      34.587 -15.067 -23.412  0.00  0.00    +0.002 C 
ATOM     11  C   UNL     1      34.602 -14.545 -20.942  0.00  0.00    +0.002 C 
ATOM     12  C   UNL     1      34.021 -14.182 -22.305  0.00  0.00    +0.000 C 
ENDBRANCH   2   7
BRANCH   4  15
ATOM     13  O   UNL     1      36.816 -19.989 -19.359  0.00  0.00    -0.275 OA
ATOM     14  N   UNL     1      35.300 -21.745 -18.967  0.00  0.00    -0.284 N 
ATOM     15  C   UNL     1      35.885 -20.716 -19.692  0.00  0.00    +0.228 C 
ATOM     16  H   UNL     1      34.559 -22.221 -19.407  0.00  0.00    +0.155 HD
BRANCH  14  18
ATOM     17 CL   UNL     1      33.991 -24.171 -14.590  0.00  0.00    -0.083 Cl
ATOM     18  C   UNL     1      35.647 -22.190 -17.670  0.00  0.00    +0.047 C 
ATOM     19  C   UNL     1      34.731 -22.882 -16.877  0.00  0.00    +0.002 C 
ATOM     20  C   UNL     1      36.928 -21.926 -17.184  0.00  0.00    +0.014 C 
ATOM     21  C   UNL     1      35.095 -23.311 -15.601  0.00  0.00    +0.055 C 
ATOM     22  C   UNL     1      33.358 -23.161 -17.409  0.00  0.00    +0.033 C 
ATOM     23  C   UNL     1      37.292 -22.354 -15.908  0.00  0.00    +0.002 C 
ATOM     24  C   UNL     1      36.376 -23.046 -15.116  0.00  0.00    +0.011 C 
ENDBRANCH  14  18
ENDBRANCH   4  15
TORSDOF 3
ENDMDL
MODEL 9
REMARK VINA RESULT:      -8.8      1.818      2.583
REMARK  Name = 40636608
REMARK  3 active torsions:
REMARK  status: ('A' for Active; 'I' for Inactive)
REMARK    1  A    between atoms: N_2  and  C_7
REMARK    2  A    between atoms: C_4  and  C_15
REMARK    3  A    between atoms: N_14  and  C_18
REMARK                            x       y       z     vdW  Elec       q    Type
REMARK                         _______ _______ _______ _____ _____    ______ ____
ROOT
ATOM      1  O   UNL     1      34.012 -18.070 -24.985  0.00  0.00    -0.275 OA
ATOM      2  N   UNL     1      34.401 -17.000 -22.929  0.00  0.00    -0.281 N 
ATOM      3  C   UNL     1      35.231 -17.209 -21.765  0.00  0.00    +0.103 C 
ATOM      4  C   UNL     1      35.609 -18.679 -21.849  0.00  0.00    +0.106 C 
ATOM      5  C   UNL     1      35.505 -19.024 -23.333  0.00  0.00    +0.096 C 
ATOM      6  C   UNL     1      34.534 -18.003 -23.882  0.00  0.00    +0.226 C 
ENDROOT
BRANCH   2   7
ATOM      7  C   UNL     1      33.634 -15.790 -23.096  0.00  0.00    +0.075 C 
ATOM      8  C   UNL     1      33.088 -15.303 -21.750  0.00  0.00    +0.020 C 
ATOM      9  C   UNL     1      34.476 -14.710 -23.779  0.00  0.00    +0.020 C 
ATOM     10  C   UNL     1      32.319 -13.994 -21.896  0.00  0.00    +0.002 C 
ATOM     11  C   UNL     1      33.704 -13.400 -23.921  0.00  0.00    +0.002 C 
ATOM     12  C   UNL     1      33.159 -12.920 -22.579  0.00  0.00    +0.000 C 
ENDBRANCH   2   7
BRANCH   4  15
ATOM     13  O   UNL     1      33.470 -19.477 -21.186  0.00  0.00    -0.275 OA
ATOM     14  N   UNL     1      35.398 -20.339 -20.150  0.00  0.00    -0.284 N 
ATOM     15  C   UNL     1      34.686 -19.538 -21.032  0.00  0.00    +0.228 C 
ATOM     16  H   UNL     1      36.379 -20.245 -20.171  0.00  0.00    +0.155 HD
BRANCH  14  18
ATOM     17 CL   UNL     1      36.066 -23.314 -15.971  0.00  0.00    -0.083 Cl
ATOM     18  C   UNL     1      34.880 -21.274 -19.224  0.00  0.00    +0.047 C 
ATOM     19  C   UNL     1      35.663 -21.764 -18.179  0.00  0.00    +0.002 C 
ATOM     20  C   UNL     1      33.561 -21.708 -19.369  0.00  0.00    +0.014 C 
ATOM     21  C   UNL     1      35.129 -22.685 -17.278  0.00  0.00    +0.055 C 
ATOM     22  C   UNL     1      37.077 -21.290 -18.033  0.00  0.00    +0.033 C 
ATOM     23  C   UNL     1      33.027 -22.630 -18.469  0.00  0.00    +0.002 C 
ATOM     24  C   UNL     1      33.812 -23.119 -17.424  0.00  0.00    +0.011 C 
ENDBRANCH  14  18
ENDBRANCH   4  15
TORSDOF 3
ENDMDL
