MODEL 1
REMARK VINA RESULT:     -10.8      0.000      0.000
REMARK  Name = 118435360
REMARK  4 active torsions:
REMARK  status: ('A' for Active; 'I' for Inactive)
REMARK    1  A    between atoms: C_3  and  C_11
REMARK    2  A    between atoms: C_22  and  C_25
REMARK    3  A    between atoms: C_29  and  O_30
REMARK    4  A    between atoms: O_30  and  C_33
REMARK                            x       y       z     vdW  Elec       q    Type
REMARK                         _______ _______ _______ _____ _____    ______ ____
ROOT
ATOM      1  S   UNL     1      34.741 -23.782 -15.729  0.00  0.00    -0.076 S 
ATOM      2  N   UNL     1      36.665 -22.582 -16.972  0.00  0.00    -0.387 NA
ATOM      3  C   UNL     1      36.393 -23.383 -15.967  0.00  0.00    +0.158 C 
ATOM      4  C   UNL     1      35.485 -22.252 -17.611  0.00  0.00    +0.174 C 
ATOM      5  C   UNL     1      34.337 -22.806 -17.081  0.00  0.00    +0.139 C 
ATOM      6  O   UNL     1      33.219 -21.260 -19.305  0.00  0.00    -0.268 OA
ATOM      7  N   UNL     1      35.492 -21.415 -18.706  0.00  0.00    -0.257 N 
ATOM      8  C   UNL     1      34.398 -20.970 -19.479  0.00  0.00    +0.269 C 
ATOM      9  H   UNL     1      36.376 -21.084 -18.985  0.00  0.00    +0.157 HD
ENDROOT
BRANCH   3  15
ATOM     10  S   UNL     1      35.670 -24.599 -12.479  0.00  0.00    -0.081 S 
ATOM     11  O   UNL     1      39.875 -24.431 -14.927  0.00  0.00    -0.354 OA
ATOM     12  N   UNL     1      37.596 -23.187 -13.775  0.00  0.00    -0.245 NA
ATOM     13  N   UNL     1      37.074 -22.595 -11.588  0.00  0.00    -0.338 N 
ATOM     14  C   UNL     1      37.202 -25.464 -14.666  0.00  0.00    +0.044 C 
ATOM     15  C   UNL     1      37.449 -23.971 -15.011  0.00  0.00    +0.166 C 
ATOM     16  C   UNL     1      38.409 -26.087 -13.937  0.00  0.00    +0.033 C 
ATOM     17  C   UNL     1      39.694 -25.833 -14.725  0.00  0.00    +0.116 C 
ATOM     18  C   UNL     1      38.829 -23.852 -15.711  0.00  0.00    +0.172 C 
ATOM     19  C   UNL     1      35.893 -25.673 -13.908  0.00  0.00    +0.067 C 
ATOM     20  C   UNL     1      40.911 -26.355 -13.970  0.00  0.00    +0.032 C 
ATOM     21  C   UNL     1      36.905 -23.371 -12.703  0.00  0.00    +0.148 C 
ATOM     22  H   UNL     1      36.531 -22.761 -10.785  0.00  0.00    +0.144 HD
ATOM     23  H   UNL     1      37.741 -21.870 -11.589  0.00  0.00    +0.144 HD
ENDBRANCH   3  15
BRANCH   8  25
ATOM     24  N   UNL     1      35.958 -19.486 -20.551  0.00  0.00    -0.236 NA
ATOM     25  C   UNL     1      34.725 -20.040 -20.593  0.00  0.00    +0.135 C 
ATOM     26  C   UNL     1      33.795 -19.788 -21.588  0.00  0.00    +0.027 C 
ATOM     27  C   UNL     1      34.153 -18.911 -22.606  0.00  0.00    +0.040 C 
ATOM     28  C   UNL     1      36.270 -18.639 -21.556  0.00  0.00    +0.136 C 
ATOM     29  C   UNL     1      35.412 -18.321 -22.597  0.00  0.00    +0.163 C 
BRANCH  29  30
ATOM     30  O   UNL     1      35.788 -17.462 -23.577  0.00  0.00    -0.422 OA
BRANCH  30  33
ATOM     31  F   UNL     1      34.997 -15.357 -23.597  0.00  0.00    -0.155 F 
ATOM     32  F   UNL     1      34.972 -16.491 -25.454  0.00  0.00    -0.155 F 
ATOM     33  C   UNL     1      34.792 -16.597 -24.114  0.00  0.00    +0.509 C 
ENDBRANCH  30  33
ENDBRANCH  29  30
ENDBRANCH   8  25
TORSDOF 4
ENDMDL
MODEL 2
REMARK VINA RESULT:     -10.2      2.046      2.937
REMARK  Name = 118435360
REMARK  4 active torsions:
REMARK  status: ('A' for Active; 'I' for Inactive)
REMARK    1  A    between atoms: C_3  and  C_11
REMARK    2  A    between atoms: C_22  and  C_25
REMARK    3  A    between atoms: C_29  and  O_30
REMARK    4  A    between atoms: O_30  and  C_33
REMARK                            x       y       z     vdW  Elec       q    Type
REMARK                         _______ _______ _______ _____ _____    ______ ____
ROOT
ATOM      1  S   UNL     1      33.236 -24.611 -16.020  0.00  0.00    -0.076 S 
ATOM      2  N   UNL     1      35.140 -22.887 -16.316  0.00  0.00    -0.387 NA
ATOM      3  C   UNL     1      34.685 -23.835 -15.527  0.00  0.00    +0.158 C 
ATOM      4  C   UNL     1      34.287 -22.757 -17.394  0.00  0.00    +0.174 C 
ATOM      5  C   UNL     1      33.199 -23.605 -17.408  0.00  0.00    +0.139 C 
ATOM      6  O   UNL     1      32.753 -22.106 -19.887  0.00  0.00    -0.268 OA
ATOM      7  N   UNL     1      34.538 -21.823 -18.377  0.00  0.00    -0.257 N 
ATOM      8  C   UNL     1      33.788 -21.546 -19.539  0.00  0.00    +0.269 C 
ATOM      9  H   UNL     1      35.347 -21.277 -18.249  0.00  0.00    +0.157 HD
ENDROOT
BRANCH   3  15
ATOM     10  S   UNL     1      38.362 -24.555 -15.164  0.00  0.00    -0.081 S 
ATOM     11  O   UNL     1      34.779 -24.822 -11.877  0.00  0.00    -0.354 OA
ATOM     12  N   UNL     1      35.998 -25.600 -14.323  0.00  0.00    -0.245 NA
ATOM     13  N   UNL     1      37.741 -27.059 -14.807  0.00  0.00    -0.338 N 
ATOM     14  C   UNL     1      36.381 -23.241 -13.670  0.00  0.00    +0.044 C 
ATOM     15  C   UNL     1      35.362 -24.277 -14.215  0.00  0.00    +0.166 C 
ATOM     16  C   UNL     1      36.832 -23.586 -12.237  0.00  0.00    +0.033 C 
ATOM     17  C   UNL     1      35.617 -23.800 -11.335  0.00  0.00    +0.116 C 
ATOM     18  C   UNL     1      34.245 -24.470 -13.156  0.00  0.00    +0.172 C 
ATOM     19  C   UNL     1      37.560 -23.037 -14.618  0.00  0.00    +0.067 C 
ATOM     20  C   UNL     1      36.042 -24.240  -9.940  0.00  0.00    +0.032 C 
ATOM     21  C   UNL     1      37.210 -25.801 -14.710  0.00  0.00    +0.148 C 
ATOM     22  H   UNL     1      38.671 -27.180 -15.106  0.00  0.00    +0.144 HD
ATOM     23  H   UNL     1      37.192 -27.845 -14.578  0.00  0.00    +0.144 HD
ENDBRANCH   3  15
BRANCH   8  25
ATOM     24  N   UNL     1      35.621 -20.172 -20.269  0.00  0.00    -0.236 NA
ATOM     25  C   UNL     1      34.304 -20.450 -20.401  0.00  0.00    +0.135 C 
ATOM     26  C   UNL     1      33.455 -19.785 -21.270  0.00  0.00    +0.027 C 
ATOM     27  C   UNL     1      33.991 -18.769 -22.053  0.00  0.00    +0.040 C 
ATOM     28  C   UNL     1      36.106 -19.178 -21.045  0.00  0.00    +0.136 C 
ATOM     29  C   UNL     1      35.340 -18.453 -21.944  0.00  0.00    +0.163 C 
BRANCH  29  30
ATOM     30  O   UNL     1      35.890 -17.466 -22.696  0.00  0.00    -0.422 OA
BRANCH  30  33
ATOM     31  F   UNL     1      35.428 -15.509 -23.701  0.00  0.00    -0.155 F 
ATOM     32  F   UNL     1      35.276 -17.336 -24.873  0.00  0.00    -0.155 F 
ATOM     33  C   UNL     1      35.049 -16.812 -23.642  0.00  0.00    +0.509 C 
ENDBRANCH  30  33
ENDBRANCH  29  30
ENDBRANCH   8  25
TORSDOF 4
ENDMDL
MODEL 3
REMARK VINA RESULT:      -9.6      2.926      4.043
REMARK  Name = 118435360
REMARK  4 active torsions:
REMARK  status: ('A' for Active; 'I' for Inactive)
REMARK    1  A    between atoms: C_3  and  C_11
REMARK    2  A    between atoms: C_22  and  C_25
REMARK    3  A    between atoms: C_29  and  O_30
REMARK    4  A    between atoms: O_30  and  C_33
REMARK                            x       y       z     vdW  Elec       q    Type
REMARK                         _______ _______ _______ _____ _____    ______ ____
ROOT
ATOM      1  S   UNL     1      36.857 -22.429 -16.744  0.00  0.00    -0.076 S 
ATOM      2  N   UNL     1      34.659 -22.033 -18.047  0.00  0.00    -0.387 NA
ATOM      3  C   UNL     1      35.175 -22.650 -17.008  0.00  0.00    +0.158 C 
ATOM      4  C   UNL     1      35.658 -21.329 -18.689  0.00  0.00    +0.174 C 
ATOM      5  C   UNL     1      36.916 -21.422 -18.131  0.00  0.00    +0.139 C 
ATOM      6  O   UNL     1      37.460 -19.660 -20.409  0.00  0.00    -0.268 OA
ATOM      7  N   UNL     1      35.378 -20.590 -19.820  0.00  0.00    -0.257 N 
ATOM      8  C   UNL     1      36.259 -19.816 -20.604  0.00  0.00    +0.269 C 
ATOM      9  H   UNL     1      34.440 -20.607 -20.119  0.00  0.00    +0.157 HD
ENDROOT
BRANCH   3  15
ATOM     10  S   UNL     1      36.686 -24.577 -14.149  0.00  0.00    -0.081 S 
ATOM     11  O   UNL     1      32.064 -24.324 -15.658  0.00  0.00    -0.354 OA
ATOM     12  N   UNL     1      34.804 -24.948 -16.074  0.00  0.00    -0.245 NA
ATOM     13  N   UNL     1      36.109 -26.764 -15.439  0.00  0.00    -0.338 N 
ATOM     14  C   UNL     1      34.389 -23.021 -14.575  0.00  0.00    +0.044 C 
ATOM     15  C   UNL     1      34.376 -23.541 -16.037  0.00  0.00    +0.166 C 
ATOM     16  C   UNL     1      33.371 -23.772 -13.694  0.00  0.00    +0.033 C 
ATOM     17  C   UNL     1      31.990 -23.758 -14.349  0.00  0.00    +0.116 C 
ATOM     18  C   UNL     1      32.906 -23.570 -16.534  0.00  0.00    +0.172 C 
ATOM     19  C   UNL     1      35.792 -23.023 -13.974  0.00  0.00    +0.067 C 
ATOM     20  C   UNL     1      30.994 -24.581 -13.543  0.00  0.00    +0.032 C 
ATOM     21  C   UNL     1      35.743 -25.448 -15.347  0.00  0.00    +0.148 C 
ATOM     22  H   UNL     1      36.829 -27.117 -14.869  0.00  0.00    +0.144 HD
ATOM     23  H   UNL     1      35.651 -27.359 -16.077  0.00  0.00    +0.144 HD
ENDBRANCH   3  15
BRANCH   8  25
ATOM     24  N   UNL     1      35.732 -17.800 -21.805  0.00  0.00    -0.236 NA
ATOM     25  C   UNL     1      35.660 -19.151 -21.791  0.00  0.00    +0.135 C 
ATOM     26  C   UNL     1      35.075 -19.906 -22.794  0.00  0.00    +0.027 C 
ATOM     27  C   UNL     1      34.530 -19.233 -23.882  0.00  0.00    +0.040 C 
ATOM     28  C   UNL     1      35.191 -17.181 -22.877  0.00  0.00    +0.136 C 
ATOM     29  C   UNL     1      34.584 -17.844 -23.932  0.00  0.00    +0.163 C 
BRANCH  29  30
ATOM     30  O   UNL     1      34.061 -17.162 -24.980  0.00  0.00    -0.422 OA
BRANCH  30  33
ATOM     31  F   UNL     1      33.830 -15.275 -26.181  0.00  0.00    -0.155 F 
ATOM     32  F   UNL     1      33.151 -15.276 -24.114  0.00  0.00    -0.155 F 
ATOM     33  C   UNL     1      34.124 -15.739 -24.938  0.00  0.00    +0.509 C 
ENDBRANCH  30  33
ENDBRANCH  29  30
ENDBRANCH   8  25
TORSDOF 4
ENDMDL
MODEL 4
REMARK VINA RESULT:      -8.7      4.340      6.609
REMARK  Name = 118435360
REMARK  4 active torsions:
REMARK  status: ('A' for Active; 'I' for Inactive)
REMARK    1  A    between atoms: C_3  and  C_11
REMARK    2  A    between atoms: C_22  and  C_25
REMARK    3  A    between atoms: C_29  and  O_30
REMARK    4  A    between atoms: O_30  and  C_33
REMARK                            x       y       z     vdW  Elec       q    Type
REMARK                         _______ _______ _______ _____ _____    ______ ____
ROOT
ATOM      1  S   UNL     1      32.413 -24.077 -16.526  0.00  0.00    -0.076 S 
ATOM      2  N   UNL     1      31.458 -22.055 -17.823  0.00  0.00    -0.387 NA
ATOM      3  C   UNL     1      31.154 -22.992 -16.954  0.00  0.00    +0.158 C 
ATOM      4  C   UNL     1      32.784 -22.194 -18.183  0.00  0.00    +0.174 C 
ATOM      5  C   UNL     1      33.466 -23.234 -17.585  0.00  0.00    +0.139 C 
ATOM      6  O   UNL     1      35.579 -22.094 -19.266  0.00  0.00    -0.268 OA
ATOM      7  N   UNL     1      33.358 -21.330 -19.092  0.00  0.00    -0.257 N 
ATOM      8  C   UNL     1      34.683 -21.317 -19.577  0.00  0.00    +0.269 C 
ATOM      9  H   UNL     1      32.764 -20.630 -19.448  0.00  0.00    +0.157 HD
ENDROOT
BRANCH   3  15
ATOM     10  S   UNL     1      30.560 -24.280 -13.468  0.00  0.00    -0.081 S 
ATOM     11  O   UNL     1      27.373 -22.907 -16.882  0.00  0.00    -0.354 OA
ATOM     12  N   UNL     1      29.482 -24.565 -15.946  0.00  0.00    -0.245 NA
ATOM     13  N   UNL     1      29.510 -26.412 -14.533  0.00  0.00    -0.338 N 
ATOM     14  C   UNL     1      29.526 -22.240 -15.094  0.00  0.00    +0.044 C 
ATOM     15  C   UNL     1      29.763 -23.169 -16.314  0.00  0.00    +0.166 C 
ATOM     16  C   UNL     1      28.049 -22.247 -14.652  0.00  0.00    +0.033 C 
ATOM     17  C   UNL     1      27.137 -21.957 -15.843  0.00  0.00    +0.116 C 
ATOM     18  C   UNL     1      28.705 -22.834 -17.399  0.00  0.00    +0.172 C 
ATOM     19  C   UNL     1      30.480 -22.545 -13.942  0.00  0.00    +0.067 C 
ATOM     20  C   UNL     1      25.670 -22.058 -15.446  0.00  0.00    +0.032 C 
ATOM     21  C   UNL     1      29.782 -25.099 -14.812  0.00  0.00    +0.148 C 
ATOM     22  H   UNL     1      29.751 -26.790 -13.658  0.00  0.00    +0.144 HD
ATOM     23  H   UNL     1      29.072 -26.978 -15.210  0.00  0.00    +0.144 HD
ENDBRANCH   3  15
BRANCH   8  25
ATOM     24  N   UNL     1      36.236 -19.730 -20.501  0.00  0.00    -0.236 NA
ATOM     25  C   UNL     1      34.997 -20.266 -20.582  0.00  0.00    +0.135 C 
ATOM     26  C   UNL     1      34.051 -19.893 -21.521  0.00  0.00    +0.027 C 
ATOM     27  C   UNL     1      34.398 -18.905 -22.437  0.00  0.00    +0.040 C 
ATOM     28  C   UNL     1      36.537 -18.773 -21.406  0.00  0.00    +0.136 C 
ATOM     29  C   UNL     1      35.662 -18.329 -22.385  0.00  0.00    +0.163 C 
BRANCH  29  30
ATOM     30  O   UNL     1      36.027 -17.365 -23.266  0.00  0.00    -0.422 OA
BRANCH  30  33
ATOM     31  F   UNL     1      35.092 -15.354 -23.633  0.00  0.00    -0.155 F 
ATOM     32  F   UNL     1      35.203 -16.762 -25.287  0.00  0.00    -0.155 F 
ATOM     33  C   UNL     1      34.990 -16.670 -23.951  0.00  0.00    +0.509 C 
ENDBRANCH  30  33
ENDBRANCH  29  30
ENDBRANCH   8  25
TORSDOF 4
ENDMDL
MODEL 5
REMARK VINA RESULT:      -8.6      9.150     14.507
REMARK  Name = 118435360
REMARK  4 active torsions:
REMARK  status: ('A' for Active; 'I' for Inactive)
REMARK    1  A    between atoms: C_3  and  C_11
REMARK    2  A    between atoms: C_22  and  C_25
REMARK    3  A    between atoms: C_29  and  O_30
REMARK    4  A    between atoms: O_30  and  C_33
REMARK                            x       y       z     vdW  Elec       q    Type
REMARK                         _______ _______ _______ _____ _____    ______ ____
ROOT
ATOM      1  S   UNL     1      31.245 -10.129 -19.733  0.00  0.00    -0.076 S 
ATOM      2  N   UNL     1      32.665 -10.692 -21.819  0.00  0.00    -0.387 NA
ATOM      3  C   UNL     1      32.078  -9.709 -21.174  0.00  0.00    +0.158 C 
ATOM      4  C   UNL     1      32.446 -11.870 -21.132  0.00  0.00    +0.174 C 
ATOM      5  C   UNL     1      31.698 -11.765 -19.978  0.00  0.00    +0.139 C 
ATOM      6  O   UNL     1      32.244 -14.644 -20.012  0.00  0.00    -0.268 OA
ATOM      7  N   UNL     1      32.958 -13.061 -21.602  0.00  0.00    -0.257 N 
ATOM      8  C   UNL     1      32.840 -14.351 -21.043  0.00  0.00    +0.269 C 
ATOM      9  H   UNL     1      33.475 -13.002 -22.439  0.00  0.00    +0.157 HD
ENDROOT
BRANCH   3  15
ATOM     10  S   UNL     1      33.333  -8.521 -24.518  0.00  0.00    -0.081 S 
ATOM     11  O   UNL     1      31.537  -5.988 -20.768  0.00  0.00    -0.354 OA
ATOM     12  N   UNL     1      33.451  -7.746 -21.916  0.00  0.00    -0.245 NA
ATOM     13  N   UNL     1      35.307  -7.373 -23.266  0.00  0.00    -0.338 N 
ATOM     14  C   UNL     1      31.160  -7.955 -22.834  0.00  0.00    +0.044 C 
ATOM     15  C   UNL     1      32.094  -8.236 -21.627  0.00  0.00    +0.166 C 
ATOM     16  C   UNL     1      30.994  -6.443 -23.085  0.00  0.00    +0.033 C 
ATOM     17  C   UNL     1      30.580  -5.733 -21.796  0.00  0.00    +0.116 C 
ATOM     18  C   UNL     1      31.618  -7.375 -20.427  0.00  0.00    +0.172 C 
ATOM     19  C   UNL     1      31.594  -8.709 -24.089  0.00  0.00    +0.067 C 
ATOM     20  C   UNL     1      30.508  -4.225 -22.000  0.00  0.00    +0.032 C 
ATOM     21  C   UNL     1      34.033  -7.832 -23.062  0.00  0.00    +0.148 C 
ATOM     22  H   UNL     1      35.723  -7.452 -24.153  0.00  0.00    +0.144 HD
ATOM     23  H   UNL     1      35.806  -6.962 -22.523  0.00  0.00    +0.144 HD
ENDBRANCH   3  15
BRANCH   8  25
ATOM     24  N   UNL     1      33.650 -15.230 -23.129  0.00  0.00    -0.236 NA
ATOM     25  C   UNL     1      33.486 -15.452 -21.805  0.00  0.00    +0.135 C 
ATOM     26  C   UNL     1      33.878 -16.612 -21.159  0.00  0.00    +0.027 C 
ATOM     27  C   UNL     1      34.478 -17.610 -21.921  0.00  0.00    +0.040 C 
ATOM     28  C   UNL     1      34.235 -16.222 -23.837  0.00  0.00    +0.136 C 
ATOM     29  C   UNL     1      34.663 -17.419 -23.285  0.00  0.00    +0.163 C 
BRANCH  29  30
ATOM     30  O   UNL     1      35.245 -18.375 -24.052  0.00  0.00    -0.422 OA
BRANCH  30  33
ATOM     31  F   UNL     1      33.516 -19.031 -25.330  0.00  0.00    -0.155 F 
ATOM     32  F   UNL     1      35.214 -20.373 -25.119  0.00  0.00    -0.155 F 
ATOM     33  C   UNL     1      34.442 -19.484 -24.446  0.00  0.00    +0.509 C 
ENDBRANCH  30  33
ENDBRANCH  29  30
ENDBRANCH   8  25
TORSDOF 4
ENDMDL
MODEL 6
REMARK VINA RESULT:      -8.1      9.075     14.688
REMARK  Name = 118435360
REMARK  4 active torsions:
REMARK  status: ('A' for Active; 'I' for Inactive)
REMARK    1  A    between atoms: C_3  and  C_11
REMARK    2  A    between atoms: C_22  and  C_25
REMARK    3  A    between atoms: C_29  and  O_30
REMARK    4  A    between atoms: O_30  and  C_33
REMARK                            x       y       z     vdW  Elec       q    Type
REMARK                         _______ _______ _______ _____ _____    ______ ____
ROOT
ATOM      1  S   UNL     1      31.219 -10.036 -20.001  0.00  0.00    -0.076 S 
ATOM      2  N   UNL     1      32.667 -10.525 -22.086  0.00  0.00    -0.387 NA
ATOM      3  C   UNL     1      32.077  -9.565 -21.411  0.00  0.00    +0.158 C 
ATOM      4  C   UNL     1      32.431 -11.728 -21.450  0.00  0.00    +0.174 C 
ATOM      5  C   UNL     1      31.665 -11.664 -20.304  0.00  0.00    +0.139 C 
ATOM      6  O   UNL     1      32.193 -14.544 -20.447  0.00  0.00    -0.268 OA
ATOM      7  N   UNL     1      32.942 -12.902 -21.961  0.00  0.00    -0.257 N 
ATOM      8  C   UNL     1      32.806 -14.213 -21.456  0.00  0.00    +0.269 C 
ATOM      9  H   UNL     1      33.472 -12.814 -22.786  0.00  0.00    +0.157 HD
ENDROOT
BRANCH   3  15
ATOM     10  S   UNL     1      33.398  -8.250 -24.681  0.00  0.00    -0.081 S 
ATOM     11  O   UNL     1      31.550  -5.860 -20.863  0.00  0.00    -0.354 OA
ATOM     12  N   UNL     1      33.474  -7.582 -22.048  0.00  0.00    -0.245 NA
ATOM     13  N   UNL     1      35.356  -7.166 -23.348  0.00  0.00    -0.338 N 
ATOM     14  C   UNL     1      31.199  -7.738 -23.014  0.00  0.00    +0.044 C 
ATOM     15  C   UNL     1      32.110  -8.075 -21.803  0.00  0.00    +0.166 C 
ATOM     16  C   UNL     1      31.046  -6.216 -23.206  0.00  0.00    +0.033 C 
ATOM     17  C   UNL     1      30.613  -5.557 -21.897  0.00  0.00    +0.116 C 
ATOM     18  C   UNL     1      31.617  -7.259 -20.578  0.00  0.00    +0.172 C 
ATOM     19  C   UNL     1      31.651  -8.444 -24.290  0.00  0.00    +0.067 C 
ATOM     20  C   UNL     1      30.554  -4.041 -22.041  0.00  0.00    +0.032 C 
ATOM     21  C   UNL     1      34.076  -7.625 -23.186  0.00  0.00    +0.148 C 
ATOM     22  H   UNL     1      35.788  -7.212 -24.231  0.00  0.00    +0.144 HD
ATOM     23  H   UNL     1      35.845  -6.789 -22.580  0.00  0.00    +0.144 HD
ENDBRANCH   3  15
BRANCH   8  25
ATOM     24  N   UNL     1      33.928 -16.338 -21.545  0.00  0.00    -0.236 NA
ATOM     25  C   UNL     1      33.457 -15.287 -22.253  0.00  0.00    +0.135 C 
ATOM     26  C   UNL     1      33.552 -15.175 -23.630  0.00  0.00    +0.027 C 
ATOM     27  C   UNL     1      34.170 -16.209 -24.326  0.00  0.00    +0.040 C 
ATOM     28  C   UNL     1      34.523 -17.323 -22.254  0.00  0.00    +0.136 C 
ATOM     29  C   UNL     1      34.668 -17.306 -23.632  0.00  0.00    +0.163 C 
BRANCH  29  30
ATOM     30  O   UNL     1      35.274 -18.329 -24.284  0.00  0.00    -0.422 OA
BRANCH  30  33
ATOM     31  F   UNL     1      35.249 -20.408 -25.140  0.00  0.00    -0.155 F 
ATOM     32  F   UNL     1      34.967 -20.167 -22.996  0.00  0.00    -0.155 F 
ATOM     33  C   UNL     1      34.670 -19.616 -24.200  0.00  0.00    +0.509 C 
ENDBRANCH  30  33
ENDBRANCH  29  30
ENDBRANCH   8  25
TORSDOF 4
ENDMDL
