MODEL 1
REMARK VINA RESULT:      -9.3      0.000      0.000
REMARK  Name = 55483
REMARK  15 active torsions:
REMARK  status: ('A' for Active; 'I' for Inactive)
REMARK    1  A    between atoms: C_1  and  C_2
REMARK    2  A    between atoms: C_1  and  C_17
REMARK    3  A    between atoms: C_2  and  C_3
REMARK    4  A    between atoms: C_3  and  C_4
REMARK    5  A    between atoms: C_4  and  C_5
REMARK    6  A    between atoms: C_5  and  N_6
REMARK    7  A    between atoms: N_6  and  C_9
REMARK    8  A    between atoms: C_9  and  C_10
REMARK    9  A    between atoms: C_10  and  C_11
REMARK   10  A    between atoms: C_17  and  N_18
REMARK   11  A    between atoms: N_18  and  C_21
REMARK   12  A    between atoms: C_21  and  C_22
REMARK   13  A    between atoms: C_22  and  C_23
REMARK   14  A    between atoms: C_26  and  O_29
REMARK   15  A    between atoms: C_28  and  O_31
REMARK                            x       y       z     vdW  Elec       q    Type
REMARK                         _______ _______ _______ _____ _____    ______ ____
ROOT
ATOM      1  C   UNL     1      32.566 -14.904 -21.118  0.00  0.00    -0.023 C 
ENDROOT
BRANCH   1   2
ATOM      2  C   UNL     1      34.043 -15.274 -21.285  0.00  0.00    -0.002 C 
BRANCH   2   3
ATOM      3  C   UNL     1      34.556 -14.890 -22.674  0.00  0.00    -0.002 C 
BRANCH   3   4
ATOM      4  C   UNL     1      33.760 -15.530 -23.816  0.00  0.00    -0.023 C 
BRANCH   4   5
ATOM      5  C   UNL     1      34.482 -16.709 -24.468  0.00  0.00    -0.082 C 
BRANCH   5   6
ATOM      6  N   UNL     1      35.687 -17.039 -23.713  0.00  0.00    +0.384 N 
ATOM      7  H   UNL     1      35.742 -16.438 -22.891  0.00  0.00    -0.085 HD
ATOM      8  H   UNL     1      36.498 -16.896 -24.315  0.00  0.00    -0.085 HD
BRANCH   6   9
ATOM      9  C   UNL     1      35.665 -18.430 -23.285  0.00  0.00    -0.077 C 
BRANCH   9  10
ATOM     10  C   UNL     1      36.066 -18.558 -21.815  0.00  0.00    +0.003 C 
BRANCH  10  11
ATOM     11  C   UNL     1      35.137 -19.480 -21.065  0.00  0.00    -0.024 C 
ATOM     12  C   UNL     1      33.759 -19.272 -21.116  0.00  0.00    -0.004 C 
ATOM     13  C   UNL     1      35.657 -20.540 -20.321  0.00  0.00    -0.004 C 
ATOM     14  C   UNL     1      32.900 -20.124 -20.422  0.00  0.00    -0.000 C 
ATOM     15  C   UNL     1      34.798 -21.391 -19.628  0.00  0.00    -0.000 C 
ATOM     16  C   UNL     1      33.419 -21.184 -19.678  0.00  0.00    -0.000 C 
ENDBRANCH  10  11
ENDBRANCH   9  10
ENDBRANCH   6   9
ENDBRANCH   5   6
ENDBRANCH   4   5
ENDBRANCH   3   4
ENDBRANCH   2   3
ENDBRANCH   1   2
BRANCH   1  17
ATOM     17  C   UNL     1      32.282 -13.504 -21.661  0.00  0.00    -0.082 C 
BRANCH  17  18
ATOM     18  N   UNL     1      31.873 -12.615 -20.580  0.00  0.00    +0.384 N 
ATOM     19  H   UNL     1      32.705 -12.237 -20.127  0.00  0.00    -0.085 HD
ATOM     20  H   UNL     1      31.314 -13.148 -19.914  0.00  0.00    -0.085 HD
BRANCH  18  21
ATOM     21  C   UNL     1      31.066 -11.515 -21.089  0.00  0.00    -0.077 C 
BRANCH  21  22
ATOM     22  C   UNL     1      31.780 -10.795 -22.232  0.00  0.00    +0.003 C 
BRANCH  22  23
ATOM     23  C   UNL     1      31.857  -9.308 -21.986  0.00  0.00    -0.021 C 
ATOM     24  C   UNL     1      32.426  -8.825 -20.809  0.00  0.00    +0.035 C 
ATOM     25  C   UNL     1      31.359  -8.418 -22.938  0.00  0.00    -0.001 C 
ATOM     26  C   UNL     1      32.496  -7.450 -20.581  0.00  0.00    +0.167 C 
ATOM     27  C   UNL     1      31.429  -7.043 -22.709  0.00  0.00    +0.039 C 
ATOM     28  C   UNL     1      31.998  -6.560 -21.531  0.00  0.00    +0.167 C 
BRANCH  26  29
ATOM     29  O   UNL     1      33.056  -6.991 -19.427  0.00  0.00    -0.503 OA
ATOM     30  H   UNL     1      32.927  -7.457 -18.625  0.00  0.00    +0.292 HD
ENDBRANCH  26  29
BRANCH  28  31
ATOM     31  O   UNL     1      32.063  -5.215 -21.321  0.00  0.00    -0.503 OA
ATOM     32  H   UNL     1      32.737  -4.858 -20.777  0.00  0.00    +0.292 HD
ENDBRANCH  28  31
ENDBRANCH  22  23
ENDBRANCH  21  22
ENDBRANCH  18  21
ENDBRANCH  17  18
ENDBRANCH   1  17
TORSDOF 15
ENDMDL
MODEL 2
REMARK VINA RESULT:      -9.1      2.063      3.072
REMARK  Name = 55483
REMARK  15 active torsions:
REMARK  status: ('A' for Active; 'I' for Inactive)
REMARK    1  A    between atoms: C_1  and  C_2
REMARK    2  A    between atoms: C_1  and  C_17
REMARK    3  A    between atoms: C_2  and  C_3
REMARK    4  A    between atoms: C_3  and  C_4
REMARK    5  A    between atoms: C_4  and  C_5
REMARK    6  A    between atoms: C_5  and  N_6
REMARK    7  A    between atoms: N_6  and  C_9
REMARK    8  A    between atoms: C_9  and  C_10
REMARK    9  A    between atoms: C_10  and  C_11
REMARK   10  A    between atoms: C_17  and  N_18
REMARK   11  A    between atoms: N_18  and  C_21
REMARK   12  A    between atoms: C_21  and  C_22
REMARK   13  A    between atoms: C_22  and  C_23
REMARK   14  A    between atoms: C_26  and  O_29
REMARK   15  A    between atoms: C_28  and  O_31
REMARK                            x       y       z     vdW  Elec       q    Type
REMARK                         _______ _______ _______ _____ _____    ______ ____
ROOT
ATOM      1  C   UNL     1      33.504 -13.106 -25.026  0.00  0.00    -0.023 C 
ENDROOT
BRANCH   1   2
ATOM      2  C   UNL     1      33.905 -13.465 -23.592  0.00  0.00    -0.002 C 
BRANCH   2   3
ATOM      3  C   UNL     1      32.975 -14.530 -23.006  0.00  0.00    -0.002 C 
BRANCH   3   4
ATOM      4  C   UNL     1      33.228 -14.808 -21.521  0.00  0.00    -0.023 C 
BRANCH   4   5
ATOM      5  C   UNL     1      34.680 -15.174 -21.215  0.00  0.00    -0.082 C 
BRANCH   5   6
ATOM      6  N   UNL     1      34.734 -16.416 -20.450  0.00  0.00    +0.384 N 
ATOM      7  H   UNL     1      33.791 -16.668 -20.155  0.00  0.00    -0.085 HD
ATOM      8  H   UNL     1      35.335 -16.272 -19.638  0.00  0.00    -0.085 HD
BRANCH   6   9
ATOM      9  C   UNL     1      35.287 -17.496 -21.254  0.00  0.00    -0.077 C 
BRANCH   9  10
ATOM     10  C   UNL     1      34.217 -18.536 -21.585  0.00  0.00    +0.003 C 
BRANCH  10  11
ATOM     11  C   UNL     1      34.369 -19.776 -20.740  0.00  0.00    -0.024 C 
ATOM     12  C   UNL     1      33.243 -20.389 -20.192  0.00  0.00    -0.004 C 
ATOM     13  C   UNL     1      35.638 -20.309 -20.508  0.00  0.00    -0.004 C 
ATOM     14  C   UNL     1      33.384 -21.536 -19.411  0.00  0.00    -0.000 C 
ATOM     15  C   UNL     1      35.778 -21.456 -19.726  0.00  0.00    -0.000 C 
ATOM     16  C   UNL     1      34.652 -22.070 -19.178  0.00  0.00    -0.000 C 
ENDBRANCH  10  11
ENDBRANCH   9  10
ENDBRANCH   6   9
ENDBRANCH   5   6
ENDBRANCH   4   5
ENDBRANCH   3   4
ENDBRANCH   2   3
ENDBRANCH   1   2
BRANCH   1  17
ATOM     17  C   UNL     1      33.897 -11.669 -25.366  0.00  0.00    -0.082 C 
BRANCH  17  18
ATOM     18  N   UNL     1      34.631 -11.070 -24.259  0.00  0.00    +0.384 N 
ATOM     19  H   UNL     1      35.627 -11.066 -24.483  0.00  0.00    -0.085 HD
ATOM     20  H   UNL     1      34.457 -11.618 -23.417  0.00  0.00    -0.085 HD
BRANCH  18  21
ATOM     21  C   UNL     1      34.190  -9.702 -24.023  0.00  0.00    -0.077 C 
BRANCH  21  22
ATOM     22  C   UNL     1      32.669  -9.633 -23.889  0.00  0.00    +0.003 C 
BRANCH  22  23
ATOM     23  C   UNL     1      32.225  -9.919 -22.475  0.00  0.00    -0.021 C 
ATOM     24  C   UNL     1      32.374  -8.947 -21.488  0.00  0.00    +0.035 C 
ATOM     25  C   UNL     1      31.665 -11.157 -22.158  0.00  0.00    -0.001 C 
ATOM     26  C   UNL     1      31.964  -9.212 -20.181  0.00  0.00    +0.167 C 
ATOM     27  C   UNL     1      31.255 -11.421 -20.851  0.00  0.00    +0.039 C 
ATOM     28  C   UNL     1      31.405 -10.448 -19.863  0.00  0.00    +0.167 C 
BRANCH  26  29
ATOM     29  O   UNL     1      32.114  -8.252 -19.225  0.00  0.00    -0.503 OA
ATOM     30  H   UNL     1      32.766  -7.588 -19.326  0.00  0.00    +0.292 HD
ENDBRANCH  26  29
BRANCH  28  31
ATOM     31  O   UNL     1      30.999 -10.718 -18.590  0.00  0.00    -0.503 OA
ATOM     32  H   UNL     1      31.629 -10.953 -17.937  0.00  0.00    +0.292 HD
ENDBRANCH  28  31
ENDBRANCH  22  23
ENDBRANCH  21  22
ENDBRANCH  18  21
ENDBRANCH  17  18
ENDBRANCH   1  17
TORSDOF 15
ENDMDL
MODEL 3
REMARK VINA RESULT:      -9.1      4.736     10.231
REMARK  Name = 55483
REMARK  15 active torsions:
REMARK  status: ('A' for Active; 'I' for Inactive)
REMARK    1  A    between atoms: C_1  and  C_2
REMARK    2  A    between atoms: C_1  and  C_17
REMARK    3  A    between atoms: C_2  and  C_3
REMARK    4  A    between atoms: C_3  and  C_4
REMARK    5  A    between atoms: C_4  and  C_5
REMARK    6  A    between atoms: C_5  and  N_6
REMARK    7  A    between atoms: N_6  and  C_9
REMARK    8  A    between atoms: C_9  and  C_10
REMARK    9  A    between atoms: C_10  and  C_11
REMARK   10  A    between atoms: C_17  and  N_18
REMARK   11  A    between atoms: N_18  and  C_21
REMARK   12  A    between atoms: C_21  and  C_22
REMARK   13  A    between atoms: C_22  and  C_23
REMARK   14  A    between atoms: C_26  and  O_29
REMARK   15  A    between atoms: C_28  and  O_31
REMARK                            x       y       z     vdW  Elec       q    Type
REMARK                         _______ _______ _______ _____ _____    ______ ____
ROOT
ATOM      1  C   UNL     1      33.889 -15.603 -23.912  0.00  0.00    -0.023 C 
ENDROOT
BRANCH   1   2
ATOM      2  C   UNL     1      33.363 -14.572 -22.910  0.00  0.00    -0.002 C 
BRANCH   2   3
ATOM      3  C   UNL     1      32.853 -13.317 -23.621  0.00  0.00    -0.002 C 
BRANCH   3   4
ATOM      4  C   UNL     1      33.717 -12.903 -24.818  0.00  0.00    -0.023 C 
BRANCH   4   5
ATOM      5  C   UNL     1      33.774 -11.390 -25.025  0.00  0.00    -0.082 C 
BRANCH   5   6
ATOM      6  N   UNL     1      34.368 -10.746 -23.857  0.00  0.00    +0.384 N 
ATOM      7  H   UNL     1      35.379 -10.697 -23.980  0.00  0.00    -0.085 HD
ATOM      8  H   UNL     1      34.135 -11.294 -23.029  0.00  0.00    -0.085 HD
BRANCH   6   9
ATOM      9  C   UNL     1      33.843  -9.399 -23.686  0.00  0.00    -0.077 C 
BRANCH   9  10
ATOM     10  C   UNL     1      32.326  -9.422 -23.495  0.00  0.00    +0.003 C 
BRANCH  10  11
ATOM     11  C   UNL     1      31.952  -9.752 -22.071  0.00  0.00    -0.024 C 
ATOM     12  C   UNL     1      32.347  -8.908 -21.034  0.00  0.00    -0.004 C 
ATOM     13  C   UNL     1      31.211 -10.901 -21.794  0.00  0.00    -0.004 C 
ATOM     14  C   UNL     1      32.001  -9.214 -19.717  0.00  0.00    -0.000 C 
ATOM     15  C   UNL     1      30.865 -11.206 -20.478  0.00  0.00    -0.000 C 
ATOM     16  C   UNL     1      31.260 -10.363 -19.439  0.00  0.00    -0.000 C 
ENDBRANCH  10  11
ENDBRANCH   9  10
ENDBRANCH   6   9
ENDBRANCH   5   6
ENDBRANCH   4   5
ENDBRANCH   3   4
ENDBRANCH   2   3
ENDBRANCH   1   2
BRANCH   1  17
ATOM     17  C   UNL     1      35.065 -16.389 -23.332  0.00  0.00    -0.082 C 
BRANCH  17  18
ATOM     18  N   UNL     1      35.379 -17.530 -24.182  0.00  0.00    +0.384 N 
ATOM     19  H   UNL     1      36.196 -17.308 -24.750  0.00  0.00    -0.085 HD
ATOM     20  H   UNL     1      34.574 -17.726 -24.776  0.00  0.00    -0.085 HD
BRANCH  18  21
ATOM     21  C   UNL     1      35.664 -18.712 -23.380  0.00  0.00    -0.077 C 
BRANCH  21  22
ATOM     22  C   UNL     1      35.671 -18.374 -21.889  0.00  0.00    +0.003 C 
BRANCH  22  23
ATOM     23  C   UNL     1      34.912 -19.400 -21.085  0.00  0.00    -0.021 C 
ATOM     24  C   UNL     1      35.604 -20.379 -20.373  0.00  0.00    +0.035 C 
ATOM     25  C   UNL     1      33.518 -19.370 -21.055  0.00  0.00    -0.001 C 
ATOM     26  C   UNL     1      34.903 -21.328 -19.630  0.00  0.00    +0.167 C 
ATOM     27  C   UNL     1      32.817 -20.320 -20.312  0.00  0.00    +0.039 C 
ATOM     28  C   UNL     1      33.509 -21.299 -19.599  0.00  0.00    +0.167 C 
BRANCH  26  29
ATOM     29  O   UNL     1      35.591 -22.278 -18.937  0.00  0.00    -0.503 OA
ATOM     30  H   UNL     1      36.527 -22.260 -18.921  0.00  0.00    +0.292 HD
ENDBRANCH  26  29
BRANCH  28  31
ATOM     31  O   UNL     1      32.813 -22.220 -18.876  0.00  0.00    -0.503 OA
ATOM     32  H   UNL     1      33.260 -22.945 -18.486  0.00  0.00    +0.292 HD
ENDBRANCH  28  31
ENDBRANCH  22  23
ENDBRANCH  21  22
ENDBRANCH  18  21
ENDBRANCH  17  18
ENDBRANCH   1  17
TORSDOF 15
ENDMDL
MODEL 4
REMARK VINA RESULT:      -9.1      4.596     10.383
REMARK  Name = 55483
REMARK  15 active torsions:
REMARK  status: ('A' for Active; 'I' for Inactive)
REMARK    1  A    between atoms: C_1  and  C_2
REMARK    2  A    between atoms: C_1  and  C_17
REMARK    3  A    between atoms: C_2  and  C_3
REMARK    4  A    between atoms: C_3  and  C_4
REMARK    5  A    between atoms: C_4  and  C_5
REMARK    6  A    between atoms: C_5  and  N_6
REMARK    7  A    between atoms: N_6  and  C_9
REMARK    8  A    between atoms: C_9  and  C_10
REMARK    9  A    between atoms: C_10  and  C_11
REMARK   10  A    between atoms: C_17  and  N_18
REMARK   11  A    between atoms: N_18  and  C_21
REMARK   12  A    between atoms: C_21  and  C_22
REMARK   13  A    between atoms: C_22  and  C_23
REMARK   14  A    between atoms: C_26  and  O_29
REMARK   15  A    between atoms: C_28  and  O_31
REMARK                            x       y       z     vdW  Elec       q    Type
REMARK                         _______ _______ _______ _____ _____    ______ ____
ROOT
ATOM      1  C   UNL     1      34.256 -14.863 -23.553  0.00  0.00    -0.023 C 
ENDROOT
BRANCH   1   2
ATOM      2  C   UNL     1      34.497 -14.764 -22.045  0.00  0.00    -0.002 C 
BRANCH   2   3
ATOM      3  C   UNL     1      33.526 -15.656 -21.268  0.00  0.00    -0.002 C 
BRANCH   3   4
ATOM      4  C   UNL     1      32.296 -14.906 -20.746  0.00  0.00    -0.023 C 
BRANCH   4   5
ATOM      5  C   UNL     1      32.517 -13.399 -20.620  0.00  0.00    -0.082 C 
BRANCH   5   6
ATOM      6  N   UNL     1      31.543 -12.678 -21.433  0.00  0.00    +0.384 N 
ATOM      7  H   UNL     1      30.611 -13.048 -21.243  0.00  0.00    -0.085 HD
ATOM      8  H   UNL     1      31.782 -12.804 -22.417  0.00  0.00    -0.085 HD
BRANCH   6   9
ATOM      9  C   UNL     1      31.563 -11.256 -21.127  0.00  0.00    -0.077 C 
BRANCH   9  10
ATOM     10  C   UNL     1      31.290 -10.422 -22.379  0.00  0.00    +0.003 C 
BRANCH  10  11
ATOM     11  C   UNL     1      32.570  -9.932 -23.009  0.00  0.00    -0.024 C 
ATOM     12  C   UNL     1      33.324 -10.789 -23.811  0.00  0.00    -0.004 C 
ATOM     13  C   UNL     1      32.998  -8.622 -22.790  0.00  0.00    -0.004 C 
ATOM     14  C   UNL     1      34.508 -10.336 -24.393  0.00  0.00    -0.000 C 
ATOM     15  C   UNL     1      34.182  -8.170 -23.373  0.00  0.00    -0.000 C 
ATOM     16  C   UNL     1      34.937  -9.027 -24.174  0.00  0.00    -0.000 C 
ENDBRANCH  10  11
ENDBRANCH   9  10
ENDBRANCH   6   9
ENDBRANCH   5   6
ENDBRANCH   4   5
ENDBRANCH   3   4
ENDBRANCH   2   3
ENDBRANCH   1   2
BRANCH   1  17
ATOM     17  C   UNL     1      34.397 -16.304 -24.042  0.00  0.00    -0.082 C 
BRANCH  17  18
ATOM     18  N   UNL     1      35.662 -16.870 -23.589  0.00  0.00    +0.384 N 
ATOM     19  H   UNL     1      35.980 -16.360 -22.765  0.00  0.00    -0.085 HD
ATOM     20  H   UNL     1      36.344 -16.790 -24.343  0.00  0.00    -0.085 HD
BRANCH  18  21
ATOM     21  C   UNL     1      35.508 -18.278 -23.248  0.00  0.00    -0.077 C 
BRANCH  21  22
ATOM     22  C   UNL     1      36.066 -18.568 -21.855  0.00  0.00    +0.003 C 
BRANCH  22  23
ATOM     23  C   UNL     1      35.165 -19.500 -21.082  0.00  0.00    -0.021 C 
ATOM     24  C   UNL     1      35.718 -20.511 -20.297  0.00  0.00    +0.035 C 
ATOM     25  C   UNL     1      33.780 -19.351 -21.154  0.00  0.00    -0.001 C 
ATOM     26  C   UNL     1      34.886 -21.374 -19.583  0.00  0.00    +0.167 C 
ATOM     27  C   UNL     1      32.949 -20.214 -20.440  0.00  0.00    +0.039 C 
ATOM     28  C   UNL     1      33.502 -21.225 -19.655  0.00  0.00    +0.167 C 
BRANCH  26  29
ATOM     29  O   UNL     1      35.439 -22.357 -18.818  0.00  0.00    -0.503 OA
ATOM     30  H   UNL     1      35.184 -23.248 -18.945  0.00  0.00    +0.292 HD
ENDBRANCH  26  29
BRANCH  28  31
ATOM     31  O   UNL     1      32.679 -22.061 -18.961  0.00  0.00    -0.503 OA
ATOM     32  H   UNL     1      32.410 -22.874 -19.340  0.00  0.00    +0.292 HD
ENDBRANCH  28  31
ENDBRANCH  22  23
ENDBRANCH  21  22
ENDBRANCH  18  21
ENDBRANCH  17  18
ENDBRANCH   1  17
TORSDOF 15
ENDMDL
MODEL 5
REMARK VINA RESULT:      -9.1      1.421      1.960
REMARK  Name = 55483
REMARK  15 active torsions:
REMARK  status: ('A' for Active; 'I' for Inactive)
REMARK    1  A    between atoms: C_1  and  C_2
REMARK    2  A    between atoms: C_1  and  C_17
REMARK    3  A    between atoms: C_2  and  C_3
REMARK    4  A    between atoms: C_3  and  C_4
REMARK    5  A    between atoms: C_4  and  C_5
REMARK    6  A    between atoms: C_5  and  N_6
REMARK    7  A    between atoms: N_6  and  C_9
REMARK    8  A    between atoms: C_9  and  C_10
REMARK    9  A    between atoms: C_10  and  C_11
REMARK   10  A    between atoms: C_17  and  N_18
REMARK   11  A    between atoms: N_18  and  C_21
REMARK   12  A    between atoms: C_21  and  C_22
REMARK   13  A    between atoms: C_22  and  C_23
REMARK   14  A    between atoms: C_26  and  O_29
REMARK   15  A    between atoms: C_28  and  O_31
REMARK                            x       y       z     vdW  Elec       q    Type
REMARK                         _______ _______ _______ _____ _____    ______ ____
ROOT
ATOM      1  C   UNL     1      34.079 -13.843 -23.239  0.00  0.00    -0.023 C 
ENDROOT
BRANCH   1   2
ATOM      2  C   UNL     1      33.566 -15.262 -23.499  0.00  0.00    -0.002 C 
BRANCH   2   3
ATOM      3  C   UNL     1      33.706 -15.640 -24.975  0.00  0.00    -0.002 C 
BRANCH   3   4
ATOM      4  C   UNL     1      34.797 -16.683 -25.236  0.00  0.00    -0.023 C 
BRANCH   4   5
ATOM      5  C   UNL     1      34.559 -18.001 -24.500  0.00  0.00    -0.082 C 
BRANCH   5   6
ATOM      6  N   UNL     1      35.745 -18.368 -23.731  0.00  0.00    +0.384 N 
ATOM      7  H   UNL     1      36.572 -17.986 -24.190  0.00  0.00    -0.085 HD
ATOM      8  H   UNL     1      35.801 -19.386 -23.685  0.00  0.00    -0.085 HD
BRANCH   6   9
ATOM      9  C   UNL     1      35.666 -17.844 -22.375  0.00  0.00    -0.077 C 
BRANCH   9  10
ATOM     10  C   UNL     1      36.324 -18.800 -21.379  0.00  0.00    +0.003 C 
BRANCH  10  11
ATOM     11  C   UNL     1      35.313 -19.726 -20.751  0.00  0.00    -0.024 C 
ATOM     12  C   UNL     1      35.743 -20.830 -20.015  0.00  0.00    -0.004 C 
ATOM     13  C   UNL     1      33.949 -19.478 -20.906  0.00  0.00    -0.004 C 
ATOM     14  C   UNL     1      34.808 -21.687 -19.433  0.00  0.00    -0.000 C 
ATOM     15  C   UNL     1      33.015 -20.335 -20.324  0.00  0.00    -0.000 C 
ATOM     16  C   UNL     1      33.444 -21.440 -19.588  0.00  0.00    -0.000 C 
ENDBRANCH  10  11
ENDBRANCH   9  10
ENDBRANCH   6   9
ENDBRANCH   5   6
ENDBRANCH   4   5
ENDBRANCH   3   4
ENDBRANCH   2   3
ENDBRANCH   1   2
BRANCH   1  17
ATOM     17  C   UNL     1      33.645 -12.886 -24.349  0.00  0.00    -0.082 C 
BRANCH  17  18
ATOM     18  N   UNL     1      34.279 -11.586 -24.173  0.00  0.00    +0.384 N 
ATOM     19  H   UNL     1      34.934 -11.428 -24.939  0.00  0.00    -0.085 HD
ATOM     20  H   UNL     1      34.769 -11.580 -23.279  0.00  0.00    -0.085 HD
BRANCH  18  21
ATOM     21  C   UNL     1      33.287 -10.520 -24.166  0.00  0.00    -0.077 C 
BRANCH  21  22
ATOM     22  C   UNL     1      32.479 -10.533 -22.869  0.00  0.00    +0.003 C 
BRANCH  22  23
ATOM     23  C   UNL     1      32.197  -9.134 -22.379  0.00  0.00    -0.021 C 
ATOM     24  C   UNL     1      32.684  -8.718 -21.141  0.00  0.00    +0.035 C 
ATOM     25  C   UNL     1      31.448  -8.258 -23.165  0.00  0.00    -0.001 C 
ATOM     26  C   UNL     1      32.423  -7.424 -20.688  0.00  0.00    +0.167 C 
ATOM     27  C   UNL     1      31.187  -6.965 -22.711  0.00  0.00    +0.039 C 
ATOM     28  C   UNL     1      31.674  -6.549 -21.473  0.00  0.00    +0.167 C 
BRANCH  26  29
ATOM     29  O   UNL     1      32.906  -7.029 -19.476  0.00  0.00    -0.503 OA
ATOM     30  H   UNL     1      33.816  -7.125 -19.282  0.00  0.00    +0.292 HD
ENDBRANCH  26  29
BRANCH  28  31
ATOM     31  O   UNL     1      31.414  -5.283 -21.042  0.00  0.00    -0.503 OA
ATOM     32  H   UNL     1      30.689  -4.807 -21.397  0.00  0.00    +0.292 HD
ENDBRANCH  28  31
ENDBRANCH  22  23
ENDBRANCH  21  22
ENDBRANCH  18  21
ENDBRANCH  17  18
ENDBRANCH   1  17
TORSDOF 15
ENDMDL
MODEL 6
REMARK VINA RESULT:      -9.1      4.849     11.039
REMARK  Name = 55483
REMARK  15 active torsions:
REMARK  status: ('A' for Active; 'I' for Inactive)
REMARK    1  A    between atoms: C_1  and  C_2
REMARK    2  A    between atoms: C_1  and  C_17
REMARK    3  A    between atoms: C_2  and  C_3
REMARK    4  A    between atoms: C_3  and  C_4
REMARK    5  A    between atoms: C_4  and  C_5
REMARK    6  A    between atoms: C_5  and  N_6
REMARK    7  A    between atoms: N_6  and  C_9
REMARK    8  A    between atoms: C_9  and  C_10
REMARK    9  A    between atoms: C_10  and  C_11
REMARK   10  A    between atoms: C_17  and  N_18
REMARK   11  A    between atoms: N_18  and  C_21
REMARK   12  A    between atoms: C_21  and  C_22
REMARK   13  A    between atoms: C_22  and  C_23
REMARK   14  A    between atoms: C_26  and  O_29
REMARK   15  A    between atoms: C_28  and  O_31
REMARK                            x       y       z     vdW  Elec       q    Type
REMARK                         _______ _______ _______ _____ _____    ______ ____
ROOT
ATOM      1  C   UNL     1      34.210 -18.179 -24.983  0.00  0.00    -0.023 C 
ENDROOT
BRANCH   1   2
ATOM      2  C   UNL     1      34.822 -16.790 -25.186  0.00  0.00    -0.002 C 
BRANCH   2   3
ATOM      3  C   UNL     1      33.850 -15.688 -24.759  0.00  0.00    -0.002 C 
BRANCH   3   4
ATOM      4  C   UNL     1      33.651 -15.606 -23.242  0.00  0.00    -0.023 C 
BRANCH   4   5
ATOM      5  C   UNL     1      33.628 -14.172 -22.713  0.00  0.00    -0.082 C 
BRANCH   5   6
ATOM      6  N   UNL     1      34.153 -13.257 -23.721  0.00  0.00    +0.384 N 
ATOM      7  H   UNL     1      34.058 -13.684 -24.643  0.00  0.00    -0.085 HD
ATOM      8  H   UNL     1      35.135 -13.072 -23.514  0.00  0.00    -0.085 HD
BRANCH   6   9
ATOM      9  C   UNL     1      33.428 -11.995 -23.703  0.00  0.00    -0.077 C 
BRANCH   9  10
ATOM     10  C   UNL     1      34.177 -10.921 -24.494  0.00  0.00    +0.003 C 
BRANCH  10  11
ATOM     11  C   UNL     1      33.885  -9.539 -23.966  0.00  0.00    -0.024 C 
ATOM     12  C   UNL     1      32.653  -9.266 -23.373  0.00  0.00    -0.004 C 
ATOM     13  C   UNL     1      34.849  -8.535 -24.070  0.00  0.00    -0.004 C 
ATOM     14  C   UNL     1      32.383  -7.987 -22.884  0.00  0.00    -0.000 C 
ATOM     15  C   UNL     1      34.578  -7.257 -23.581  0.00  0.00    -0.000 C 
ATOM     16  C   UNL     1      33.346  -6.983 -22.988  0.00  0.00    -0.000 C 
ENDBRANCH  10  11
ENDBRANCH   9  10
ENDBRANCH   6   9
ENDBRANCH   5   6
ENDBRANCH   4   5
ENDBRANCH   3   4
ENDBRANCH   2   3
ENDBRANCH   1   2
BRANCH   1  17
ATOM     17  C   UNL     1      35.107 -19.055 -24.109  0.00  0.00    -0.082 C 
BRANCH  17  18
ATOM     18  N   UNL     1      35.947 -18.225 -23.254  0.00  0.00    +0.384 N 
ATOM     19  H   UNL     1      35.639 -17.256 -23.323  0.00  0.00    -0.085 HD
ATOM     20  H   UNL     1      36.915 -18.314 -23.563  0.00  0.00    -0.085 HD
BRANCH  18  21
ATOM     21  C   UNL     1      35.861 -18.656 -21.865  0.00  0.00    -0.077 C 
BRANCH  21  22
ATOM     22  C   UNL     1      34.490 -19.262 -21.564  0.00  0.00    +0.003 C 
BRANCH  22  23
ATOM     23  C   UNL     1      34.577 -20.318 -20.490  0.00  0.00    -0.021 C 
ATOM     24  C   UNL     1      33.411 -20.839 -19.930  0.00  0.00    +0.035 C 
ATOM     25  C   UNL     1      35.822 -20.772 -20.057  0.00  0.00    -0.001 C 
ATOM     26  C   UNL     1      33.490 -21.815 -18.937  0.00  0.00    +0.167 C 
ATOM     27  C   UNL     1      35.901 -21.748 -19.063  0.00  0.00    +0.039 C 
ATOM     28  C   UNL     1      34.735 -22.269 -18.504  0.00  0.00    +0.167 C 
BRANCH  26  29
ATOM     29  O   UNL     1      32.343 -22.318 -18.399  0.00  0.00    -0.503 OA
ATOM     30  H   UNL     1      32.161 -22.199 -17.488  0.00  0.00    +0.292 HD
ENDBRANCH  26  29
BRANCH  28  31
ATOM     31  O   UNL     1      34.825 -23.223 -17.535  0.00  0.00    -0.503 OA
ATOM     32  H   UNL     1      35.433 -23.931 -17.630  0.00  0.00    +0.292 HD
ENDBRANCH  28  31
ENDBRANCH  22  23
ENDBRANCH  21  22
ENDBRANCH  18  21
ENDBRANCH  17  18
ENDBRANCH   1  17
TORSDOF 15
ENDMDL
MODEL 7
REMARK VINA RESULT:      -9.0      6.505     11.755
REMARK  Name = 55483
REMARK  15 active torsions:
REMARK  status: ('A' for Active; 'I' for Inactive)
REMARK    1  A    between atoms: C_1  and  C_2
REMARK    2  A    between atoms: C_1  and  C_17
REMARK    3  A    between atoms: C_2  and  C_3
REMARK    4  A    between atoms: C_3  and  C_4
REMARK    5  A    between atoms: C_4  and  C_5
REMARK    6  A    between atoms: C_5  and  N_6
REMARK    7  A    between atoms: N_6  and  C_9
REMARK    8  A    between atoms: C_9  and  C_10
REMARK    9  A    between atoms: C_10  and  C_11
REMARK   10  A    between atoms: C_17  and  N_18
REMARK   11  A    between atoms: N_18  and  C_21
REMARK   12  A    between atoms: C_21  and  C_22
REMARK   13  A    between atoms: C_22  and  C_23
REMARK   14  A    between atoms: C_26  and  O_29
REMARK   15  A    between atoms: C_28  and  O_31
REMARK                            x       y       z     vdW  Elec       q    Type
REMARK                         _______ _______ _______ _____ _____    ______ ____
ROOT
ATOM      1  C   UNL     1      33.559 -23.140 -17.336  0.00  0.00    -0.023 C 
ENDROOT
BRANCH   1   2
ATOM      2  C   UNL     1      34.324 -22.406 -18.441  0.00  0.00    -0.002 C 
BRANCH   2   3
ATOM      3  C   UNL     1      33.375 -21.596 -19.327  0.00  0.00    -0.002 C 
BRANCH   3   4
ATOM      4  C   UNL     1      34.088 -20.533 -20.169  0.00  0.00    -0.023 C 
BRANCH   4   5
ATOM      5  C   UNL     1      35.595 -20.760 -20.276  0.00  0.00    -0.082 C 
BRANCH   5   6
ATOM      6  N   UNL     1      36.291 -19.480 -20.370  0.00  0.00    +0.384 N 
ATOM      7  H   UNL     1      37.177 -19.617 -20.856  0.00  0.00    -0.085 HD
ATOM      8  H   UNL     1      36.453 -19.128 -19.426  0.00  0.00    -0.085 HD
BRANCH   6   9
ATOM      9  C   UNL     1      35.491 -18.508 -21.100  0.00  0.00    -0.077 C 
BRANCH   9  10
ATOM     10  C   UNL     1      35.942 -18.410 -22.558  0.00  0.00    +0.003 C 
BRANCH  10  11
ATOM     11  C   UNL     1      35.179 -17.344 -23.303  0.00  0.00    -0.024 C 
ATOM     12  C   UNL     1      34.847 -16.150 -22.665  0.00  0.00    -0.004 C 
ATOM     13  C   UNL     1      34.807 -17.554 -24.632  0.00  0.00    -0.004 C 
ATOM     14  C   UNL     1      34.141 -15.164 -23.355  0.00  0.00    -0.000 C 
ATOM     15  C   UNL     1      34.102 -16.567 -25.321  0.00  0.00    -0.000 C 
ATOM     16  C   UNL     1      33.768 -15.373 -24.683  0.00  0.00    -0.000 C 
ENDBRANCH  10  11
ENDBRANCH   9  10
ENDBRANCH   6   9
ENDBRANCH   5   6
ENDBRANCH   4   5
ENDBRANCH   3   4
ENDBRANCH   2   3
ENDBRANCH   1   2
BRANCH   1  17
ATOM     17  C   UNL     1      34.482 -23.502 -16.173  0.00  0.00    -0.082 C 
BRANCH  17  18
ATOM     18  N   UNL     1      34.014 -22.877 -14.942  0.00  0.00    +0.384 N 
ATOM     19  H   UNL     1      33.614 -21.965 -15.162  0.00  0.00    -0.085 HD
ATOM     20  H   UNL     1      34.806 -22.775 -14.307  0.00  0.00    -0.085 HD
BRANCH  18  21
ATOM     21  C   UNL     1      33.001 -23.698 -14.294  0.00  0.00    -0.077 C 
BRANCH  21  22
ATOM     22  C   UNL     1      31.736 -22.886 -14.015  0.00  0.00    +0.003 C 
BRANCH  22  23
ATOM     23  C   UNL     1      30.614 -23.271 -14.948  0.00  0.00    -0.021 C 
ATOM     24  C   UNL     1      29.726 -22.300 -15.408  0.00  0.00    +0.035 C 
ATOM     25  C   UNL     1      30.467 -24.599 -15.350  0.00  0.00    -0.001 C 
ATOM     26  C   UNL     1      28.689 -22.656 -16.270  0.00  0.00    +0.167 C 
ATOM     27  C   UNL     1      29.429 -24.954 -16.212  0.00  0.00    +0.039 C 
ATOM     28  C   UNL     1      28.541 -23.983 -16.672  0.00  0.00    +0.167 C 
BRANCH  26  29
ATOM     29  O   UNL     1      27.828 -21.697 -16.714  0.00  0.00    -0.503 OA
ATOM     30  H   UNL     1      28.079 -20.795 -16.689  0.00  0.00    +0.292 HD
ENDBRANCH  26  29
BRANCH  28  31
ATOM     31  O   UNL     1      27.532 -24.342 -17.515  0.00  0.00    -0.503 OA
ATOM     32  H   UNL     1      26.725 -24.667 -17.168  0.00  0.00    +0.292 HD
ENDBRANCH  28  31
ENDBRANCH  22  23
ENDBRANCH  21  22
ENDBRANCH  18  21
ENDBRANCH  17  18
ENDBRANCH   1  17
TORSDOF 15
ENDMDL
MODEL 8
REMARK VINA RESULT:      -9.0      5.433      8.884
REMARK  Name = 55483
REMARK  15 active torsions:
REMARK  status: ('A' for Active; 'I' for Inactive)
REMARK    1  A    between atoms: C_1  and  C_2
REMARK    2  A    between atoms: C_1  and  C_17
REMARK    3  A    between atoms: C_2  and  C_3
REMARK    4  A    between atoms: C_3  and  C_4
REMARK    5  A    between atoms: C_4  and  C_5
REMARK    6  A    between atoms: C_5  and  N_6
REMARK    7  A    between atoms: N_6  and  C_9
REMARK    8  A    between atoms: C_9  and  C_10
REMARK    9  A    between atoms: C_10  and  C_11
REMARK   10  A    between atoms: C_17  and  N_18
REMARK   11  A    between atoms: N_18  and  C_21
REMARK   12  A    between atoms: C_21  and  C_22
REMARK   13  A    between atoms: C_22  and  C_23
REMARK   14  A    between atoms: C_26  and  O_29
REMARK   15  A    between atoms: C_28  and  O_31
REMARK                            x       y       z     vdW  Elec       q    Type
REMARK                         _______ _______ _______ _____ _____    ______ ____
ROOT
ATOM      1  C   UNL     1      35.469 -21.675 -19.134  0.00  0.00    -0.023 C 
ENDROOT
BRANCH   1   2
ATOM      2  C   UNL     1      36.812 -21.581 -18.403  0.00  0.00    -0.002 C 
BRANCH   2   3
ATOM      3  C   UNL     1      36.627 -21.692 -16.888  0.00  0.00    -0.002 C 
BRANCH   3   4
ATOM      4  C   UNL     1      37.697 -22.552 -16.207  0.00  0.00    -0.023 C 
BRANCH   4   5
ATOM      5  C   UNL     1      37.173 -23.314 -14.990  0.00  0.00    -0.082 C 
BRANCH   5   6
ATOM      6  N   UNL     1      36.892 -24.701 -15.349  0.00  0.00    +0.384 N 
ATOM      7  H   UNL     1      37.537 -25.312 -14.849  0.00  0.00    -0.085 HD
ATOM      8  H   UNL     1      37.010 -24.807 -16.357  0.00  0.00    -0.085 HD
BRANCH   6   9
ATOM      9  C   UNL     1      35.526 -25.060 -15.000  0.00  0.00    -0.077 C 
BRANCH   9  10
ATOM     10  C   UNL     1      34.802 -23.886 -14.340  0.00  0.00    +0.003 C 
BRANCH  10  11
ATOM     11  C   UNL     1      33.537 -23.529 -15.080  0.00  0.00    -0.024 C 
ATOM     12  C   UNL     1      32.355 -23.306 -14.374  0.00  0.00    -0.004 C 
ATOM     13  C   UNL     1      33.550 -23.422 -16.471  0.00  0.00    -0.004 C 
ATOM     14  C   UNL     1      31.186 -22.976 -15.058  0.00  0.00    -0.000 C 
ATOM     15  C   UNL     1      32.379 -23.092 -17.155  0.00  0.00    -0.000 C 
ATOM     16  C   UNL     1      31.197 -22.869 -16.449  0.00  0.00    -0.000 C 
ENDBRANCH  10  11
ENDBRANCH   9  10
ENDBRANCH   6   9
ENDBRANCH   5   6
ENDBRANCH   4   5
ENDBRANCH   3   4
ENDBRANCH   2   3
ENDBRANCH   1   2
BRANCH   1  17
ATOM     17  C   UNL     1      35.415 -20.708 -20.316  0.00  0.00    -0.082 C 
BRANCH  17  18
ATOM     18  N   UNL     1      36.431 -19.673 -20.171  0.00  0.00    +0.384 N 
ATOM     19  H   UNL     1      37.347 -20.113 -20.086  0.00  0.00    -0.085 HD
ATOM     20  H   UNL     1      36.220 -19.125 -19.336  0.00  0.00    -0.085 HD
BRANCH  18  21
ATOM     21  C   UNL     1      36.435 -18.782 -21.323  0.00  0.00    -0.077 C 
BRANCH  21  22
ATOM     22  C   UNL     1      35.310 -17.752 -21.222  0.00  0.00    +0.003 C 
BRANCH  22  23
ATOM     23  C   UNL     1      34.919 -17.226 -22.581  0.00  0.00    -0.021 C 
ATOM     24  C   UNL     1      34.518 -15.898 -22.725  0.00  0.00    +0.035 C 
ATOM     25  C   UNL     1      34.958 -18.068 -23.693  0.00  0.00    -0.001 C 
ATOM     26  C   UNL     1      34.156 -15.411 -23.982  0.00  0.00    +0.167 C 
ATOM     27  C   UNL     1      34.596 -17.580 -24.949  0.00  0.00    +0.039 C 
ATOM     28  C   UNL     1      34.195 -16.252 -25.093  0.00  0.00    +0.167 C 
BRANCH  26  29
ATOM     29  O   UNL     1      33.768 -14.111 -24.109  0.00  0.00    -0.503 OA
ATOM     30  H   UNL     1      33.906 -13.510 -23.406  0.00  0.00    +0.292 HD
ENDBRANCH  26  29
BRANCH  28  31
ATOM     31  O   UNL     1      33.845 -15.788 -26.325  0.00  0.00    -0.503 OA
ATOM     32  H   UNL     1      34.353 -15.114 -26.733  0.00  0.00    +0.292 HD
ENDBRANCH  28  31
ENDBRANCH  22  23
ENDBRANCH  21  22
ENDBRANCH  18  21
ENDBRANCH  17  18
ENDBRANCH   1  17
TORSDOF 15
ENDMDL
MODEL 9
REMARK VINA RESULT:      -9.0      4.601     11.052
REMARK  Name = 55483
REMARK  15 active torsions:
REMARK  status: ('A' for Active; 'I' for Inactive)
REMARK    1  A    between atoms: C_1  and  C_2
REMARK    2  A    between atoms: C_1  and  C_17
REMARK    3  A    between atoms: C_2  and  C_3
REMARK    4  A    between atoms: C_3  and  C_4
REMARK    5  A    between atoms: C_4  and  C_5
REMARK    6  A    between atoms: C_5  and  N_6
REMARK    7  A    between atoms: N_6  and  C_9
REMARK    8  A    between atoms: C_9  and  C_10
REMARK    9  A    between atoms: C_10  and  C_11
REMARK   10  A    between atoms: C_17  and  N_18
REMARK   11  A    between atoms: N_18  and  C_21
REMARK   12  A    between atoms: C_21  and  C_22
REMARK   13  A    between atoms: C_22  and  C_23
REMARK   14  A    between atoms: C_26  and  O_29
REMARK   15  A    between atoms: C_28  and  O_31
REMARK                            x       y       z     vdW  Elec       q    Type
REMARK                         _______ _______ _______ _____ _____    ______ ____
ROOT
ATOM      1  C   UNL     1      34.500 -15.287 -23.372  0.00  0.00    -0.023 C 
ENDROOT
BRANCH   1   2
ATOM      2  C   UNL     1      34.372 -15.113 -21.856  0.00  0.00    -0.002 C 
BRANCH   2   3
ATOM      3  C   UNL     1      32.904 -15.079 -21.424  0.00  0.00    -0.002 C 
BRANCH   3   4
ATOM      4  C   UNL     1      32.439 -13.697 -20.955  0.00  0.00    -0.023 C 
BRANCH   4   5
ATOM      5  C   UNL     1      32.202 -12.719 -22.105  0.00  0.00    -0.082 C 
BRANCH   5   6
ATOM      6  N   UNL     1      31.104 -11.814 -21.777  0.00  0.00    +0.384 N 
ATOM      7  H   UNL     1      30.662 -12.126 -20.912  0.00  0.00    -0.085 HD
ATOM      8  H   UNL     1      30.432 -11.825 -22.544  0.00  0.00    -0.085 HD
BRANCH   6   9
ATOM      9  C   UNL     1      31.589 -10.453 -21.601  0.00  0.00    -0.077 C 
BRANCH   9  10
ATOM     10  C   UNL     1      31.219  -9.580 -22.800  0.00  0.00    +0.003 C 
BRANCH  10  11
ATOM     11  C   UNL     1      32.397  -8.771 -23.282  0.00  0.00    -0.024 C 
ATOM     12  C   UNL     1      33.617  -9.398 -23.533  0.00  0.00    -0.004 C 
ATOM     13  C   UNL     1      32.265  -7.395 -23.475  0.00  0.00    -0.004 C 
ATOM     14  C   UNL     1      34.707  -8.650 -23.978  0.00  0.00    -0.000 C 
ATOM     15  C   UNL     1      33.356  -6.648 -23.920  0.00  0.00    -0.000 C 
ATOM     16  C   UNL     1      34.576  -7.274 -24.172  0.00  0.00    -0.000 C 
ENDBRANCH  10  11
ENDBRANCH   9  10
ENDBRANCH   6   9
ENDBRANCH   5   6
ENDBRANCH   4   5
ENDBRANCH   3   4
ENDBRANCH   2   3
ENDBRANCH   1   2
BRANCH   1  17
ATOM     17  C   UNL     1      34.332 -16.752 -23.776  0.00  0.00    -0.082 C 
BRANCH  17  18
ATOM     18  N   UNL     1      35.618 -17.438 -23.739  0.00  0.00    +0.384 N 
ATOM     19  H   UNL     1      36.292 -16.856 -23.241  0.00  0.00    -0.085 HD
ATOM     20  H   UNL     1      35.927 -17.602 -24.697  0.00  0.00    -0.085 HD
BRANCH  18  21
ATOM     21  C   UNL     1      35.504 -18.721 -23.060  0.00  0.00    -0.077 C 
BRANCH  21  22
ATOM     22  C   UNL     1      34.420 -18.676 -21.982  0.00  0.00    +0.003 C 
BRANCH  22  23
ATOM     23  C   UNL     1      34.616 -19.764 -20.955  0.00  0.00    -0.021 C 
ATOM     24  C   UNL     1      33.510 -20.413 -20.409  0.00  0.00    +0.035 C 
ATOM     25  C   UNL     1      35.903 -20.120 -20.554  0.00  0.00    -0.001 C 
ATOM     26  C   UNL     1      33.690 -21.418 -19.458  0.00  0.00    +0.167 C 
ATOM     27  C   UNL     1      36.083 -21.125 -19.603  0.00  0.00    +0.039 C 
ATOM     28  C   UNL     1      34.977 -21.774 -19.057  0.00  0.00    +0.167 C 
BRANCH  26  29
ATOM     29  O   UNL     1      32.601 -22.046 -18.933  0.00  0.00    -0.503 OA
ATOM     30  H   UNL     1      32.498 -22.107 -18.004  0.00  0.00    +0.292 HD
ENDBRANCH  26  29
BRANCH  28  31
ATOM     31  O   UNL     1      35.166 -22.756 -18.131  0.00  0.00    -0.503 OA
ATOM     32  H   UNL     1      34.439 -23.270 -17.838  0.00  0.00    +0.292 HD
ENDBRANCH  28  31
ENDBRANCH  22  23
ENDBRANCH  21  22
ENDBRANCH  18  21
ENDBRANCH  17  18
ENDBRANCH   1  17
TORSDOF 15
ENDMDL
