MODEL 1
REMARK VINA RESULT:     -12.4      0.000      0.000
REMARK  Name = 9808844
REMARK  5 active torsions:
REMARK  status: ('A' for Active; 'I' for Inactive)
REMARK    1  A    between atoms: N_2  and  C_13
REMARK    2  A    between atoms: C_8  and  O_19
REMARK    3  A    between atoms: O_19  and  C_20
REMARK    4  A    between atoms: C_20  and  C_22
REMARK    5  A    between atoms: C_25  and  C_29
REMARK                            x       y       z     vdW  Elec       q    Type
REMARK                         _______ _______ _______ _____ _____    ______ ____
ROOT
ATOM      1  O   UNL     1      35.529 -22.714 -17.376  0.00  0.00    -0.446 OA
ATOM      2  N   UNL     1      35.638 -19.634 -20.918  0.00  0.00    -0.296 N 
ATOM      3  N   UNL     1      33.627 -20.817 -20.402  0.00  0.00    -0.130 NA
ATOM      4  N   UNL     1      32.895 -21.730 -19.652  0.00  0.00    -0.106 NA
ATOM      5  C   UNL     1      35.540 -21.240 -19.088  0.00  0.00    +0.076 A 
ATOM      6  C   UNL     1      34.779 -22.145 -18.360  0.00  0.00    +0.202 A 
ATOM      7  C   UNL     1      34.929 -20.564 -20.138  0.00  0.00    +0.157 A 
ATOM      8  C   UNL     1      33.451 -22.404 -18.627  0.00  0.00    +0.279 A 
ATOM      9  C   UNL     1      36.833 -21.267 -18.503  0.00  0.00    +0.047 C 
ATOM     10  C   UNL     1      36.773 -22.174 -17.470  0.00  0.00    +0.180 C 
ATOM     11  H   UNL     1      36.577 -19.524 -20.643  0.00  0.00    +0.154 HD
ENDROOT
BRANCH   2  13
ATOM     12 CL   UNL     1      34.102 -16.243 -25.522  0.00  0.00    -0.082 Cl
ATOM     13  C   UNL     1      35.272 -18.826 -22.015  0.00  0.00    +0.049 C 
ATOM     14  C   UNL     1      35.188 -17.442 -21.864  0.00  0.00    +0.016 C 
ATOM     15  C   UNL     1      34.995 -19.412 -23.251  0.00  0.00    +0.016 C 
ATOM     16  C   UNL     1      34.826 -16.643 -22.949  0.00  0.00    +0.013 C 
ATOM     17  C   UNL     1      34.633 -18.613 -24.335  0.00  0.00    +0.013 C 
ATOM     18  C   UNL     1      34.549 -17.229 -24.184  0.00  0.00    +0.058 C 
ENDBRANCH   2  13
BRANCH   8  19
ATOM     19  O   UNL     1      32.693 -23.296 -17.915  0.00  0.00    -0.452 OA
BRANCH  19  20
ATOM     20  C   UNL     1      31.776 -22.749 -16.975  0.00  0.00    +0.234 C 
BRANCH  20  22
ATOM     21  N   UNL     1      32.108 -24.902 -13.283  0.00  0.00    -0.239 NA
ATOM     22  C   UNL     1      31.893 -23.503 -15.682  0.00  0.00    +0.024 C 
ATOM     23  C   UNL     1      33.111 -23.557 -15.024  0.00  0.00    +0.023 C 
ATOM     24  C   UNL     1      30.781 -24.141 -15.155  0.00  0.00    +0.020 C 
ATOM     25  C   UNL     1      33.166 -24.265 -13.834  0.00  0.00    +0.134 C 
ATOM     26  C   UNL     1      30.940 -24.823 -13.960  0.00  0.00    +0.099 C 
BRANCH  25  29
ATOM     27  O   UNL     1      34.519 -23.848 -11.965  0.00  0.00    -0.268 OA
ATOM     28  N   UNL     1      35.460 -25.065 -13.699  0.00  0.00    -0.298 N 
ATOM     29  C   UNL     1      34.412 -24.360 -13.094  0.00  0.00    +0.264 C 
ATOM     30  C   UNL     1      36.750 -25.267 -13.081  0.00  0.00    +0.111 C 
ATOM     31  H   UNL     1      35.308 -25.446 -14.594  0.00  0.00    +0.150 HD
ENDBRANCH  25  29
ENDBRANCH  20  22
ENDBRANCH  19  20
ENDBRANCH   8  19
TORSDOF 5
ENDMDL
MODEL 2
REMARK VINA RESULT:     -12.2      1.062      1.263
REMARK  Name = 9808844
REMARK  5 active torsions:
REMARK  status: ('A' for Active; 'I' for Inactive)
REMARK    1  A    between atoms: N_2  and  C_13
REMARK    2  A    between atoms: C_8  and  O_19
REMARK    3  A    between atoms: O_19  and  C_20
REMARK    4  A    between atoms: C_20  and  C_22
REMARK    5  A    between atoms: C_25  and  C_29
REMARK                            x       y       z     vdW  Elec       q    Type
REMARK                         _______ _______ _______ _____ _____    ______ ____
ROOT
ATOM      1  O   UNL     1      35.536 -22.056 -18.510  0.00  0.00    -0.446 OA
ATOM      2  N   UNL     1      35.390 -18.909 -21.990  0.00  0.00    -0.296 N 
ATOM      3  N   UNL     1      33.372 -19.841 -21.114  0.00  0.00    -0.130 NA
ATOM      4  N   UNL     1      32.678 -20.676 -20.246  0.00  0.00    -0.106 NA
ATOM      5  C   UNL     1      35.424 -20.544 -20.184  0.00  0.00    +0.076 A 
ATOM      6  C   UNL     1      34.699 -21.367 -19.333  0.00  0.00    +0.202 A 
ATOM      7  C   UNL     1      34.722 -19.764 -21.098  0.00  0.00    +0.157 A 
ATOM      8  C   UNL     1      33.322 -21.447 -19.348  0.00  0.00    +0.279 A 
ATOM      9  C   UNL     1      36.788 -20.753 -19.852  0.00  0.00    +0.047 C 
ATOM     10  C   UNL     1      36.801 -21.677 -18.832  0.00  0.00    +0.180 C 
ATOM     11  H   UNL     1      36.370 -18.927 -21.896  0.00  0.00    +0.154 HD
ENDROOT
BRANCH   2  13
ATOM     12 CL   UNL     1      33.486 -15.211 -26.204  0.00  0.00    -0.082 Cl
ATOM     13  C   UNL     1      34.936 -18.027 -22.995  0.00  0.00    +0.049 C 
ATOM     14  C   UNL     1      34.737 -16.679 -22.700  0.00  0.00    +0.016 C 
ATOM     15  C   UNL     1      34.688 -18.505 -24.281  0.00  0.00    +0.016 C 
ATOM     16  C   UNL     1      34.288 -15.808 -23.693  0.00  0.00    +0.013 C 
ATOM     17  C   UNL     1      34.240 -17.634 -25.274  0.00  0.00    +0.013 C 
ATOM     18  C   UNL     1      34.040 -16.286 -24.979  0.00  0.00    +0.058 C 
ENDBRANCH   2  13
BRANCH   8  19
ATOM     19  O   UNL     1      32.599 -22.256 -18.512  0.00  0.00    -0.452 OA
BRANCH  19  20
ATOM     20  C   UNL     1      33.290 -23.352 -17.924  0.00  0.00    +0.234 C 
BRANCH  20  22
ATOM     21  N   UNL     1      32.343 -23.519 -13.748  0.00  0.00    -0.239 NA
ATOM     22  C   UNL     1      32.959 -23.411 -16.461  0.00  0.00    +0.024 C 
ATOM     23  C   UNL     1      33.935 -23.773 -15.548  0.00  0.00    +0.023 C 
ATOM     24  C   UNL     1      31.677 -23.103 -16.034  0.00  0.00    +0.020 C 
ATOM     25  C   UNL     1      33.579 -23.812 -14.210  0.00  0.00    +0.134 C 
ATOM     26  C   UNL     1      31.421 -23.172 -14.674  0.00  0.00    +0.099 C 
BRANCH  25  29
ATOM     27  O   UNL     1      34.434 -23.792 -12.026  0.00  0.00    -0.268 OA
ATOM     28  N   UNL     1      35.610 -25.009 -13.610  0.00  0.00    -0.298 N 
ATOM     29  C   UNL     1      34.556 -24.183 -13.201  0.00  0.00    +0.264 C 
ATOM     30  C   UNL     1      36.646 -25.483 -12.721  0.00  0.00    +0.111 C 
ATOM     31  H   UNL     1      35.647 -25.283 -14.555  0.00  0.00    +0.150 HD
ENDBRANCH  25  29
ENDBRANCH  20  22
ENDBRANCH  19  20
ENDBRANCH   8  19
TORSDOF 5
ENDMDL
MODEL 3
REMARK VINA RESULT:     -12.1      2.299      3.706
REMARK  Name = 9808844
REMARK  5 active torsions:
REMARK  status: ('A' for Active; 'I' for Inactive)
REMARK    1  A    between atoms: N_2  and  C_13
REMARK    2  A    between atoms: C_8  and  O_19
REMARK    3  A    between atoms: O_19  and  C_20
REMARK    4  A    between atoms: C_20  and  C_22
REMARK    5  A    between atoms: C_25  and  C_29
REMARK                            x       y       z     vdW  Elec       q    Type
REMARK                         _______ _______ _______ _____ _____    ______ ____
ROOT
ATOM      1  O   UNL     1      35.564 -22.174 -18.599  0.00  0.00    -0.446 OA
ATOM      2  N   UNL     1      35.401 -18.864 -21.925  0.00  0.00    -0.296 N 
ATOM      3  N   UNL     1      33.394 -19.903 -21.150  0.00  0.00    -0.130 NA
ATOM      4  N   UNL     1      32.706 -20.802 -20.343  0.00  0.00    -0.106 NA
ATOM      5  C   UNL     1      35.443 -20.585 -20.201  0.00  0.00    +0.076 A 
ATOM      6  C   UNL     1      34.724 -21.472 -19.410  0.00  0.00    +0.202 A 
ATOM      7  C   UNL     1      34.740 -19.784 -21.093  0.00  0.00    +0.157 A 
ATOM      8  C   UNL     1      33.352 -21.595 -19.466  0.00  0.00    +0.279 A 
ATOM      9  C   UNL     1      36.805 -20.766 -19.842  0.00  0.00    +0.047 C 
ATOM     10  C   UNL     1      36.823 -21.739 -18.868  0.00  0.00    +0.180 C 
ATOM     11  H   UNL     1      36.378 -18.856 -21.805  0.00  0.00    +0.154 HD
ENDROOT
BRANCH   2  13
ATOM     12 CL   UNL     1      33.483 -15.025 -26.003  0.00  0.00    -0.082 Cl
ATOM     13  C   UNL     1      34.944 -17.949 -22.897  0.00  0.00    +0.049 C 
ATOM     14  C   UNL     1      34.593 -16.652 -22.523  0.00  0.00    +0.016 C 
ATOM     15  C   UNL     1      34.845 -18.341 -24.232  0.00  0.00    +0.016 C 
ATOM     16  C   UNL     1      34.141 -15.748 -23.483  0.00  0.00    +0.013 C 
ATOM     17  C   UNL     1      34.393 -17.437 -25.192  0.00  0.00    +0.013 C 
ATOM     18  C   UNL     1      34.041 -16.140 -24.818  0.00  0.00    +0.058 C 
ENDBRANCH   2  13
BRANCH   8  19
ATOM     19  O   UNL     1      32.635 -22.467 -18.691  0.00  0.00    -0.452 OA
BRANCH  19  20
ATOM     20  C   UNL     1      33.163 -22.763 -17.403  0.00  0.00    +0.234 C 
BRANCH  20  22
ATOM     21  N   UNL     1      29.955 -23.913 -14.804  0.00  0.00    -0.239 NA
ATOM     22  C   UNL     1      32.039 -23.165 -16.494  0.00  0.00    +0.024 C 
ATOM     23  C   UNL     1      30.727 -22.983 -16.897  0.00  0.00    +0.023 C 
ATOM     24  C   UNL     1      32.322 -23.717 -15.253  0.00  0.00    +0.020 C 
ATOM     25  C   UNL     1      29.727 -23.371 -16.021  0.00  0.00    +0.134 C 
ATOM     26  C   UNL     1      31.250 -24.072 -14.451  0.00  0.00    +0.099 C 
BRANCH  25  29
ATOM     27  O   UNL     1      27.814 -23.926 -17.260  0.00  0.00    -0.268 OA
ATOM     28  N   UNL     1      27.602 -22.231 -15.693  0.00  0.00    -0.298 N 
ATOM     29  C   UNL     1      28.330 -23.207 -16.385  0.00  0.00    +0.264 C 
ATOM     30  C   UNL     1      26.200 -21.965 -15.923  0.00  0.00    +0.111 C 
ATOM     31  H   UNL     1      28.070 -21.698 -15.011  0.00  0.00    +0.150 HD
ENDBRANCH  25  29
ENDBRANCH  20  22
ENDBRANCH  19  20
ENDBRANCH   8  19
TORSDOF 5
ENDMDL
MODEL 4
REMARK VINA RESULT:     -12.0      7.367     11.960
REMARK  Name = 9808844
REMARK  5 active torsions:
REMARK  status: ('A' for Active; 'I' for Inactive)
REMARK    1  A    between atoms: N_2  and  C_13
REMARK    2  A    between atoms: C_8  and  O_19
REMARK    3  A    between atoms: O_19  and  C_20
REMARK    4  A    between atoms: C_20  and  C_22
REMARK    5  A    between atoms: C_25  and  C_29
REMARK                            x       y       z     vdW  Elec       q    Type
REMARK                         _______ _______ _______ _____ _____    ______ ____
ROOT
ATOM      1  O   UNL     1      33.077 -13.816 -25.406  0.00  0.00    -0.446 OA
ATOM      2  N   UNL     1      34.612 -17.641 -23.158  0.00  0.00    -0.296 N 
ATOM      3  N   UNL     1      34.152 -15.630 -21.952  0.00  0.00    -0.130 NA
ATOM      4  N   UNL     1      33.743 -14.303 -21.883  0.00  0.00    -0.106 NA
ATOM      5  C   UNL     1      33.814 -15.635 -24.287  0.00  0.00    +0.076 A 
ATOM      6  C   UNL     1      33.411 -14.311 -24.182  0.00  0.00    +0.202 A 
ATOM      7  C   UNL     1      34.193 -16.300 -23.126  0.00  0.00    +0.157 A 
ATOM      8  C   UNL     1      33.368 -13.626 -22.986  0.00  0.00    +0.279 A 
ATOM      9  C   UNL     1      33.716 -15.959 -25.666  0.00  0.00    +0.047 C 
ATOM     10  C   UNL     1      33.265 -14.823 -26.299  0.00  0.00    +0.180 C 
ATOM     11  H   UNL     1      34.606 -18.035 -24.060  0.00  0.00    +0.154 HD
ENDROOT
BRANCH   2  13
ATOM     12 CL   UNL     1      36.407 -21.395 -18.945  0.00  0.00    -0.082 Cl
ATOM     13  C   UNL     1      35.040 -18.536 -22.154  0.00  0.00    +0.049 C 
ATOM     14  C   UNL     1      34.129 -19.414 -21.568  0.00  0.00    +0.016 C 
ATOM     15  C   UNL     1      36.375 -18.542 -21.748  0.00  0.00    +0.016 C 
ATOM     16  C   UNL     1      34.551 -20.298 -20.576  0.00  0.00    +0.013 C 
ATOM     17  C   UNL     1      36.797 -19.426 -20.756  0.00  0.00    +0.013 C 
ATOM     18  C   UNL     1      35.885 -20.304 -20.170  0.00  0.00    +0.058 C 
ENDBRANCH   2  13
BRANCH   8  19
ATOM     19  O   UNL     1      32.973 -12.319 -22.872  0.00  0.00    -0.452 OA
BRANCH  19  20
ATOM     20  C   UNL     1      31.658 -12.089 -22.380  0.00  0.00    +0.234 C 
BRANCH  20  22
ATOM     21  N   UNL     1      31.866  -9.431 -19.024  0.00  0.00    -0.239 NA
ATOM     22  C   UNL     1      31.731 -11.157 -21.205  0.00  0.00    +0.024 C 
ATOM     23  C   UNL     1      31.968  -9.808 -21.409  0.00  0.00    +0.023 C 
ATOM     24  C   UNL     1      31.561 -11.654 -19.922  0.00  0.00    +0.020 C 
ATOM     25  C   UNL     1      32.026  -8.991 -20.292  0.00  0.00    +0.134 C 
ATOM     26  C   UNL     1      31.638 -10.755 -18.871  0.00  0.00    +0.099 C 
BRANCH  25  29
ATOM     27  O   UNL     1      32.884  -6.936 -19.556  0.00  0.00    -0.268 OA
ATOM     28  N   UNL     1      31.809  -6.958 -21.611  0.00  0.00    -0.298 N 
ATOM     29  C   UNL     1      32.271  -7.567 -20.437  0.00  0.00    +0.264 C 
ATOM     30  C   UNL     1      31.997  -5.556 -21.912  0.00  0.00    +0.111 C 
ATOM     31  H   UNL     1      31.332  -7.514 -22.267  0.00  0.00    +0.150 HD
ENDBRANCH  25  29
ENDBRANCH  20  22
ENDBRANCH  19  20
ENDBRANCH   8  19
TORSDOF 5
ENDMDL
MODEL 5
REMARK VINA RESULT:     -11.5      5.845     11.622
REMARK  Name = 9808844
REMARK  5 active torsions:
REMARK  status: ('A' for Active; 'I' for Inactive)
REMARK    1  A    between atoms: N_2  and  C_13
REMARK    2  A    between atoms: C_8  and  O_19
REMARK    3  A    between atoms: O_19  and  C_20
REMARK    4  A    between atoms: C_20  and  C_22
REMARK    5  A    between atoms: C_25  and  C_29
REMARK                            x       y       z     vdW  Elec       q    Type
REMARK                         _______ _______ _______ _____ _____    ______ ____
ROOT
ATOM      1  O   UNL     1      34.591 -17.133 -24.533  0.00  0.00    -0.446 OA
ATOM      2  N   UNL     1      35.141 -20.417 -21.223  0.00  0.00    -0.296 N 
ATOM      3  N   UNL     1      34.958 -18.111 -20.624  0.00  0.00    -0.130 NA
ATOM      4  N   UNL     1      34.804 -16.766 -20.940  0.00  0.00    -0.106 NA
ATOM      5  C   UNL     1      34.854 -18.683 -22.911  0.00  0.00    +0.076 A 
ATOM      6  C   UNL     1      34.703 -17.331 -23.190  0.00  0.00    +0.202 A 
ATOM      7  C   UNL     1      34.985 -19.067 -21.580  0.00  0.00    +0.157 A 
ATOM      8  C   UNL     1      34.675 -16.355 -22.217  0.00  0.00    +0.279 A 
ATOM      9  C   UNL     1      34.832 -19.341 -24.168  0.00  0.00    +0.047 C 
ATOM     10  C   UNL     1      34.669 -18.358 -25.117  0.00  0.00    +0.180 C 
ATOM     11  H   UNL     1      35.148 -21.030 -21.993  0.00  0.00    +0.154 HD
ENDROOT
BRANCH   2  13
ATOM     12 CL   UNL     1      35.766 -23.153 -16.010  0.00  0.00    -0.082 Cl
ATOM     13  C   UNL     1      35.290 -21.069 -19.980  0.00  0.00    +0.049 C 
ATOM     14  C   UNL     1      36.515 -21.029 -19.314  0.00  0.00    +0.016 C 
ATOM     15  C   UNL     1      34.212 -21.753 -19.418  0.00  0.00    +0.016 C 
ATOM     16  C   UNL     1      36.662 -21.673 -18.087  0.00  0.00    +0.013 C 
ATOM     17  C   UNL     1      34.359 -22.397 -18.190  0.00  0.00    +0.013 C 
ATOM     18  C   UNL     1      35.584 -22.357 -17.525  0.00  0.00    +0.058 C 
ENDBRANCH   2  13
BRANCH   8  19
ATOM     19  O   UNL     1      34.527 -15.020 -22.483  0.00  0.00    -0.452 OA
BRANCH  19  20
ATOM     20  C   UNL     1      33.244 -14.594 -22.926  0.00  0.00    +0.234 C 
BRANCH  20  22
ATOM     21  N   UNL     1      33.720 -12.047 -26.341  0.00  0.00    -0.239 NA
ATOM     22  C   UNL     1      33.411 -13.701 -24.122  0.00  0.00    +0.024 C 
ATOM     23  C   UNL     1      33.988 -12.451 -23.973  0.00  0.00    +0.023 C 
ATOM     24  C   UNL     1      32.985 -14.134 -25.368  0.00  0.00    +0.020 C 
ATOM     25  C   UNL     1      34.120 -11.666 -25.108  0.00  0.00    +0.134 C 
ATOM     26  C   UNL     1      33.161 -13.274 -26.440  0.00  0.00    +0.099 C 
BRANCH  25  29
ATOM     27  O   UNL     1      35.586  -9.988 -25.837  0.00  0.00    -0.268 OA
ATOM     28  N   UNL     1      34.256  -9.504 -24.001  0.00  0.00    -0.298 N 
ATOM     29  C   UNL     1      34.718 -10.346 -25.020  0.00  0.00    +0.264 C 
ATOM     30  C   UNL     1      34.734  -8.155 -23.799  0.00  0.00    +0.111 C 
ATOM     31  H   UNL     1      33.566  -9.849 -23.389  0.00  0.00    +0.150 HD
ENDBRANCH  25  29
ENDBRANCH  20  22
ENDBRANCH  19  20
ENDBRANCH   8  19
TORSDOF 5
ENDMDL
MODEL 6
REMARK VINA RESULT:     -11.5      4.444      7.319
REMARK  Name = 9808844
REMARK  5 active torsions:
REMARK  status: ('A' for Active; 'I' for Inactive)
REMARK    1  A    between atoms: N_2  and  C_13
REMARK    2  A    between atoms: C_8  and  O_19
REMARK    3  A    between atoms: O_19  and  C_20
REMARK    4  A    between atoms: C_20  and  C_22
REMARK    5  A    between atoms: C_25  and  C_29
REMARK                            x       y       z     vdW  Elec       q    Type
REMARK                         _______ _______ _______ _____ _____    ______ ____
ROOT
ATOM      1  O   UNL     1      34.786 -17.849 -24.210  0.00  0.00    -0.446 OA
ATOM      2  N   UNL     1      33.430 -13.361 -23.960  0.00  0.00    -0.296 N 
ATOM      3  N   UNL     1      33.927 -14.590 -21.971  0.00  0.00    -0.130 NA
ATOM      4  N   UNL     1      34.321 -15.744 -21.305  0.00  0.00    -0.106 NA
ATOM      5  C   UNL     1      34.137 -15.691 -24.047  0.00  0.00    +0.076 A 
ATOM      6  C   UNL     1      34.526 -16.826 -23.349  0.00  0.00    +0.202 A 
ATOM      7  C   UNL     1      33.832 -14.546 -23.320  0.00  0.00    +0.157 A 
ATOM      8  C   UNL     1      34.625 -16.873 -21.975  0.00  0.00    +0.279 A 
ATOM      9  C   UNL     1      34.164 -16.055 -25.419  0.00  0.00    +0.047 C 
ATOM     10  C   UNL     1      34.564 -17.371 -25.464  0.00  0.00    +0.180 C 
ATOM     11  H   UNL     1      33.393 -13.436 -24.941  0.00  0.00    +0.154 HD
ENDROOT
BRANCH   2  13
ATOM     12 CL   UNL     1      31.923  -8.006 -21.934  0.00  0.00    -0.082 Cl
ATOM     13  C   UNL     1      33.071 -12.085 -23.477  0.00  0.00    +0.049 C 
ATOM     14  C   UNL     1      32.064 -11.960 -22.520  0.00  0.00    +0.016 C 
ATOM     15  C   UNL     1      33.724 -10.949 -23.956  0.00  0.00    +0.016 C 
ATOM     16  C   UNL     1      31.709 -10.698 -22.043  0.00  0.00    +0.013 C 
ATOM     17  C   UNL     1      33.369  -9.688 -23.478  0.00  0.00    +0.013 C 
ATOM     18  C   UNL     1      32.362  -9.563 -22.522  0.00  0.00    +0.058 C 
ENDBRANCH   2  13
BRANCH   8  19
ATOM     19  O   UNL     1      35.007 -17.988 -21.277  0.00  0.00    -0.452 OA
BRANCH  19  20
ATOM     20  C   UNL     1      34.145 -19.118 -21.354  0.00  0.00    +0.234 C 
BRANCH  20  22
ATOM     21  N   UNL     1      35.644 -22.192 -18.770  0.00  0.00    -0.239 NA
ATOM     22  C   UNL     1      34.669 -20.195 -20.448  0.00  0.00    +0.024 C 
ATOM     23  C   UNL     1      33.787 -21.059 -19.822  0.00  0.00    +0.023 C 
ATOM     24  C   UNL     1      36.035 -20.317 -20.244  0.00  0.00    +0.020 C 
ATOM     25  C   UNL     1      34.321 -22.036 -18.998  0.00  0.00    +0.134 C 
ATOM     26  C   UNL     1      36.469 -21.327 -19.400  0.00  0.00    +0.099 C 
BRANCH  25  29
ATOM     27  O   UNL     1      33.623 -24.201 -18.427  0.00  0.00    -0.268 OA
ATOM     28  N   UNL     1      32.435 -22.433 -17.512  0.00  0.00    -0.298 N 
ATOM     29  C   UNL     1      33.449 -22.974 -18.313  0.00  0.00    +0.264 C 
ATOM     30  C   UNL     1      31.505 -23.234 -16.750  0.00  0.00    +0.111 C 
ATOM     31  H   UNL     1      32.353 -21.453 -17.465  0.00  0.00    +0.150 HD
ENDBRANCH  25  29
ENDBRANCH  20  22
ENDBRANCH  19  20
ENDBRANCH   8  19
TORSDOF 5
ENDMDL
MODEL 7
REMARK VINA RESULT:     -11.5      6.619     11.476
REMARK  Name = 9808844
REMARK  5 active torsions:
REMARK  status: ('A' for Active; 'I' for Inactive)
REMARK    1  A    between atoms: N_2  and  C_13
REMARK    2  A    between atoms: C_8  and  O_19
REMARK    3  A    between atoms: O_19  and  C_20
REMARK    4  A    between atoms: C_20  and  C_22
REMARK    5  A    between atoms: C_25  and  C_29
REMARK                            x       y       z     vdW  Elec       q    Type
REMARK                         _______ _______ _______ _____ _____    ______ ____
ROOT
ATOM      1  O   UNL     1      34.455 -15.758 -24.712  0.00  0.00    -0.446 OA
ATOM      2  N   UNL     1      34.689 -19.514 -21.906  0.00  0.00    -0.296 N 
ATOM      3  N   UNL     1      34.258 -17.347 -20.997  0.00  0.00    -0.130 NA
ATOM      4  N   UNL     1      34.067 -15.976 -21.122  0.00  0.00    -0.106 NA
ATOM      5  C   UNL     1      34.560 -17.540 -23.329  0.00  0.00    +0.076 A 
ATOM      6  C   UNL     1      34.365 -16.169 -23.417  0.00  0.00    +0.202 A 
ATOM      7  C   UNL     1      34.501 -18.131 -22.071  0.00  0.00    +0.157 A 
ATOM      8  C   UNL     1      34.116 -15.367 -22.323  0.00  0.00    +0.279 A 
ATOM      9  C   UNL     1      34.782 -17.984 -24.659  0.00  0.00    +0.047 C 
ATOM     10  C   UNL     1      34.708 -16.866 -25.458  0.00  0.00    +0.180 C 
ATOM     11  H   UNL     1      34.860 -19.992 -22.749  0.00  0.00    +0.154 HD
ENDROOT
BRANCH   2  13
ATOM     12 CL   UNL     1      34.656 -23.039 -17.149  0.00  0.00    -0.082 Cl
ATOM     13  C   UNL     1      34.681 -20.355 -20.772  0.00  0.00    +0.049 C 
ATOM     14  C   UNL     1      33.471 -20.816 -20.256  0.00  0.00    +0.016 C 
ATOM     15  C   UNL     1      35.884 -20.723 -20.169  0.00  0.00    +0.016 C 
ATOM     16  C   UNL     1      33.463 -21.647 -19.135  0.00  0.00    +0.013 C 
ATOM     17  C   UNL     1      35.876 -21.553 -19.049  0.00  0.00    +0.013 C 
ATOM     18  C   UNL     1      34.666 -22.015 -18.532  0.00  0.00    +0.058 C 
ENDBRANCH   2  13
BRANCH   8  19
ATOM     19  O   UNL     1      33.923 -14.013 -22.401  0.00  0.00    -0.452 OA
BRANCH  19  20
ATOM     20  C   UNL     1      32.638 -13.573 -22.825  0.00  0.00    +0.234 C 
BRANCH  20  22
ATOM     21  N   UNL     1      31.468 -10.197 -20.456  0.00  0.00    -0.239 NA
ATOM     22  C   UNL     1      32.229 -12.390 -21.996  0.00  0.00    +0.024 C 
ATOM     23  C   UNL     1      32.173 -11.132 -22.571  0.00  0.00    +0.023 C 
ATOM     24  C   UNL     1      31.909 -12.565 -20.658  0.00  0.00    +0.020 C 
ATOM     25  C   UNL     1      31.788 -10.074 -21.763  0.00  0.00    +0.134 C 
ATOM     26  C   UNL     1      31.537 -11.443 -19.936  0.00  0.00    +0.099 C 
BRANCH  25  29
ATOM     27  O   UNL     1      31.264  -8.533 -23.452  0.00  0.00    -0.268 OA
ATOM     28  N   UNL     1      32.129  -7.681 -21.476  0.00  0.00    -0.298 N 
ATOM     29  C   UNL     1      31.709  -8.729 -22.306  0.00  0.00    +0.264 C 
ATOM     30  C   UNL     1      32.088  -6.289 -21.863  0.00  0.00    +0.111 C 
ATOM     31  H   UNL     1      32.469  -7.905 -20.580  0.00  0.00    +0.150 HD
ENDBRANCH  25  29
ENDBRANCH  20  22
ENDBRANCH  19  20
ENDBRANCH   8  19
TORSDOF 5
ENDMDL
MODEL 8
REMARK VINA RESULT:     -11.4      5.429      8.862
REMARK  Name = 9808844
REMARK  5 active torsions:
REMARK  status: ('A' for Active; 'I' for Inactive)
REMARK    1  A    between atoms: N_2  and  C_13
REMARK    2  A    between atoms: C_8  and  O_19
REMARK    3  A    between atoms: O_19  and  C_20
REMARK    4  A    between atoms: C_20  and  C_22
REMARK    5  A    between atoms: C_25  and  C_29
REMARK                            x       y       z     vdW  Elec       q    Type
REMARK                         _______ _______ _______ _____ _____    ______ ____
ROOT
ATOM      1  O   UNL     1      33.823 -16.147 -25.650  0.00  0.00    -0.446 OA
ATOM      2  N   UNL     1      32.669 -11.986 -23.808  0.00  0.00    -0.296 N 
ATOM      3  N   UNL     1      34.029 -13.520 -22.580  0.00  0.00    -0.130 NA
ATOM      4  N   UNL     1      34.696 -14.731 -22.438  0.00  0.00    -0.106 NA
ATOM      5  C   UNL     1      33.290 -14.155 -24.729  0.00  0.00    +0.076 A 
ATOM      6  C   UNL     1      33.968 -15.353 -24.553  0.00  0.00    +0.202 A 
ATOM      7  C   UNL     1      33.332 -13.220 -23.700  0.00  0.00    +0.157 A 
ATOM      8  C   UNL     1      34.679 -15.661 -23.413  0.00  0.00    +0.279 A 
ATOM      9  C   UNL     1      32.698 -14.233 -26.017  0.00  0.00    +0.047 C 
ATOM     10  C   UNL     1      33.052 -15.458 -26.533  0.00  0.00    +0.180 C 
ATOM     11  H   UNL     1      32.193 -11.868 -24.662  0.00  0.00    +0.154 HD
ENDROOT
BRANCH   2  13
ATOM     12 CL   UNL     1      32.173  -7.352 -20.156  0.00  0.00    -0.082 Cl
ATOM     13  C   UNL     1      32.551 -10.881 -22.938  0.00  0.00    +0.049 C 
ATOM     14  C   UNL     1      33.143  -9.664 -23.272  0.00  0.00    +0.016 C 
ATOM     15  C   UNL     1      31.841 -11.008 -21.744  0.00  0.00    +0.016 C 
ATOM     16  C   UNL     1      33.027  -8.572 -22.412  0.00  0.00    +0.013 C 
ATOM     17  C   UNL     1      31.724  -9.916 -20.884  0.00  0.00    +0.013 C 
ATOM     18  C   UNL     1      32.317  -8.699 -21.218  0.00  0.00    +0.058 C 
ENDBRANCH   2  13
BRANCH   8  19
ATOM     19  O   UNL     1      35.350 -16.841 -23.230  0.00  0.00    -0.452 OA
BRANCH  19  20
ATOM     20  C   UNL     1      34.559 -18.020 -23.139  0.00  0.00    +0.234 C 
BRANCH  20  22
ATOM     21  N   UNL     1      35.986 -20.408 -19.878  0.00  0.00    -0.239 NA
ATOM     22  C   UNL     1      35.058 -18.857 -21.996  0.00  0.00    +0.024 C 
ATOM     23  C   UNL     1      34.205 -19.754 -21.376  0.00  0.00    +0.023 C 
ATOM     24  C   UNL     1      36.370 -18.724 -21.569  0.00  0.00    +0.020 C 
ATOM     25  C   UNL     1      34.715 -20.503 -20.327  0.00  0.00    +0.134 C 
ATOM     26  C   UNL     1      36.783 -19.518 -20.511  0.00  0.00    +0.099 C 
BRANCH  25  29
ATOM     27  O   UNL     1      32.719 -21.701 -20.038  0.00  0.00    -0.268 OA
ATOM     28  N   UNL     1      34.427 -22.112 -18.525  0.00  0.00    -0.298 N 
ATOM     29  C   UNL     1      33.873 -21.463 -19.635  0.00  0.00    +0.264 C 
ATOM     30  C   UNL     1      33.725 -23.109 -17.748  0.00  0.00    +0.111 C 
ATOM     31  H   UNL     1      35.345 -21.878 -18.260  0.00  0.00    +0.150 HD
ENDBRANCH  25  29
ENDBRANCH  20  22
ENDBRANCH  19  20
ENDBRANCH   8  19
TORSDOF 5
ENDMDL
MODEL 9
REMARK VINA RESULT:     -11.2      6.329     11.856
REMARK  Name = 9808844
REMARK  5 active torsions:
REMARK  status: ('A' for Active; 'I' for Inactive)
REMARK    1  A    between atoms: N_2  and  C_13
REMARK    2  A    between atoms: C_8  and  O_19
REMARK    3  A    between atoms: O_19  and  C_20
REMARK    4  A    between atoms: C_20  and  C_22
REMARK    5  A    between atoms: C_25  and  C_29
REMARK                            x       y       z     vdW  Elec       q    Type
REMARK                         _______ _______ _______ _____ _____    ______ ____
ROOT
ATOM      1  O   UNL     1      34.504 -16.344 -24.620  0.00  0.00    -0.446 OA
ATOM      2  N   UNL     1      34.984 -19.902 -21.594  0.00  0.00    -0.296 N 
ATOM      3  N   UNL     1      34.811 -17.653 -20.804  0.00  0.00    -0.130 NA
ATOM      4  N   UNL     1      34.673 -16.285 -21.007  0.00  0.00    -0.106 NA
ATOM      5  C   UNL     1      34.733 -18.028 -23.132  0.00  0.00    +0.076 A 
ATOM      6  C   UNL     1      34.597 -16.656 -23.298  0.00  0.00    +0.202 A 
ATOM      7  C   UNL     1      34.843 -18.524 -21.837  0.00  0.00    +0.157 A 
ATOM      8  C   UNL     1      34.564 -15.766 -22.245  0.00  0.00    +0.279 A 
ATOM      9  C   UNL     1      34.722 -18.577 -24.441  0.00  0.00    +0.047 C 
ATOM     10  C   UNL     1      34.580 -17.516 -25.305  0.00  0.00    +0.180 C 
ATOM     11  H   UNL     1      34.995 -20.447 -22.413  0.00  0.00    +0.154 HD
ENDROOT
BRANCH   2  13
ATOM     12 CL   UNL     1      35.517 -23.074 -16.623  0.00  0.00    -0.082 Cl
ATOM     13  C   UNL     1      35.111 -20.658 -20.409  0.00  0.00    +0.049 C 
ATOM     14  C   UNL     1      33.984 -21.238 -19.828  0.00  0.00    +0.016 C 
ATOM     15  C   UNL     1      36.364 -20.826 -19.820  0.00  0.00    +0.016 C 
ATOM     16  C   UNL     1      34.109 -21.985 -18.658  0.00  0.00    +0.013 C 
ATOM     17  C   UNL     1      36.490 -21.573 -18.650  0.00  0.00    +0.013 C 
ATOM     18  C   UNL     1      35.362 -22.153 -18.069  0.00  0.00    +0.058 C 
ENDBRANCH   2  13
BRANCH   8  19
ATOM     19  O   UNL     1      34.431 -14.412 -22.400  0.00  0.00    -0.452 OA
BRANCH  19  20
ATOM     20  C   UNL     1      33.153 -13.936 -22.806  0.00  0.00    +0.234 C 
BRANCH  20  22
ATOM     21  N   UNL     1      33.618 -10.105 -24.671  0.00  0.00    -0.239 NA
ATOM     22  C   UNL     1      33.315 -12.594 -23.459  0.00  0.00    +0.024 C 
ATOM     23  C   UNL     1      32.802 -11.463 -22.846  0.00  0.00    +0.023 C 
ATOM     24  C   UNL     1      33.978 -12.495 -24.672  0.00  0.00    +0.020 C 
ATOM     25  C   UNL     1      32.979 -10.249 -23.489  0.00  0.00    +0.134 C 
ATOM     26  C   UNL     1      34.102 -11.235 -25.234  0.00  0.00    +0.099 C 
BRANCH  25  29
ATOM     27  O   UNL     1      32.953  -8.576 -21.845  0.00  0.00    -0.268 OA
ATOM     28  N   UNL     1      31.426  -8.377 -23.579  0.00  0.00    -0.298 N 
ATOM     29  C   UNL     1      32.465  -9.025 -22.899  0.00  0.00    +0.264 C 
ATOM     30  C   UNL     1      30.827  -7.140 -23.132  0.00  0.00    +0.111 C 
ATOM     31  H   UNL     1      31.087  -8.785 -24.407  0.00  0.00    +0.150 HD
ENDBRANCH  25  29
ENDBRANCH  20  22
ENDBRANCH  19  20
ENDBRANCH   8  19
TORSDOF 5
ENDMDL
