MODEL 1
REMARK VINA RESULT:     -10.0      0.000      0.000
REMARK  Name = 11826859
REMARK  9 active torsions:
REMARK  status: ('A' for Active; 'I' for Inactive)
REMARK    1  A    between atoms: C_2  and  N_10
REMARK    2  A    between atoms: C_3  and  C_22
REMARK    3  A    between atoms: C_12  and  C_20
REMARK    4  A    between atoms: C_22  and  O_23
REMARK    5  A    between atoms: O_23  and  C_24
REMARK    6  A    between atoms: C_24  and  C_28
REMARK    7  A    between atoms: C_28  and  O_29
REMARK    8  A    between atoms: O_29  and  C_30
REMARK    9  A    between atoms: C_30  and  C_31
REMARK                            x       y       z     vdW  Elec       q    Type
REMARK                         _______ _______ _______ _____ _____    ______ ____
ROOT
ATOM      1 CL   UNL     1      34.097 -17.613 -25.636  0.00  0.00    -0.082 Cl
ATOM      2  C   UNL     1      33.405 -13.452 -24.060  0.00  0.00    +0.063 C 
ATOM      3  C   UNL     1      34.314 -15.656 -23.747  0.00  0.00    +0.087 C 
ATOM      4  C   UNL     1      34.094 -14.364 -23.271  0.00  0.00    +0.023 C 
ATOM      5  C   UNL     1      32.932 -13.807 -25.316  0.00  0.00    +0.016 C 
ATOM      6  C   UNL     1      33.844 -16.024 -25.008  0.00  0.00    +0.064 C 
ATOM      7  C   UNL     1      33.152 -15.100 -25.792  0.00  0.00    +0.013 C 
ENDROOT
BRANCH   2  10
ATOM      8  O   UNL     1      34.679 -11.191 -25.112  0.00  0.00    -0.251 OA
ATOM      9  O   UNL     1      31.630 -12.838 -21.938  0.00  0.00    -0.269 OA
ATOM     10  N   UNL     1      33.175 -12.109 -23.565  0.00  0.00    -0.189 N 
ATOM     11  N   UNL     1      33.684  -9.766 -23.585  0.00  0.00    -0.237 N 
ATOM     12  C   UNL     1      32.738  -9.549 -22.591  0.00  0.00    +0.132 C 
ATOM     13  C   UNL     1      33.917 -11.041 -24.149  0.00  0.00    +0.321 C 
ATOM     14  C   UNL     1      32.237 -11.948 -22.532  0.00  0.00    +0.261 C 
ATOM     15  C   UNL     1      32.023 -10.559 -22.086  0.00  0.00    +0.078 C 
ATOM     16  C   UNL     1      34.441  -8.626 -24.112  0.00  0.00    +0.122 C 
BRANCH  12  20
ATOM     17  F   UNL     1      31.922  -7.393 -23.024  0.00  0.00    -0.165 F 
ATOM     18  F   UNL     1      31.703  -8.170 -20.998  0.00  0.00    -0.165 F 
ATOM     19  F   UNL     1      33.668  -7.572 -21.729  0.00  0.00    -0.165 F 
ATOM     20  C   UNL     1      32.506  -8.153 -22.079  0.00  0.00    +0.431 C 
ENDBRANCH  12  20
ENDBRANCH   2  10
BRANCH   3  22
ATOM     21  O   UNL     1      36.271 -16.701 -22.874  0.00  0.00    -0.245 OA
ATOM     22  C   UNL     1      35.040 -16.588 -22.894  0.00  0.00    +0.342 C 
BRANCH  22  23
ATOM     23  O   UNL     1      34.187 -17.321 -22.115  0.00  0.00    -0.442 OA
BRANCH  23  24
ATOM     24  C   UNL     1      34.574 -18.670 -21.830  0.00  0.00    +0.224 C 
ATOM     25  C   UNL     1      35.847 -18.628 -20.991  0.00  0.00    +0.055 C 
ATOM     26  C   UNL     1      34.817 -19.389 -23.156  0.00  0.00    +0.055 C 
BRANCH  24  28
ATOM     27  O   UNL     1      32.454 -18.815 -20.644  0.00  0.00    -0.246 OA
ATOM     28  C   UNL     1      33.477 -19.367 -21.030  0.00  0.00    +0.354 C 
BRANCH  28  29
ATOM     29  O   UNL     1      33.781 -20.687 -20.848  0.00  0.00    -0.441 OA
BRANCH  29  30
ATOM     30  C   UNL     1      33.494 -21.214 -19.549  0.00  0.00    +0.235 C 
BRANCH  30  31
ATOM     31  C   UNL     1      34.611 -22.117 -19.141  0.00  0.00    +0.021 C 
ATOM     32  C   UNL     1      35.842 -21.692 -18.835  0.00  0.00    -0.001 C 
ENDBRANCH  30  31
ENDBRANCH  29  30
ENDBRANCH  28  29
ENDBRANCH  24  28
ENDBRANCH  23  24
ENDBRANCH  22  23
ENDBRANCH   3  22
TORSDOF 9
ENDMDL
MODEL 2
REMARK VINA RESULT:      -9.9      1.023      2.205
REMARK  Name = 11826859
REMARK  9 active torsions:
REMARK  status: ('A' for Active; 'I' for Inactive)
REMARK    1  A    between atoms: C_2  and  N_10
REMARK    2  A    between atoms: C_3  and  C_22
REMARK    3  A    between atoms: C_12  and  C_20
REMARK    4  A    between atoms: C_22  and  O_23
REMARK    5  A    between atoms: O_23  and  C_24
REMARK    6  A    between atoms: C_24  and  C_28
REMARK    7  A    between atoms: C_28  and  O_29
REMARK    8  A    between atoms: O_29  and  C_30
REMARK    9  A    between atoms: C_30  and  C_31
REMARK                            x       y       z     vdW  Elec       q    Type
REMARK                         _______ _______ _______ _____ _____    ______ ____
ROOT
ATOM      1 CL   UNL     1      34.456 -18.088 -25.534  0.00  0.00    -0.082 Cl
ATOM      2  C   UNL     1      33.522 -13.931 -24.077  0.00  0.00    +0.063 C 
ATOM      3  C   UNL     1      34.522 -16.083 -23.686  0.00  0.00    +0.087 C 
ATOM      4  C   UNL     1      34.227 -14.792 -23.247  0.00  0.00    +0.023 C 
ATOM      5  C   UNL     1      33.107 -14.336 -25.338  0.00  0.00    +0.016 C 
ATOM      6  C   UNL     1      34.110 -16.499 -24.951  0.00  0.00    +0.064 C 
ATOM      7  C   UNL     1      33.401 -15.627 -25.777  0.00  0.00    +0.013 C 
ENDROOT
BRANCH   2  10
ATOM      8  O   UNL     1      31.879 -13.400 -21.873  0.00  0.00    -0.251 OA
ATOM      9  O   UNL     1      34.512 -11.581 -25.313  0.00  0.00    -0.269 OA
ATOM     10  N   UNL     1      33.214 -12.590 -23.621  0.00  0.00    -0.189 N 
ATOM     11  N   UNL     1      32.028 -11.109 -22.155  0.00  0.00    -0.237 N 
ATOM     12  C   UNL     1      32.619 -10.016 -22.776  0.00  0.00    +0.132 C 
ATOM     13  C   UNL     1      32.326 -12.443 -22.514  0.00  0.00    +0.321 C 
ATOM     14  C   UNL     1      33.806 -11.517 -24.307  0.00  0.00    +0.261 C 
ATOM     15  C   UNL     1      33.480 -10.178 -23.785  0.00  0.00    +0.078 C 
ATOM     16  C   UNL     1      31.092 -10.883 -21.049  0.00  0.00    +0.122 C 
BRANCH  12  20
ATOM     17  F   UNL     1      33.104  -7.723 -22.881  0.00  0.00    -0.165 F 
ATOM     18  F   UNL     1      31.021  -8.306 -22.605  0.00  0.00    -0.165 F 
ATOM     19  F   UNL     1      32.442  -8.530 -20.967  0.00  0.00    -0.165 F 
ATOM     20  C   UNL     1      32.292  -8.626 -22.300  0.00  0.00    +0.431 C 
ENDBRANCH  12  20
ENDBRANCH   2  10
BRANCH   3  22
ATOM     21  O   UNL     1      36.466 -17.222 -22.905  0.00  0.00    -0.245 OA
ATOM     22  C   UNL     1      35.263 -16.960 -22.788  0.00  0.00    +0.342 C 
BRANCH  22  23
ATOM     23  O   UNL     1      34.460 -17.457 -21.800  0.00  0.00    -0.442 OA
BRANCH  23  24
ATOM     24  C   UNL     1      34.399 -18.883 -21.675  0.00  0.00    +0.224 C 
ATOM     25  C   UNL     1      34.510 -19.484 -23.072  0.00  0.00    +0.055 C 
ATOM     26  C   UNL     1      33.065 -19.250 -21.026  0.00  0.00    +0.055 C 
BRANCH  24  28
ATOM     27  O   UNL     1      36.381 -18.645 -20.283  0.00  0.00    -0.246 OA
ATOM     28  C   UNL     1      35.567 -19.380 -20.826  0.00  0.00    +0.354 C 
BRANCH  28  29
ATOM     29  O   UNL     1      35.545 -20.743 -20.731  0.00  0.00    -0.441 OA
BRANCH  29  30
ATOM     30  C   UNL     1      36.190 -21.294 -19.579  0.00  0.00    +0.235 C 
BRANCH  30  31
ATOM     31  C   UNL     1      35.178 -22.032 -18.769  0.00  0.00    +0.021 C 
ATOM     32  C   UNL     1      33.919 -22.253 -19.166  0.00  0.00    -0.001 C 
ENDBRANCH  30  31
ENDBRANCH  29  30
ENDBRANCH  28  29
ENDBRANCH  24  28
ENDBRANCH  23  24
ENDBRANCH  22  23
ENDBRANCH   3  22
TORSDOF 9
ENDMDL
MODEL 3
REMARK VINA RESULT:      -9.9      5.825      9.524
REMARK  Name = 11826859
REMARK  9 active torsions:
REMARK  status: ('A' for Active; 'I' for Inactive)
REMARK    1  A    between atoms: C_2  and  N_10
REMARK    2  A    between atoms: C_3  and  C_22
REMARK    3  A    between atoms: C_12  and  C_20
REMARK    4  A    between atoms: C_22  and  O_23
REMARK    5  A    between atoms: O_23  and  C_24
REMARK    6  A    between atoms: C_24  and  C_28
REMARK    7  A    between atoms: C_28  and  O_29
REMARK    8  A    between atoms: O_29  and  C_30
REMARK    9  A    between atoms: C_30  and  C_31
REMARK                            x       y       z     vdW  Elec       q    Type
REMARK                         _______ _______ _______ _____ _____    ______ ____
ROOT
ATOM      1 CL   UNL     1      34.964 -16.685 -25.616  0.00  0.00    -0.082 Cl
ATOM      2  C   UNL     1      34.603 -19.336 -21.993  0.00  0.00    +0.063 C 
ATOM      3  C   UNL     1      34.506 -17.138 -22.965  0.00  0.00    +0.087 C 
ATOM      4  C   UNL     1      34.397 -17.970 -21.851  0.00  0.00    +0.023 C 
ATOM      5  C   UNL     1      34.916 -19.885 -23.229  0.00  0.00    +0.016 C 
ATOM      6  C   UNL     1      34.821 -17.680 -24.211  0.00  0.00    +0.064 C 
ATOM      7  C   UNL     1      35.027 -19.053 -24.343  0.00  0.00    +0.013 C 
ENDROOT
BRANCH   2  10
ATOM      8  O   UNL     1      36.791 -20.067 -20.406  0.00  0.00    -0.251 OA
ATOM      9  O   UNL     1      32.160 -20.461 -21.101  0.00  0.00    -0.269 OA
ATOM     10  N   UNL     1      34.490 -20.200 -20.836  0.00  0.00    -0.189 N 
ATOM     11  N   UNL     1      35.508 -21.430 -19.046  0.00  0.00    -0.237 N 
ATOM     12  C   UNL     1      34.257 -21.875 -18.637  0.00  0.00    +0.132 C 
ATOM     13  C   UNL     1      35.682 -20.541 -20.132  0.00  0.00    +0.321 C 
ATOM     14  C   UNL     1      33.208 -20.656 -20.486  0.00  0.00    +0.261 C 
ATOM     15  C   UNL     1      33.148 -21.510 -19.286  0.00  0.00    +0.078 C 
ATOM     16  C   UNL     1      36.697 -21.853 -18.300  0.00  0.00    +0.122 C 
BRANCH  12  20
ATOM     17  F   UNL     1      32.924 -22.681 -16.883  0.00  0.00    -0.165 F 
ATOM     18  F   UNL     1      34.353 -24.060 -17.785  0.00  0.00    -0.165 F 
ATOM     19  F   UNL     1      35.058 -22.443 -16.504  0.00  0.00    -0.165 F 
ATOM     20  C   UNL     1      34.147 -22.776 -17.436  0.00  0.00    +0.431 C 
ENDBRANCH  12  20
ENDBRANCH   2  10
BRANCH   3  22
ATOM     21  O   UNL     1      35.140 -14.839 -22.980  0.00  0.00    -0.245 OA
ATOM     22  C   UNL     1      34.284 -15.709 -22.779  0.00  0.00    +0.342 C 
BRANCH  22  23
ATOM     23  O   UNL     1      33.009 -15.453 -22.356  0.00  0.00    -0.442 OA
BRANCH  23  24
ATOM     24  C   UNL     1      32.872 -14.725 -21.130  0.00  0.00    +0.224 C 
ATOM     25  C   UNL     1      34.258 -14.577 -20.511  0.00  0.00    +0.055 C 
ATOM     26  C   UNL     1      31.942 -15.513 -20.209  0.00  0.00    +0.055 C 
BRANCH  24  28
ATOM     27  O   UNL     1      32.079 -12.902 -22.534  0.00  0.00    -0.246 OA
ATOM     28  C   UNL     1      32.303 -13.337 -21.411  0.00  0.00    +0.354 C 
BRANCH  28  29
ATOM     29  O   UNL     1      32.049 -12.677 -20.242  0.00  0.00    -0.441 OA
BRANCH  29  30
ATOM     30  C   UNL     1      31.229 -11.509 -20.356  0.00  0.00    +0.235 C 
BRANCH  30  31
ATOM     31  C   UNL     1      31.742 -10.470 -19.416  0.00  0.00    +0.021 C 
ATOM     32  C   UNL     1      32.108  -9.239 -19.790  0.00  0.00    -0.001 C 
ENDBRANCH  30  31
ENDBRANCH  29  30
ENDBRANCH  28  29
ENDBRANCH  24  28
ENDBRANCH  23  24
ENDBRANCH  22  23
ENDBRANCH   3  22
TORSDOF 9
ENDMDL
MODEL 4
REMARK VINA RESULT:      -9.8      5.715      9.463
REMARK  Name = 11826859
REMARK  9 active torsions:
REMARK  status: ('A' for Active; 'I' for Inactive)
REMARK    1  A    between atoms: C_2  and  N_10
REMARK    2  A    between atoms: C_3  and  C_22
REMARK    3  A    between atoms: C_12  and  C_20
REMARK    4  A    between atoms: C_22  and  O_23
REMARK    5  A    between atoms: O_23  and  C_24
REMARK    6  A    between atoms: C_24  and  C_28
REMARK    7  A    between atoms: C_28  and  O_29
REMARK    8  A    between atoms: O_29  and  C_30
REMARK    9  A    between atoms: C_30  and  C_31
REMARK                            x       y       z     vdW  Elec       q    Type
REMARK                         _______ _______ _______ _____ _____    ______ ____
ROOT
ATOM      1 CL   UNL     1      34.953 -16.644 -25.575  0.00  0.00    -0.082 Cl
ATOM      2  C   UNL     1      34.595 -19.322 -21.972  0.00  0.00    +0.063 C 
ATOM      3  C   UNL     1      34.547 -17.111 -22.918  0.00  0.00    +0.087 C 
ATOM      4  C   UNL     1      34.438 -17.951 -21.810  0.00  0.00    +0.023 C 
ATOM      5  C   UNL     1      34.859 -19.867 -23.220  0.00  0.00    +0.016 C 
ATOM      6  C   UNL     1      34.812 -17.649 -24.177  0.00  0.00    +0.064 C 
ATOM      7  C   UNL     1      34.969 -19.027 -24.328  0.00  0.00    +0.013 C 
ENDROOT
BRANCH   2  10
ATOM      8  O   UNL     1      36.788 -20.081 -20.403  0.00  0.00    -0.251 OA
ATOM      9  O   UNL     1      32.150 -20.437 -21.074  0.00  0.00    -0.269 OA
ATOM     10  N   UNL     1      34.483 -20.195 -20.821  0.00  0.00    -0.189 N 
ATOM     11  N   UNL     1      35.504 -21.446 -19.047  0.00  0.00    -0.237 N 
ATOM     12  C   UNL     1      34.252 -21.886 -18.634  0.00  0.00    +0.132 C 
ATOM     13  C   UNL     1      35.678 -20.550 -20.127  0.00  0.00    +0.321 C 
ATOM     14  C   UNL     1      33.200 -20.644 -20.467  0.00  0.00    +0.261 C 
ATOM     15  C   UNL     1      33.142 -21.508 -19.273  0.00  0.00    +0.078 C 
ATOM     16  C   UNL     1      36.694 -21.883 -18.311  0.00  0.00    +0.122 C 
BRANCH  12  20
ATOM     17  F   UNL     1      34.350 -24.076 -17.798  0.00  0.00    -0.165 F 
ATOM     18  F   UNL     1      35.057 -22.468 -16.507  0.00  0.00    -0.165 F 
ATOM     19  F   UNL     1      32.923 -22.707 -16.881  0.00  0.00    -0.165 F 
ATOM     20  C   UNL     1      34.143 -22.796 -17.440  0.00  0.00    +0.431 C 
ENDBRANCH  12  20
ENDBRANCH   2  10
BRANCH   3  22
ATOM     21  O   UNL     1      35.287 -14.847 -22.808  0.00  0.00    -0.245 OA
ATOM     22  C   UNL     1      34.377 -15.678 -22.712  0.00  0.00    +0.342 C 
BRANCH  22  23
ATOM     23  O   UNL     1      33.082 -15.369 -22.399  0.00  0.00    -0.442 OA
BRANCH  23  24
ATOM     24  C   UNL     1      32.852 -14.783 -21.113  0.00  0.00    +0.224 C 
ATOM     25  C   UNL     1      34.192 -14.692 -20.390  0.00  0.00    +0.055 C 
ATOM     26  C   UNL     1      31.877 -15.676 -20.348  0.00  0.00    +0.055 C 
BRANCH  24  28
ATOM     27  O   UNL     1      32.028 -12.626 -20.342  0.00  0.00    -0.246 OA
ATOM     28  C   UNL     1      32.281 -13.376 -21.277  0.00  0.00    +0.354 C 
BRANCH  28  29
ATOM     29  O   UNL     1      32.133 -13.069 -22.600  0.00  0.00    -0.441 OA
BRANCH  29  30
ATOM     30  C   UNL     1      32.788 -11.873 -23.034  0.00  0.00    +0.235 C 
BRANCH  30  31
ATOM     31  C   UNL     1      33.600 -12.185 -24.247  0.00  0.00    +0.021 C 
ATOM     32  C   UNL     1      34.209 -11.260 -24.997  0.00  0.00    -0.001 C 
ENDBRANCH  30  31
ENDBRANCH  29  30
ENDBRANCH  28  29
ENDBRANCH  24  28
ENDBRANCH  23  24
ENDBRANCH  22  23
ENDBRANCH   3  22
TORSDOF 9
ENDMDL
MODEL 5
REMARK VINA RESULT:      -9.7      4.011      6.620
REMARK  Name = 11826859
REMARK  9 active torsions:
REMARK  status: ('A' for Active; 'I' for Inactive)
REMARK    1  A    between atoms: C_2  and  N_10
REMARK    2  A    between atoms: C_3  and  C_22
REMARK    3  A    between atoms: C_12  and  C_20
REMARK    4  A    between atoms: C_22  and  O_23
REMARK    5  A    between atoms: O_23  and  C_24
REMARK    6  A    between atoms: C_24  and  C_28
REMARK    7  A    between atoms: C_28  and  O_29
REMARK    8  A    between atoms: O_29  and  C_30
REMARK    9  A    between atoms: C_30  and  C_31
REMARK                            x       y       z     vdW  Elec       q    Type
REMARK                         _______ _______ _______ _____ _____    ______ ____
ROOT
ATOM      1 CL   UNL     1      36.737 -21.801 -18.915  0.00  0.00    -0.082 Cl
ATOM      2  C   UNL     1      35.228 -18.586 -21.684  0.00  0.00    +0.063 C 
ATOM      3  C   UNL     1      34.767 -20.439 -20.222  0.00  0.00    +0.087 C 
ATOM      4  C   UNL     1      34.313 -19.438 -21.082  0.00  0.00    +0.023 C 
ATOM      5  C   UNL     1      36.589 -18.715 -21.444  0.00  0.00    +0.016 C 
ATOM      6  C   UNL     1      36.132 -20.576 -19.974  0.00  0.00    +0.064 C 
ATOM      7  C   UNL     1      37.044 -19.715 -20.585  0.00  0.00    +0.013 C 
ENDROOT
BRANCH   2  10
ATOM      8  O   UNL     1      34.504 -16.025 -20.812  0.00  0.00    -0.251 OA
ATOM      9  O   UNL     1      34.942 -18.926 -24.483  0.00  0.00    -0.269 OA
ATOM     10  N   UNL     1      34.757 -17.547 -22.578  0.00  0.00    -0.189 N 
ATOM     11  N   UNL     1      33.873 -15.345 -22.931  0.00  0.00    -0.237 N 
ATOM     12  C   UNL     1      33.836 -15.578 -24.301  0.00  0.00    +0.132 C 
ATOM     13  C   UNL     1      34.373 -16.296 -22.011  0.00  0.00    +0.321 C 
ATOM     14  C   UNL     1      34.701 -17.844 -23.950  0.00  0.00    +0.261 C 
ATOM     15  C   UNL     1      34.241 -16.743 -24.815  0.00  0.00    +0.078 C 
ATOM     16  C   UNL     1      33.424 -14.050 -22.414  0.00  0.00    +0.122 C 
BRANCH  12  20
ATOM     17  F   UNL     1      32.046 -14.225 -24.987  0.00  0.00    -0.165 F 
ATOM     18  F   UNL     1      34.047 -13.362 -25.046  0.00  0.00    -0.165 F 
ATOM     19  F   UNL     1      33.467 -14.870 -26.510  0.00  0.00    -0.165 F 
ATOM     20  C   UNL     1      33.343 -14.495 -25.224  0.00  0.00    +0.431 C 
ENDBRANCH  12  20
ENDBRANCH   2  10
BRANCH   3  22
ATOM     21  O   UNL     1      32.760 -21.724 -20.175  0.00  0.00    -0.245 OA
ATOM     22  C   UNL     1      33.779 -21.316 -19.607  0.00  0.00    +0.342 C 
BRANCH  22  23
ATOM     23  O   UNL     1      34.123 -21.631 -18.321  0.00  0.00    -0.442 OA
BRANCH  23  24
ATOM     24  C   UNL     1      33.601 -22.858 -17.798  0.00  0.00    +0.224 C 
ATOM     25  C   UNL     1      33.824 -23.949 -18.840  0.00  0.00    +0.055 C 
ATOM     26  C   UNL     1      32.111 -22.664 -17.520  0.00  0.00    +0.055 C 
BRANCH  24  28
ATOM     27  O   UNL     1      35.527 -23.550 -16.481  0.00  0.00    -0.246 OA
ATOM     28  C   UNL     1      34.344 -23.235 -16.519  0.00  0.00    +0.354 C 
BRANCH  28  29
ATOM     29  O   UNL     1      33.518 -23.133 -15.436  0.00  0.00    -0.441 OA
BRANCH  29  30
ATOM     30  C   UNL     1      33.670 -24.152 -14.443  0.00  0.00    +0.235 C 
BRANCH  30  31
ATOM     31  C   UNL     1      32.336 -24.434 -13.837  0.00  0.00    +0.021 C 
ATOM     32  C   UNL     1      31.302 -23.586 -13.878  0.00  0.00    -0.001 C 
ENDBRANCH  30  31
ENDBRANCH  29  30
ENDBRANCH  28  29
ENDBRANCH  24  28
ENDBRANCH  23  24
ENDBRANCH  22  23
ENDBRANCH   3  22
TORSDOF 9
ENDMDL
MODEL 6
REMARK VINA RESULT:      -9.6      5.390      9.230
REMARK  Name = 11826859
REMARK  9 active torsions:
REMARK  status: ('A' for Active; 'I' for Inactive)
REMARK    1  A    between atoms: C_2  and  N_10
REMARK    2  A    between atoms: C_3  and  C_22
REMARK    3  A    between atoms: C_12  and  C_20
REMARK    4  A    between atoms: C_22  and  O_23
REMARK    5  A    between atoms: O_23  and  C_24
REMARK    6  A    between atoms: C_24  and  C_28
REMARK    7  A    between atoms: C_28  and  O_29
REMARK    8  A    between atoms: O_29  and  C_30
REMARK    9  A    between atoms: C_30  and  C_31
REMARK                            x       y       z     vdW  Elec       q    Type
REMARK                         _______ _______ _______ _____ _____    ______ ____
ROOT
ATOM      1 CL   UNL     1      33.794 -15.737 -26.161  0.00  0.00    -0.082 Cl
ATOM      2  C   UNL     1      34.824 -18.419 -22.693  0.00  0.00    +0.063 C 
ATOM      3  C   UNL     1      34.152 -16.258 -23.507  0.00  0.00    +0.087 C 
ATOM      4  C   UNL     1      34.473 -17.099 -22.442  0.00  0.00    +0.023 C 
ATOM      5  C   UNL     1      34.860 -18.913 -23.990  0.00  0.00    +0.016 C 
ATOM      6  C   UNL     1      34.185 -16.745 -24.814  0.00  0.00    +0.064 C 
ATOM      7  C   UNL     1      34.540 -18.072 -25.055  0.00  0.00    +0.013 C 
ENDROOT
BRANCH   2  10
ATOM      8  O   UNL     1      32.933 -19.999 -21.363  0.00  0.00    -0.251 OA
ATOM      9  O   UNL     1      37.443 -18.709 -21.651  0.00  0.00    -0.269 OA
ATOM     10  N   UNL     1      35.157 -19.293 -21.587  0.00  0.00    -0.189 N 
ATOM     11  N   UNL     1      34.487 -20.808 -19.852  0.00  0.00    -0.237 N 
ATOM     12  C   UNL     1      35.812 -20.944 -19.456  0.00  0.00    +0.132 C 
ATOM     13  C   UNL     1      34.101 -20.015 -20.957  0.00  0.00    +0.321 C 
ATOM     14  C   UNL     1      36.506 -19.367 -21.199  0.00  0.00    +0.261 C 
ATOM     15  C   UNL     1      36.792 -20.291 -20.087  0.00  0.00    +0.078 C 
ATOM     16  C   UNL     1      33.447 -21.548 -19.133  0.00  0.00    +0.122 C 
BRANCH  12  20
ATOM     17  F   UNL     1      37.383 -22.373 -18.458  0.00  0.00    -0.165 F 
ATOM     18  F   UNL     1      36.126 -21.173 -17.141  0.00  0.00    -0.165 F 
ATOM     19  F   UNL     1      35.273 -22.866 -18.218  0.00  0.00    -0.165 F 
ATOM     20  C   UNL     1      36.152 -21.851 -18.304  0.00  0.00    +0.431 C 
ENDBRANCH  12  20
ENDBRANCH   2  10
BRANCH   3  22
ATOM     21  O   UNL     1      34.427 -13.891 -23.590  0.00  0.00    -0.245 OA
ATOM     22  C   UNL     1      33.788 -14.879 -23.208  0.00  0.00    +0.342 C 
BRANCH  22  23
ATOM     23  O   UNL     1      32.651 -14.815 -22.451  0.00  0.00    -0.442 OA
BRANCH  23  24
ATOM     24  C   UNL     1      32.767 -14.196 -21.165  0.00  0.00    +0.224 C 
ATOM     25  C   UNL     1      34.251 -14.023 -20.856  0.00  0.00    +0.055 C 
ATOM     26  C   UNL     1      32.096 -15.104 -20.135  0.00  0.00    +0.055 C 
BRANCH  24  28
ATOM     27  O   UNL     1      31.674 -12.284 -22.201  0.00  0.00    -0.246 OA
ATOM     28  C   UNL     1      32.102 -12.822 -21.187  0.00  0.00    +0.354 C 
BRANCH  28  29
ATOM     29  O   UNL     1      32.021 -12.308 -19.924  0.00  0.00    -0.441 OA
BRANCH  29  30
ATOM     30  C   UNL     1      31.169 -11.167 -19.774  0.00  0.00    +0.235 C 
BRANCH  30  31
ATOM     31  C   UNL     1      31.982 -10.027 -19.258  0.00  0.00    +0.021 C 
ATOM     32  C   UNL     1      32.146  -8.871 -19.910  0.00  0.00    -0.001 C 
ENDBRANCH  30  31
ENDBRANCH  29  30
ENDBRANCH  28  29
ENDBRANCH  24  28
ENDBRANCH  23  24
ENDBRANCH  22  23
ENDBRANCH   3  22
TORSDOF 9
ENDMDL
MODEL 7
REMARK VINA RESULT:      -9.5      3.755      6.232
REMARK  Name = 11826859
REMARK  9 active torsions:
REMARK  status: ('A' for Active; 'I' for Inactive)
REMARK    1  A    between atoms: C_2  and  N_10
REMARK    2  A    between atoms: C_3  and  C_22
REMARK    3  A    between atoms: C_12  and  C_20
REMARK    4  A    between atoms: C_22  and  O_23
REMARK    5  A    between atoms: O_23  and  C_24
REMARK    6  A    between atoms: C_24  and  C_28
REMARK    7  A    between atoms: C_28  and  O_29
REMARK    8  A    between atoms: O_29  and  C_30
REMARK    9  A    between atoms: C_30  and  C_31
REMARK                            x       y       z     vdW  Elec       q    Type
REMARK                         _______ _______ _______ _____ _____    ______ ____
ROOT
ATOM      1 CL   UNL     1      36.767 -22.036 -19.453  0.00  0.00    -0.082 Cl
ATOM      2  C   UNL     1      35.204 -18.294 -21.411  0.00  0.00    +0.063 C 
ATOM      3  C   UNL     1      34.773 -20.339 -20.221  0.00  0.00    +0.087 C 
ATOM      4  C   UNL     1      34.303 -19.177 -20.831  0.00  0.00    +0.023 C 
ATOM      5  C   UNL     1      36.568 -18.552 -21.393  0.00  0.00    +0.016 C 
ATOM      6  C   UNL     1      36.142 -20.608 -20.198  0.00  0.00    +0.064 C 
ATOM      7  C   UNL     1      37.039 -19.716 -20.785  0.00  0.00    +0.013 C 
ENDROOT
BRANCH   2  10
ATOM      8  O   UNL     1      34.525 -18.153 -24.124  0.00  0.00    -0.251 OA
ATOM      9  O   UNL     1      34.837 -15.838 -20.046  0.00  0.00    -0.269 OA
ATOM     10  N   UNL     1      34.716 -17.086 -22.045  0.00  0.00    -0.189 N 
ATOM     11  N   UNL     1      34.023 -15.898 -24.009  0.00  0.00    -0.237 N 
ATOM     12  C   UNL     1      33.802 -14.758 -23.245  0.00  0.00    +0.132 C 
ATOM     13  C   UNL     1      34.446 -17.123 -23.445  0.00  0.00    +0.321 C 
ATOM     14  C   UNL     1      34.546 -15.950 -21.236  0.00  0.00    +0.261 C 
ATOM     15  C   UNL     1      34.021 -14.758 -21.927  0.00  0.00    +0.078 C 
ATOM     16  C   UNL     1      33.764 -15.852 -25.451  0.00  0.00    +0.122 C 
BRANCH  12  20
ATOM     17  F   UNL     1      32.267 -13.786 -24.728  0.00  0.00    -0.165 F 
ATOM     18  F   UNL     1      32.875 -12.617 -22.991  0.00  0.00    -0.165 F 
ATOM     19  F   UNL     1      34.268 -12.926 -24.639  0.00  0.00    -0.165 F 
ATOM     20  C   UNL     1      33.297 -13.506 -23.910  0.00  0.00    +0.431 C 
ENDBRANCH  12  20
ENDBRANCH   2  10
BRANCH   3  22
ATOM     21  O   UNL     1      32.781 -21.648 -20.195  0.00  0.00    -0.245 OA
ATOM     22  C   UNL     1      33.800 -21.243 -19.623  0.00  0.00    +0.342 C 
BRANCH  22  23
ATOM     23  O   UNL     1      34.156 -21.589 -18.348  0.00  0.00    -0.442 OA
BRANCH  23  24
ATOM     24  C   UNL     1      33.617 -22.813 -17.838  0.00  0.00    +0.224 C 
ATOM     25  C   UNL     1      33.822 -23.895 -18.894  0.00  0.00    +0.055 C 
ATOM     26  C   UNL     1      32.130 -22.600 -17.556  0.00  0.00    +0.055 C 
BRANCH  24  28
ATOM     27  O   UNL     1      35.559 -23.438 -16.513  0.00  0.00    -0.246 OA
ATOM     28  C   UNL     1      34.356 -23.217 -16.565  0.00  0.00    +0.354 C 
BRANCH  28  29
ATOM     29  O   UNL     1      33.497 -23.255 -15.503  0.00  0.00    -0.441 OA
BRANCH  29  30
ATOM     30  C   UNL     1      33.700 -24.330 -14.581  0.00  0.00    +0.235 C 
BRANCH  30  31
ATOM     31  C   UNL     1      32.465 -24.499 -13.762  0.00  0.00    +0.021 C 
ATOM     32  C   UNL     1      31.304 -24.955 -14.245  0.00  0.00    -0.001 C 
ENDBRANCH  30  31
ENDBRANCH  29  30
ENDBRANCH  28  29
ENDBRANCH  24  28
ENDBRANCH  23  24
ENDBRANCH  22  23
ENDBRANCH   3  22
TORSDOF 9
ENDMDL
MODEL 8
REMARK VINA RESULT:      -9.1      4.857     10.204
REMARK  Name = 11826859
REMARK  9 active torsions:
REMARK  status: ('A' for Active; 'I' for Inactive)
REMARK    1  A    between atoms: C_2  and  N_10
REMARK    2  A    between atoms: C_3  and  C_22
REMARK    3  A    between atoms: C_12  and  C_20
REMARK    4  A    between atoms: C_22  and  O_23
REMARK    5  A    between atoms: O_23  and  C_24
REMARK    6  A    between atoms: C_24  and  C_28
REMARK    7  A    between atoms: C_28  and  O_29
REMARK    8  A    between atoms: O_29  and  C_30
REMARK    9  A    between atoms: C_30  and  C_31
REMARK                            x       y       z     vdW  Elec       q    Type
REMARK                         _______ _______ _______ _____ _____    ______ ____
ROOT
ATOM      1 CL   UNL     1      31.446  -9.060 -22.134  0.00  0.00    -0.082 Cl
ATOM      2  C   UNL     1      33.047 -13.193 -22.928  0.00  0.00    +0.063 C 
ATOM      3  C   UNL     1      33.215 -10.815 -23.244  0.00  0.00    +0.087 C 
ATOM      4  C   UNL     1      33.701 -12.100 -23.482  0.00  0.00    +0.023 C 
ATOM      5  C   UNL     1      31.916 -13.025 -22.141  0.00  0.00    +0.016 C 
ATOM      6  C   UNL     1      32.080 -10.635 -22.455  0.00  0.00    +0.064 C 
ATOM      7  C   UNL     1      31.430 -11.739 -21.904  0.00  0.00    +0.013 C 
ENDROOT
BRANCH   2  10
ATOM      8  O   UNL     1      34.077 -14.842 -20.913  0.00  0.00    -0.251 OA
ATOM      9  O   UNL     1      33.097 -14.408 -25.488  0.00  0.00    -0.269 OA
ATOM     10  N   UNL     1      33.552 -14.529 -23.176  0.00  0.00    -0.189 N 
ATOM     11  N   UNL     1      34.616 -16.532 -22.397  0.00  0.00    -0.237 N 
ATOM     12  C   UNL     1      34.532 -17.076 -23.673  0.00  0.00    +0.132 C 
ATOM     13  C   UNL     1      34.095 -15.257 -22.077  0.00  0.00    +0.321 C 
ATOM     14  C   UNL     1      33.479 -15.019 -24.490  0.00  0.00    +0.261 C 
ATOM     15  C   UNL     1      33.981 -16.392 -24.680  0.00  0.00    +0.078 C 
ATOM     16  C   UNL     1      35.225 -17.321 -21.322  0.00  0.00    +0.122 C 
BRANCH  12  20
ATOM     17  F   UNL     1      34.933 -18.791 -25.223  0.00  0.00    -0.165 F 
ATOM     18  F   UNL     1      36.364 -18.541 -23.597  0.00  0.00    -0.165 F 
ATOM     19  F   UNL     1      34.389 -19.370 -23.193  0.00  0.00    -0.165 F 
ATOM     20  C   UNL     1      35.061 -18.463 -23.924  0.00  0.00    +0.431 C 
ENDBRANCH  12  20
ENDBRANCH   2  10
BRANCH   3  22
ATOM     21  O   UNL     1      35.134  -9.691 -24.104  0.00  0.00    -0.245 OA
ATOM     22  C   UNL     1      33.926  -9.691 -23.841  0.00  0.00    +0.342 C 
BRANCH  22  23
ATOM     23  O   UNL     1      33.086  -8.637 -24.075  0.00  0.00    -0.442 OA
BRANCH  23  24
ATOM     24  C   UNL     1      33.602  -7.330 -23.797  0.00  0.00    +0.224 C 
ATOM     25  C   UNL     1      34.414  -6.877 -25.006  0.00  0.00    +0.055 C 
ATOM     26  C   UNL     1      34.479  -7.417 -22.550  0.00  0.00    +0.055 C 
BRANCH  24  28
ATOM     27  O   UNL     1      32.182  -5.838 -22.501  0.00  0.00    -0.246 OA
ATOM     28  C   UNL     1      32.450  -6.352 -23.580  0.00  0.00    +0.354 C 
BRANCH  28  29
ATOM     29  O   UNL     1      31.798  -6.109 -24.755  0.00  0.00    -0.441 OA
BRANCH  29  30
ATOM     30  C   UNL     1      31.121  -4.851 -24.840  0.00  0.00    +0.235 C 
BRANCH  30  31
ATOM     31  C   UNL     1      32.007  -3.876 -25.542  0.00  0.00    +0.021 C 
ATOM     32  C   UNL     1      32.556  -4.096 -26.742  0.00  0.00    -0.001 C 
ENDBRANCH  30  31
ENDBRANCH  29  30
ENDBRANCH  28  29
ENDBRANCH  24  28
ENDBRANCH  23  24
ENDBRANCH  22  23
ENDBRANCH   3  22
TORSDOF 9
ENDMDL
MODEL 9
REMARK VINA RESULT:      -8.7      8.069     12.492
REMARK  Name = 11826859
REMARK  9 active torsions:
REMARK  status: ('A' for Active; 'I' for Inactive)
REMARK    1  A    between atoms: C_2  and  N_10
REMARK    2  A    between atoms: C_3  and  C_22
REMARK    3  A    between atoms: C_12  and  C_20
REMARK    4  A    between atoms: C_22  and  O_23
REMARK    5  A    between atoms: O_23  and  C_24
REMARK    6  A    between atoms: C_24  and  C_28
REMARK    7  A    between atoms: C_28  and  O_29
REMARK    8  A    between atoms: O_29  and  C_30
REMARK    9  A    between atoms: C_30  and  C_31
REMARK                            x       y       z     vdW  Elec       q    Type
REMARK                         _______ _______ _______ _____ _____    ______ ____
ROOT
ATOM      1 CL   UNL     1      32.866 -21.315 -20.514  0.00  0.00    -0.082 Cl
ATOM      2  C   UNL     1      35.073 -22.763 -16.865  0.00  0.00    +0.063 C 
ATOM      3  C   UNL     1      35.093 -21.585 -18.962  0.00  0.00    +0.087 C 
ATOM      4  C   UNL     1      35.765 -22.039 -17.827  0.00  0.00    +0.023 C 
ATOM      5  C   UNL     1      33.721 -23.042 -17.017  0.00  0.00    +0.016 C 
ATOM      6  C   UNL     1      33.736 -21.860 -19.124  0.00  0.00    +0.064 C 
ATOM      7  C   UNL     1      33.050 -22.589 -18.152  0.00  0.00    +0.013 C 
ENDROOT
BRANCH   2  10
ATOM      8  O   UNL     1      33.761 -23.820 -14.628  0.00  0.00    -0.251 OA
ATOM      9  O   UNL     1      37.892 -22.715 -16.578  0.00  0.00    -0.269 OA
ATOM     10  N   UNL     1      35.770 -23.235 -15.686  0.00  0.00    -0.189 N 
ATOM     11  N   UNL     1      35.732 -24.107 -13.452  0.00  0.00    -0.237 N 
ATOM     12  C   UNL     1      37.122 -24.115 -13.429  0.00  0.00    +0.132 C 
ATOM     13  C   UNL     1      34.992 -23.710 -14.589  0.00  0.00    +0.321 C 
ATOM     14  C   UNL     1      37.174 -23.187 -15.697  0.00  0.00    +0.261 C 
ATOM     15  C   UNL     1      37.832 -23.705 -14.484  0.00  0.00    +0.078 C 
ATOM     16  C   UNL     1      34.996 -24.570 -12.272  0.00  0.00    +0.122 C 
BRANCH  12  20
ATOM     17  F   UNL     1      39.155 -24.328 -12.278  0.00  0.00    -0.165 F 
ATOM     18  F   UNL     1      37.351 -24.010 -11.095  0.00  0.00    -0.165 F 
ATOM     19  F   UNL     1      37.697 -25.934 -12.059  0.00  0.00    -0.165 F 
ATOM     20  C   UNL     1      37.840 -24.604 -12.200  0.00  0.00    +0.431 C 
ENDBRANCH  12  20
ENDBRANCH   2  10
BRANCH   3  22
ATOM     21  O   UNL     1      36.781 -21.293 -20.620  0.00  0.00    -0.245 OA
ATOM     22  C   UNL     1      35.851 -20.829 -19.951  0.00  0.00    +0.342 C 
BRANCH  22  23
ATOM     23  O   UNL     1      35.402 -19.541 -20.046  0.00  0.00    -0.442 OA
BRANCH  23  24
ATOM     24  C   UNL     1      35.617 -18.874 -21.295  0.00  0.00    +0.224 C 
ATOM     25  C   UNL     1      34.871 -19.647 -22.377  0.00  0.00    +0.055 C 
ATOM     26  C   UNL     1      37.119 -18.855 -21.573  0.00  0.00    +0.055 C 
BRANCH  24  28
ATOM     27  O   UNL     1      35.245 -16.690 -20.288  0.00  0.00    -0.246 OA
ATOM     28  C   UNL     1      35.063 -17.453 -21.228  0.00  0.00    +0.354 C 
BRANCH  28  29
ATOM     29  O   UNL     1      34.378 -17.151 -22.371  0.00  0.00    -0.441 OA
BRANCH  29  30
ATOM     30  C   UNL     1      34.769 -15.939 -23.025  0.00  0.00    +0.235 C 
BRANCH  30  31
ATOM     31  C   UNL     1      34.625 -16.121 -24.499  0.00  0.00    +0.021 C 
ATOM     32  C   UNL     1      34.575 -17.314 -25.104  0.00  0.00    -0.001 C 
ENDBRANCH  30  31
ENDBRANCH  29  30
ENDBRANCH  28  29
ENDBRANCH  24  28
ENDBRANCH  23  24
ENDBRANCH  22  23
ENDBRANCH   3  22
TORSDOF 9
ENDMDL
