MODEL 1
REMARK VINA RESULT:     -10.6      0.000      0.000
REMARK  Name = 9865808
REMARK  5 active torsions:
REMARK  status: ('A' for Active; 'I' for Inactive)
REMARK    1  A    between atoms: N_1  and  C_13
REMARK    2  A    between atoms: C_3  and  C_7
REMARK    3  A    between atoms: C_5  and  C_28
REMARK    4  A    between atoms: C_16  and  S_19
REMARK    5  A    between atoms: S_19  and  N_22
REMARK                            x       y       z     vdW  Elec       q    Type
REMARK                         _______ _______ _______ _____ _____    ______ ____
ROOT
ATOM      1  N   UNL     1      34.328 -24.200 -14.892  0.00  0.00    -0.190 N 
ATOM      2  N   UNL     1      33.456 -24.657 -13.977  0.00  0.00    -0.170 NA
ATOM      3  C   UNL     1      33.754 -23.449 -15.877  0.00  0.00    +0.075 C 
ATOM      4  C   UNL     1      32.410 -23.416 -15.584  0.00  0.00    +0.041 C 
ATOM      5  C   UNL     1      32.286 -24.175 -14.405  0.00  0.00    +0.172 C 
ENDROOT
BRANCH   3   7
ATOM      6 CL   UNL     1      36.720 -20.962 -20.399  0.00  0.00    -0.082 Cl
ATOM      7  C   UNL     1      34.472 -22.847 -16.973  0.00  0.00    +0.016 C 
ATOM      8  C   UNL     1      35.768 -22.368 -16.777  0.00  0.00    +0.002 C 
ATOM      9  C   UNL     1      33.872 -22.743 -18.228  0.00  0.00    +0.002 C 
ATOM     10  C   UNL     1      36.463 -21.785 -17.837  0.00  0.00    +0.011 C 
ATOM     11  C   UNL     1      34.567 -22.160 -19.287  0.00  0.00    +0.011 C 
ATOM     12  C   UNL     1      35.862 -21.681 -19.092  0.00  0.00    +0.058 C 
ENDBRANCH   3   7
BRANCH   1  13
ATOM     13  C   UNL     1      35.682 -24.514 -14.766  0.00  0.00    +0.074 C 
ATOM     14  C   UNL     1      36.165 -25.691 -15.323  0.00  0.00    +0.018 C 
ATOM     15  C   UNL     1      36.526 -23.646 -14.087  0.00  0.00    +0.018 C 
ATOM     16  C   UNL     1      38.376 -25.140 -14.517  0.00  0.00    +0.122 C 
ATOM     17  C   UNL     1      37.518 -26.005 -15.197  0.00  0.00    +0.021 C 
ATOM     18  C   UNL     1      37.879 -23.961 -13.962  0.00  0.00    +0.021 C 
BRANCH  16  19
ATOM     19  S   UNL     1      40.069 -25.533 -14.361  0.00  0.00    +0.057 S 
ATOM     20  O   UNL     1      40.787 -24.328 -13.968  0.00  0.00    -0.153 OA
ATOM     21  O   UNL     1      40.191 -26.742 -13.559  0.00  0.00    -0.153 OA
BRANCH  19  22
ATOM     22  N   UNL     1      40.467 -25.907 -15.981  0.00  0.00    -0.203 NA
ATOM     23  H   UNL     1      40.885 -25.090 -16.425  0.00  0.00    +0.144 HD
ATOM     24  H   UNL     1      39.622 -26.174 -16.485  0.00  0.00    +0.144 HD
ENDBRANCH  19  22
ENDBRANCH  16  19
ENDBRANCH   1  13
BRANCH   5  28
ATOM     25  F   UNL     1      30.667 -23.437 -12.836  0.00  0.00    -0.164 F 
ATOM     26  F   UNL     1      29.976 -24.723 -14.447  0.00  0.00    -0.164 F 
ATOM     27  F   UNL     1      31.190 -25.553 -12.838  0.00  0.00    -0.164 F 
ATOM     28  C   UNL     1      31.055 -24.464 -13.649  0.00  0.00    +0.436 C 
ENDBRANCH   5  28
TORSDOF 5
ENDMDL
MODEL 2
REMARK VINA RESULT:     -10.1      1.323      1.733
REMARK  Name = 9865808
REMARK  5 active torsions:
REMARK  status: ('A' for Active; 'I' for Inactive)
REMARK    1  A    between atoms: N_1  and  C_13
REMARK    2  A    between atoms: C_3  and  C_7
REMARK    3  A    between atoms: C_5  and  C_28
REMARK    4  A    between atoms: C_16  and  S_19
REMARK    5  A    between atoms: S_19  and  N_22
REMARK                            x       y       z     vdW  Elec       q    Type
REMARK                         _______ _______ _______ _____ _____    ______ ____
ROOT
ATOM      1  N   UNL     1      33.242 -24.012 -15.314  0.00  0.00    -0.190 N 
ATOM      2  N   UNL     1      32.137 -24.393 -14.651  0.00  0.00    -0.170 NA
ATOM      3  C   UNL     1      32.989 -23.280 -16.438  0.00  0.00    +0.075 C 
ATOM      4  C   UNL     1      31.620 -23.179 -16.515  0.00  0.00    +0.041 C 
ATOM      5  C   UNL     1      31.149 -23.881 -15.390  0.00  0.00    +0.172 C 
ENDROOT
BRANCH   3   7
ATOM      6 CL   UNL     1      37.168 -21.112 -20.081  0.00  0.00    -0.082 Cl
ATOM      7  C   UNL     1      34.002 -22.755 -17.321  0.00  0.00    +0.016 C 
ATOM      8  C   UNL     1      33.711 -22.547 -18.669  0.00  0.00    +0.002 C 
ATOM      9  C   UNL     1      35.272 -22.456 -16.826  0.00  0.00    +0.002 C 
ATOM     10  C   UNL     1      34.691 -22.038 -19.523  0.00  0.00    +0.011 C 
ATOM     11  C   UNL     1      36.251 -21.948 -17.680  0.00  0.00    +0.011 C 
ATOM     12  C   UNL     1      35.960 -21.739 -19.028  0.00  0.00    +0.058 C 
ENDBRANCH   3   7
BRANCH   1  13
ATOM     13  C   UNL     1      34.497 -24.377 -14.823  0.00  0.00    +0.074 C 
ATOM     14  C   UNL     1      35.164 -25.456 -15.387  0.00  0.00    +0.018 C 
ATOM     15  C   UNL     1      35.059 -23.655 -13.779  0.00  0.00    +0.018 C 
ATOM     16  C   UNL     1      36.993 -25.103 -13.847  0.00  0.00    +0.122 C 
ATOM     17  C   UNL     1      36.418 -25.821 -14.895  0.00  0.00    +0.021 C 
ATOM     18  C   UNL     1      36.313 -24.020 -13.288  0.00  0.00    +0.021 C 
BRANCH  16  19
ATOM     19  S   UNL     1      38.562 -25.559 -13.234  0.00  0.00    +0.057 S 
ATOM     20  O   UNL     1      39.411 -24.375 -13.214  0.00  0.00    -0.153 OA
ATOM     21  O   UNL     1      38.375 -26.336 -12.016  0.00  0.00    -0.153 OA
BRANCH  19  22
ATOM     22  N   UNL     1      39.105 -26.605 -14.473  0.00  0.00    -0.203 NA
ATOM     23  H   UNL     1      38.774 -26.263 -15.375  0.00  0.00    +0.144 HD
ATOM     24  H   UNL     1      38.739 -27.543 -14.310  0.00  0.00    +0.144 HD
ENDBRANCH  19  22
ENDBRANCH  16  19
ENDBRANCH   1  13
BRANCH   5  28
ATOM     25  F   UNL     1      29.024 -22.928 -14.933  0.00  0.00    -0.164 F 
ATOM     26  F   UNL     1      29.054 -24.914 -15.817  0.00  0.00    -0.164 F 
ATOM     27  F   UNL     1      29.649 -24.641 -13.738  0.00  0.00    -0.164 F 
ATOM     28  C   UNL     1      29.749 -24.086 -14.981  0.00  0.00    +0.436 C 
ENDBRANCH   5  28
TORSDOF 5
ENDMDL
MODEL 3
REMARK VINA RESULT:      -9.7     10.711     12.533
REMARK  Name = 9865808
REMARK  5 active torsions:
REMARK  status: ('A' for Active; 'I' for Inactive)
REMARK    1  A    between atoms: N_1  and  C_13
REMARK    2  A    between atoms: C_3  and  C_7
REMARK    3  A    between atoms: C_5  and  C_28
REMARK    4  A    between atoms: C_16  and  S_19
REMARK    5  A    between atoms: S_19  and  N_22
REMARK                            x       y       z     vdW  Elec       q    Type
REMARK                         _______ _______ _______ _____ _____    ______ ____
ROOT
ATOM      1  N   UNL     1      32.541 -13.225 -20.999  0.00  0.00    -0.190 N 
ATOM      2  N   UNL     1      32.123 -12.749 -19.814  0.00  0.00    -0.170 NA
ATOM      3  C   UNL     1      32.390 -12.345 -22.032  0.00  0.00    +0.075 C 
ATOM      4  C   UNL     1      31.832 -11.216 -21.481  0.00  0.00    +0.041 C 
ATOM      5  C   UNL     1      31.691 -11.522 -20.114  0.00  0.00    +0.172 C 
ENDROOT
BRANCH   3   7
ATOM      6 CL   UNL     1      33.922 -13.459 -27.676  0.00  0.00    -0.082 Cl
ATOM      7  C   UNL     1      32.761 -12.615 -23.400  0.00  0.00    +0.016 C 
ATOM      8  C   UNL     1      33.514 -11.684 -24.115  0.00  0.00    +0.002 C 
ATOM      9  C   UNL     1      32.366 -13.807 -24.008  0.00  0.00    +0.002 C 
ATOM     10  C   UNL     1      33.873 -11.945 -25.437  0.00  0.00    +0.011 C 
ATOM     11  C   UNL     1      32.725 -14.068 -25.330  0.00  0.00    +0.011 C 
ATOM     12  C   UNL     1      33.479 -13.137 -26.044  0.00  0.00    +0.058 C 
ENDBRANCH   3   7
BRANCH   1  13
ATOM     13  C   UNL     1      33.069 -14.515 -21.074  0.00  0.00    +0.074 C 
ATOM     14  C   UNL     1      34.411 -14.687 -21.388  0.00  0.00    +0.018 C 
ATOM     15  C   UNL     1      32.245 -15.606 -20.834  0.00  0.00    +0.018 C 
ATOM     16  C   UNL     1      34.121 -17.080 -21.224  0.00  0.00    +0.122 C 
ATOM     17  C   UNL     1      34.938 -15.976 -21.463  0.00  0.00    +0.021 C 
ATOM     18  C   UNL     1      32.774 -16.895 -20.909  0.00  0.00    +0.021 C 
BRANCH  16  19
ATOM     19  S   UNL     1      34.782 -18.693 -21.317  0.00  0.00    +0.057 S 
ATOM     20  O   UNL     1      36.022 -18.727 -20.554  0.00  0.00    -0.153 OA
ATOM     21  O   UNL     1      33.721 -19.645 -21.018  0.00  0.00    -0.153 OA
BRANCH  19  22
ATOM     22  N   UNL     1      35.157 -18.795 -22.982  0.00  0.00    -0.203 NA
ATOM     23  H   UNL     1      34.561 -18.152 -23.505  0.00  0.00    +0.144 HD
ATOM     24  H   UNL     1      34.997 -19.748 -23.308  0.00  0.00    +0.144 HD
ENDBRANCH  19  22
ENDBRANCH  16  19
ENDBRANCH   1  13
BRANCH   5  28
ATOM     25  F   UNL     1      29.790 -10.493 -19.135  0.00  0.00    -0.164 F 
ATOM     26  F   UNL     1      31.375 -11.135 -17.793  0.00  0.00    -0.164 F 
ATOM     27  F   UNL     1      31.678  -9.403 -19.081  0.00  0.00    -0.164 F 
ATOM     28  C   UNL     1      31.144 -10.659 -19.053  0.00  0.00    +0.436 C 
ENDBRANCH   5  28
TORSDOF 5
ENDMDL
MODEL 4
REMARK VINA RESULT:      -9.6      5.074      6.590
REMARK  Name = 9865808
REMARK  5 active torsions:
REMARK  status: ('A' for Active; 'I' for Inactive)
REMARK    1  A    between atoms: N_1  and  C_13
REMARK    2  A    between atoms: C_3  and  C_7
REMARK    3  A    between atoms: C_5  and  C_28
REMARK    4  A    between atoms: C_16  and  S_19
REMARK    5  A    between atoms: S_19  and  N_22
REMARK                            x       y       z     vdW  Elec       q    Type
REMARK                         _______ _______ _______ _____ _____    ______ ____
ROOT
ATOM      1  N   UNL     1      33.757 -23.827 -14.133  0.00  0.00    -0.190 N 
ATOM      2  N   UNL     1      33.958 -24.281 -12.885  0.00  0.00    -0.170 NA
ATOM      3  C   UNL     1      34.906 -23.506 -14.797  0.00  0.00    +0.075 C 
ATOM      4  C   UNL     1      35.930 -23.768 -13.917  0.00  0.00    +0.041 C 
ATOM      5  C   UNL     1      35.287 -24.242 -12.758  0.00  0.00    +0.172 C 
ENDROOT
BRANCH   3   7
ATOM      6 CL   UNL     1      35.126 -21.409 -20.364  0.00  0.00    -0.082 Cl
ATOM      7  C   UNL     1      34.960 -22.998 -16.146  0.00  0.00    +0.016 C 
ATOM      8  C   UNL     1      33.873 -23.178 -17.002  0.00  0.00    +0.002 C 
ATOM      9  C   UNL     1      36.098 -22.327 -16.594  0.00  0.00    +0.002 C 
ATOM     10  C   UNL     1      33.925 -22.686 -18.306  0.00  0.00    +0.011 C 
ATOM     11  C   UNL     1      36.149 -21.835 -17.898  0.00  0.00    +0.011 C 
ATOM     12  C   UNL     1      35.063 -22.015 -18.754  0.00  0.00    +0.058 C 
ENDBRANCH   3   7
BRANCH   1  13
ATOM     13  C   UNL     1      32.455 -23.725 -14.626  0.00  0.00    +0.074 C 
ATOM     14  C   UNL     1      31.802 -22.500 -14.586  0.00  0.00    +0.018 C 
ATOM     15  C   UNL     1      31.831 -24.851 -15.148  0.00  0.00    +0.018 C 
ATOM     16  C   UNL     1      29.865 -23.523 -15.605  0.00  0.00    +0.122 C 
ATOM     17  C   UNL     1      30.501 -22.400 -15.078  0.00  0.00    +0.021 C 
ATOM     18  C   UNL     1      30.530 -24.749 -15.639  0.00  0.00    +0.021 C 
BRANCH  16  19
ATOM     19  S   UNL     1      28.236 -23.396 -16.222  0.00  0.00    +0.057 S 
ATOM     20  O   UNL     1      27.998 -24.512 -17.126  0.00  0.00    -0.153 OA
ATOM     21  O   UNL     1      27.334 -23.167 -15.102  0.00  0.00    -0.153 OA
BRANCH  19  22
ATOM     22  N   UNL     1      28.347 -21.958 -17.139  0.00  0.00    -0.203 NA
ATOM     23  H   UNL     1      29.150 -21.414 -16.823  0.00  0.00    +0.144 HD
ATOM     24  H   UNL     1      27.496 -21.410 -17.016  0.00  0.00    +0.144 HD
ENDBRANCH  19  22
ENDBRANCH  16  19
ENDBRANCH   1  13
BRANCH   5  28
ATOM     25  F   UNL     1      36.667 -23.701 -10.905  0.00  0.00    -0.164 F 
ATOM     26  F   UNL     1      35.011 -25.063 -10.547  0.00  0.00    -0.164 F 
ATOM     27  F   UNL     1      36.750 -25.739 -11.674  0.00  0.00    -0.164 F 
ATOM     28  C   UNL     1      35.914 -24.675 -11.497  0.00  0.00    +0.436 C 
ENDBRANCH   5  28
TORSDOF 5
ENDMDL
MODEL 5
REMARK VINA RESULT:      -9.6      4.420      5.691
REMARK  Name = 9865808
REMARK  5 active torsions:
REMARK  status: ('A' for Active; 'I' for Inactive)
REMARK    1  A    between atoms: N_1  and  C_13
REMARK    2  A    between atoms: C_3  and  C_7
REMARK    3  A    between atoms: C_5  and  C_28
REMARK    4  A    between atoms: C_16  and  S_19
REMARK    5  A    between atoms: S_19  and  N_22
REMARK                            x       y       z     vdW  Elec       q    Type
REMARK                         _______ _______ _______ _____ _____    ______ ____
ROOT
ATOM      1  N   UNL     1      34.921 -22.915 -16.879  0.00  0.00    -0.190 N 
ATOM      2  N   UNL     1      35.815 -22.407 -17.743  0.00  0.00    -0.170 NA
ATOM      3  C   UNL     1      33.627 -22.829 -17.306  0.00  0.00    +0.075 C 
ATOM      4  C   UNL     1      33.682 -22.220 -18.538  0.00  0.00    +0.041 C 
ATOM      5  C   UNL     1      35.053 -21.984 -18.755  0.00  0.00    +0.172 C 
ENDROOT
BRANCH   3   7
ATOM      6 CL   UNL     1      28.912 -24.776 -14.238  0.00  0.00    -0.082 Cl
ATOM      7  C   UNL     1      32.484 -23.301 -16.563  0.00  0.00    +0.016 C 
ATOM      8  C   UNL     1      32.661 -24.190 -15.503  0.00  0.00    +0.002 C 
ATOM      9  C   UNL     1      31.203 -22.868 -16.905  0.00  0.00    +0.002 C 
ATOM     10  C   UNL     1      31.557 -24.646 -14.784  0.00  0.00    +0.011 C 
ATOM     11  C   UNL     1      30.098 -23.324 -16.186  0.00  0.00    +0.011 C 
ATOM     12  C   UNL     1      30.275 -24.213 -15.126  0.00  0.00    +0.058 C 
ENDBRANCH   3   7
BRANCH   1  13
ATOM     13  C   UNL     1      35.365 -23.461 -15.673  0.00  0.00    +0.074 C 
ATOM     14  C   UNL     1      35.477 -22.647 -14.554  0.00  0.00    +0.018 C 
ATOM     15  C   UNL     1      35.688 -24.810 -15.612  0.00  0.00    +0.018 C 
ATOM     16  C   UNL     1      36.248 -24.548 -13.276  0.00  0.00    +0.122 C 
ATOM     17  C   UNL     1      35.922 -23.194 -13.350  0.00  0.00    +0.021 C 
ATOM     18  C   UNL     1      36.131 -25.356 -14.407  0.00  0.00    +0.021 C 
BRANCH  16  19
ATOM     19  S   UNL     1      36.803 -25.231 -11.768  0.00  0.00    +0.057 S 
ATOM     20  O   UNL     1      37.043 -26.654 -11.969  0.00  0.00    -0.153 OA
ATOM     21  O   UNL     1      37.864 -24.386 -11.240  0.00  0.00    -0.153 OA
BRANCH  19  22
ATOM     22  N   UNL     1      35.412 -25.040 -10.793  0.00  0.00    -0.203 NA
ATOM     23  H   UNL     1      35.694 -24.891  -9.824  0.00  0.00    +0.144 HD
ATOM     24  H   UNL     1      34.837 -25.880 -10.855  0.00  0.00    +0.144 HD
ENDBRANCH  19  22
ENDBRANCH  16  19
ENDBRANCH   1  13
BRANCH   5  28
ATOM     25  F   UNL     1      34.801 -20.638 -20.693  0.00  0.00    -0.164 F 
ATOM     26  F   UNL     1      36.676 -20.474 -19.605  0.00  0.00    -0.164 F 
ATOM     27  F   UNL     1      36.247 -22.267 -20.768  0.00  0.00    -0.164 F 
ATOM     28  C   UNL     1      35.680 -21.352 -19.928  0.00  0.00    +0.436 C 
ENDBRANCH   5  28
TORSDOF 5
ENDMDL
MODEL 6
REMARK VINA RESULT:      -9.5      3.682      5.098
REMARK  Name = 9865808
REMARK  5 active torsions:
REMARK  status: ('A' for Active; 'I' for Inactive)
REMARK    1  A    between atoms: N_1  and  C_13
REMARK    2  A    between atoms: C_3  and  C_7
REMARK    3  A    between atoms: C_5  and  C_28
REMARK    4  A    between atoms: C_16  and  S_19
REMARK    5  A    between atoms: S_19  and  N_22
REMARK                            x       y       z     vdW  Elec       q    Type
REMARK                         _______ _______ _______ _____ _____    ______ ____
ROOT
ATOM      1  N   UNL     1      33.515 -23.732 -15.537  0.00  0.00    -0.190 N 
ATOM      2  N   UNL     1      32.176 -23.648 -15.474  0.00  0.00    -0.170 NA
ATOM      3  C   UNL     1      34.070 -24.479 -14.538  0.00  0.00    +0.075 C 
ATOM      4  C   UNL     1      33.016 -24.912 -13.768  0.00  0.00    +0.041 C 
ATOM      5  C   UNL     1      31.877 -24.370 -14.391  0.00  0.00    +0.172 C 
ENDROOT
BRANCH   3   7
ATOM      6 CL   UNL     1      39.904 -25.479 -13.897  0.00  0.00    -0.082 Cl
ATOM      7  C   UNL     1      35.484 -24.722 -14.383  0.00  0.00    +0.016 C 
ATOM      8  C   UNL     1      36.238 -23.922 -13.524  0.00  0.00    +0.002 C 
ATOM      9  C   UNL     1      36.096 -25.756 -15.091  0.00  0.00    +0.002 C 
ATOM     10  C   UNL     1      37.605 -24.156 -13.374  0.00  0.00    +0.011 C 
ATOM     11  C   UNL     1      37.463 -25.990 -14.941  0.00  0.00    +0.011 C 
ATOM     12  C   UNL     1      38.217 -25.190 -14.083  0.00  0.00    +0.058 C 
ENDBRANCH   3   7
BRANCH   1  13
ATOM     13  C   UNL     1      34.197 -23.082 -16.567  0.00  0.00    +0.074 C 
ATOM     14  C   UNL     1      33.588 -22.940 -17.807  0.00  0.00    +0.018 C 
ATOM     15  C   UNL     1      35.474 -22.588 -16.337  0.00  0.00    +0.018 C 
ATOM     16  C   UNL     1      35.553 -21.790 -18.617  0.00  0.00    +0.122 C 
ATOM     17  C   UNL     1      34.270 -22.291 -18.836  0.00  0.00    +0.021 C 
ATOM     18  C   UNL     1      36.155 -21.939 -17.367  0.00  0.00    +0.021 C 
BRANCH  16  19
ATOM     19  S   UNL     1      36.405 -20.977 -19.905  0.00  0.00    +0.057 S 
ATOM     20  O   UNL     1      37.066 -19.803 -19.351  0.00  0.00    -0.153 OA
ATOM     21  O   UNL     1      37.181 -21.964 -20.642  0.00  0.00    -0.153 OA
BRANCH  19  22
ATOM     22  N   UNL     1      35.101 -20.463 -20.884  0.00  0.00    -0.203 NA
ATOM     23  H   UNL     1      34.256 -20.397 -20.317  0.00  0.00    +0.144 HD
ATOM     24  H   UNL     1      34.955 -21.137 -21.636  0.00  0.00    +0.144 HD
ENDBRANCH  19  22
ENDBRANCH  16  19
ENDBRANCH   1  13
BRANCH   5  28
ATOM     25  F   UNL     1      30.297 -24.493 -12.625  0.00  0.00    -0.164 F 
ATOM     26  F   UNL     1      29.652 -23.545 -14.472  0.00  0.00    -0.164 F 
ATOM     27  F   UNL     1      29.934 -25.706 -14.400  0.00  0.00    -0.164 F 
ATOM     28  C   UNL     1      30.471 -24.523 -13.980  0.00  0.00    +0.436 C 
ENDBRANCH   5  28
TORSDOF 5
ENDMDL
MODEL 7
REMARK VINA RESULT:      -8.8      4.036      5.325
REMARK  Name = 9865808
REMARK  5 active torsions:
REMARK  status: ('A' for Active; 'I' for Inactive)
REMARK    1  A    between atoms: N_1  and  C_13
REMARK    2  A    between atoms: C_3  and  C_7
REMARK    3  A    between atoms: C_5  and  C_28
REMARK    4  A    between atoms: C_16  and  S_19
REMARK    5  A    between atoms: S_19  and  N_22
REMARK                            x       y       z     vdW  Elec       q    Type
REMARK                         _______ _______ _______ _____ _____    ______ ____
ROOT
ATOM      1  N   UNL     1      34.564 -23.072 -16.724  0.00  0.00    -0.190 N 
ATOM      2  N   UNL     1      35.140 -22.591 -17.838  0.00  0.00    -0.170 NA
ATOM      3  C   UNL     1      33.201 -22.987 -16.724  0.00  0.00    +0.075 C 
ATOM      4  C   UNL     1      32.865 -22.406 -17.925  0.00  0.00    +0.041 C 
ATOM      5  C   UNL     1      34.097 -22.186 -18.568  0.00  0.00    +0.172 C 
ENDROOT
BRANCH   3   7
ATOM      6 CL   UNL     1      29.694 -24.830 -12.281  0.00  0.00    -0.082 Cl
ATOM      7  C   UNL     1      32.352 -23.433 -15.647  0.00  0.00    +0.016 C 
ATOM      8  C   UNL     1      31.421 -24.449 -15.869  0.00  0.00    +0.002 C 
ATOM      9  C   UNL     1      32.460 -22.850 -14.385  0.00  0.00    +0.002 C 
ATOM     10  C   UNL     1      30.600 -24.881 -14.828  0.00  0.00    +0.011 C 
ATOM     11  C   UNL     1      31.638 -23.282 -13.344  0.00  0.00    +0.011 C 
ATOM     12  C   UNL     1      30.708 -24.297 -13.566  0.00  0.00    +0.058 C 
ENDBRANCH   3   7
BRANCH   1  13
ATOM     13  C   UNL     1      35.366 -23.595 -15.708  0.00  0.00    +0.074 C 
ATOM     14  C   UNL     1      35.393 -24.967 -15.496  0.00  0.00    +0.018 C 
ATOM     15  C   UNL     1      36.122 -22.735 -14.923  0.00  0.00    +0.018 C 
ATOM     16  C   UNL     1      36.959 -24.635 -13.685  0.00  0.00    +0.122 C 
ATOM     17  C   UNL     1      36.194 -25.488 -14.479  0.00  0.00    +0.021 C 
ATOM     18  C   UNL     1      36.923 -23.258 -13.907  0.00  0.00    +0.021 C 
BRANCH  16  19
ATOM     19  S   UNL     1      37.961 -25.288 -12.414  0.00  0.00    +0.057 S 
ATOM     20  O   UNL     1      38.518 -24.180 -11.651  0.00  0.00    -0.153 OA
ATOM     21  O   UNL     1      37.216 -26.335 -11.730  0.00  0.00    -0.153 OA
BRANCH  19  22
ATOM     22  N   UNL     1      39.212 -26.013 -13.327  0.00  0.00    -0.203 NA
ATOM     23  H   UNL     1      39.919 -25.312 -13.550  0.00  0.00    +0.144 HD
ATOM     24  H   UNL     1      38.826 -26.393 -14.190  0.00  0.00    +0.144 HD
ENDBRANCH  19  22
ENDBRANCH  16  19
ENDBRANCH   1  13
BRANCH   5  28
ATOM     25  F   UNL     1      34.794 -20.304 -19.835  0.00  0.00    -0.164 F 
ATOM     26  F   UNL     1      35.229 -22.270 -20.654  0.00  0.00    -0.164 F 
ATOM     27  F   UNL     1      33.179 -21.529 -20.638  0.00  0.00    -0.164 F 
ATOM     28  C   UNL     1      34.322 -21.585 -19.894  0.00  0.00    +0.436 C 
ENDBRANCH   5  28
TORSDOF 5
ENDMDL
MODEL 8
REMARK VINA RESULT:      -8.6      5.001      6.474
REMARK  Name = 9865808
REMARK  5 active torsions:
REMARK  status: ('A' for Active; 'I' for Inactive)
REMARK    1  A    between atoms: N_1  and  C_13
REMARK    2  A    between atoms: C_3  and  C_7
REMARK    3  A    between atoms: C_5  and  C_28
REMARK    4  A    between atoms: C_16  and  S_19
REMARK    5  A    between atoms: S_19  and  N_22
REMARK                            x       y       z     vdW  Elec       q    Type
REMARK                         _______ _______ _______ _____ _____    ______ ____
ROOT
ATOM      1  N   UNL     1      34.548 -23.842 -15.060  0.00  0.00    -0.190 N 
ATOM      2  N   UNL     1      34.993 -24.519 -13.989  0.00  0.00    -0.170 NA
ATOM      3  C   UNL     1      35.536 -23.449 -15.917  0.00  0.00    +0.075 C 
ATOM      4  C   UNL     1      36.711 -23.903 -15.363  0.00  0.00    +0.041 C 
ATOM      5  C   UNL     1      36.315 -24.553 -14.179  0.00  0.00    +0.172 C 
ENDROOT
BRANCH   3   7
ATOM      6 CL   UNL     1      34.642 -20.400 -20.951  0.00  0.00    -0.082 Cl
ATOM      7  C   UNL     1      35.319 -22.710 -17.137  0.00  0.00    +0.016 C 
ATOM      8  C   UNL     1      36.340 -21.917 -17.662  0.00  0.00    +0.002 C 
ATOM      9  C   UNL     1      34.089 -22.789 -17.791  0.00  0.00    +0.002 C 
ATOM     10  C   UNL     1      36.130 -21.203 -18.841  0.00  0.00    +0.011 C 
ATOM     11  C   UNL     1      33.880 -22.074 -18.970  0.00  0.00    +0.011 C 
ATOM     12  C   UNL     1      34.900 -21.281 -19.495  0.00  0.00    +0.058 C 
ENDBRANCH   3   7
BRANCH   1  13
ATOM     13  C   UNL     1      33.180 -23.606 -15.204  0.00  0.00    +0.074 C 
ATOM     14  C   UNL     1      32.539 -22.745 -14.323  0.00  0.00    +0.018 C 
ATOM     15  C   UNL     1      32.481 -24.235 -16.225  0.00  0.00    +0.018 C 
ATOM     16  C   UNL     1      30.458 -23.136 -15.488  0.00  0.00    +0.122 C 
ATOM     17  C   UNL     1      31.171 -22.510 -14.466  0.00  0.00    +0.021 C 
ATOM     18  C   UNL     1      31.113 -23.999 -16.367  0.00  0.00    +0.021 C 
BRANCH  16  19
ATOM     19  S   UNL     1      28.747 -22.841 -15.668  0.00  0.00    +0.057 S 
ATOM     20  O   UNL     1      28.036 -24.088 -15.418  0.00  0.00    -0.153 OA
ATOM     21  O   UNL     1      28.402 -21.647 -14.909  0.00  0.00    -0.153 OA
BRANCH  19  22
ATOM     22  N   UNL     1      28.653 -22.477 -17.335  0.00  0.00    -0.203 NA
ATOM     23  H   UNL     1      29.477 -22.846 -17.811  0.00  0.00    +0.144 HD
ATOM     24  H   UNL     1      28.612 -21.466 -17.460  0.00  0.00    +0.144 HD
ENDBRANCH  19  22
ENDBRANCH  16  19
ENDBRANCH   1  13
BRANCH   5  28
ATOM     25  F   UNL     1      36.484 -25.772 -12.150  0.00  0.00    -0.164 F 
ATOM     26  F   UNL     1      37.904 -26.258 -13.723  0.00  0.00    -0.164 F 
ATOM     27  F   UNL     1      38.089 -24.378 -12.636  0.00  0.00    -0.164 F 
ATOM     28  C   UNL     1      37.178 -25.228 -13.194  0.00  0.00    +0.436 C 
ENDBRANCH   5  28
TORSDOF 5
ENDMDL
MODEL 9
REMARK VINA RESULT:      -8.5      5.494      7.240
REMARK  Name = 9865808
REMARK  5 active torsions:
REMARK  status: ('A' for Active; 'I' for Inactive)
REMARK    1  A    between atoms: N_1  and  C_13
REMARK    2  A    between atoms: C_3  and  C_7
REMARK    3  A    between atoms: C_5  and  C_28
REMARK    4  A    between atoms: C_16  and  S_19
REMARK    5  A    between atoms: S_19  and  N_22
REMARK                            x       y       z     vdW  Elec       q    Type
REMARK                         _______ _______ _______ _____ _____    ______ ____
ROOT
ATOM      1  N   UNL     1      34.981 -22.592 -17.058  0.00  0.00    -0.190 N 
ATOM      2  N   UNL     1      34.888 -21.939 -18.228  0.00  0.00    -0.170 NA
ATOM      3  C   UNL     1      36.256 -22.696 -16.582  0.00  0.00    +0.075 C 
ATOM      4  C   UNL     1      37.052 -22.066 -17.509  0.00  0.00    +0.041 C 
ATOM      5  C   UNL     1      36.157 -21.620 -18.499  0.00  0.00    +0.172 C 
ENDROOT
BRANCH   3   7
ATOM      6 CL   UNL     1      37.760 -25.393 -11.492  0.00  0.00    -0.082 Cl
ATOM      7  C   UNL     1      36.621 -23.350 -15.349  0.00  0.00    +0.016 C 
ATOM      8  C   UNL     1      36.789 -22.599 -14.185  0.00  0.00    +0.002 C 
ATOM      9  C   UNL     1      36.805 -24.732 -15.320  0.00  0.00    +0.002 C 
ATOM     10  C   UNL     1      37.141 -23.231 -12.993  0.00  0.00    +0.011 C 
ATOM     11  C   UNL     1      37.158 -25.364 -14.127  0.00  0.00    +0.011 C 
ATOM     12  C   UNL     1      37.325 -24.614 -12.964  0.00  0.00    +0.058 C 
ENDBRANCH   3   7
BRANCH   1  13
ATOM     13  C   UNL     1      33.824 -23.087 -16.454  0.00  0.00    +0.074 C 
ATOM     14  C   UNL     1      32.633 -23.103 -17.168  0.00  0.00    +0.018 C 
ATOM     15  C   UNL     1      33.881 -23.556 -15.149  0.00  0.00    +0.018 C 
ATOM     16  C   UNL     1      31.522 -24.071 -15.253  0.00  0.00    +0.122 C 
ATOM     17  C   UNL     1      31.477 -23.597 -16.564  0.00  0.00    +0.021 C 
ATOM     18  C   UNL     1      32.724 -24.050 -14.545  0.00  0.00    +0.021 C 
BRANCH  16  19
ATOM     19  S   UNL     1      30.075 -24.690 -14.498  0.00  0.00    +0.057 S 
ATOM     20  O   UNL     1      28.987 -23.756 -14.753  0.00  0.00    -0.153 OA
ATOM     21  O   UNL     1      29.926 -26.092 -14.864  0.00  0.00    -0.153 OA
BRANCH  19  22
ATOM     22  N   UNL     1      30.505 -24.597 -12.846  0.00  0.00    -0.203 NA
ATOM     23  H   UNL     1      30.490 -25.531 -12.438  0.00  0.00    +0.144 HD
ATOM     24  H   UNL     1      29.839 -24.000 -12.356  0.00  0.00    +0.144 HD
ENDBRANCH  19  22
ENDBRANCH  16  19
ENDBRANCH   1  13
BRANCH   5  28
ATOM     25  F   UNL     1      37.226 -21.597 -20.618  0.00  0.00    -0.164 F 
ATOM     26  F   UNL     1      35.370 -20.480 -20.428  0.00  0.00    -0.164 F 
ATOM     27  F   UNL     1      37.187 -19.739 -19.478  0.00  0.00    -0.164 F 
ATOM     28  C   UNL     1      36.476 -20.876 -19.730  0.00  0.00    +0.436 C 
ENDBRANCH   5  28
TORSDOF 5
ENDMDL
