MODEL 1
REMARK VINA RESULT:      -8.0      0.000      0.000
REMARK  Name = 10230
REMARK  2 active torsions:
REMARK  status: ('A' for Active; 'I' for Inactive)
REMARK    1  A    between atoms: N_3  and  N_15
REMARK    2  A    between atoms: N_4  and  N_18
REMARK                            x       y       z     vdW  Elec       q    Type
REMARK                         _______ _______ _______ _____ _____    ______ ____
ROOT
ATOM      1  N   UNL     1      35.027 -17.193 -23.109  0.00  0.00    -0.131 NA
ATOM      2  N   UNL     1      34.517 -16.631 -24.237  0.00  0.00    -0.131 NA
ATOM      3  N   UNL     1      35.273 -17.285 -20.766  0.00  0.00    -0.266 N 
ATOM      4  N   UNL     1      33.209 -15.007 -25.338  0.00  0.00    -0.266 N 
ATOM      5  C   UNL     1      33.891 -15.553 -21.753  0.00  0.00    +0.037 A 
ATOM      6  C   UNL     1      33.365 -14.973 -22.917  0.00  0.00    +0.037 A 
ATOM      7  C   UNL     1      34.716 -16.661 -21.906  0.00  0.00    +0.163 A 
ATOM      8  C   UNL     1      33.711 -15.552 -24.133  0.00  0.00    +0.163 A 
ATOM      9  C   UNL     1      33.572 -15.006 -20.499  0.00  0.00    +0.003 C 
ATOM     10  C   UNL     1      32.526 -13.851 -22.817  0.00  0.00    +0.003 C 
ATOM     11  C   UNL     1      32.737 -13.890 -20.409  0.00  0.00    +0.000 C 
ATOM     12  C   UNL     1      32.216 -13.314 -21.566  0.00  0.00    +0.000 C 
ATOM     13  H   UNL     1      35.274 -16.804 -19.907  0.00  0.00    +0.168 HD
ATOM     14  H   UNL     1      32.445 -14.387 -25.304  0.00  0.00    +0.168 HD
ENDROOT
BRANCH   3  15
ATOM     15  N   UNL     1      35.814 -18.546 -20.827  0.00  0.00    -0.255 NA
ATOM     16  H   UNL     1      35.368 -19.070 -21.579  0.00  0.00    +0.140 HD
ATOM     17  H   UNL     1      35.658 -19.025 -19.940  0.00  0.00    +0.140 HD
ENDBRANCH   3  15
BRANCH   4  18
ATOM     18  N   UNL     1      33.762 -15.321 -26.555  0.00  0.00    -0.255 NA
ATOM     19  H   UNL     1      34.763 -15.128 -26.533  0.00  0.00    +0.140 HD
ATOM     20  H   UNL     1      33.323 -14.758 -27.283  0.00  0.00    +0.140 HD
ENDBRANCH   4  18
TORSDOF 2
ENDMDL
MODEL 2
REMARK VINA RESULT:      -8.0      0.034      3.752
REMARK  Name = 10230
REMARK  2 active torsions:
REMARK  status: ('A' for Active; 'I' for Inactive)
REMARK    1  A    between atoms: N_3  and  N_15
REMARK    2  A    between atoms: N_4  and  N_18
REMARK                            x       y       z     vdW  Elec       q    Type
REMARK                         _______ _______ _______ _____ _____    ______ ____
ROOT
ATOM      1  N   UNL     1      34.510 -16.597 -24.249  0.00  0.00    -0.131 NA
ATOM      2  N   UNL     1      35.015 -17.164 -23.121  0.00  0.00    -0.131 NA
ATOM      3  N   UNL     1      33.204 -14.970 -25.347  0.00  0.00    -0.266 N 
ATOM      4  N   UNL     1      35.250 -17.269 -20.777  0.00  0.00    -0.266 N 
ATOM      5  C   UNL     1      33.349 -14.948 -22.926  0.00  0.00    +0.037 A 
ATOM      6  C   UNL     1      33.870 -15.533 -21.762  0.00  0.00    +0.037 A 
ATOM      7  C   UNL     1      33.701 -15.520 -24.143  0.00  0.00    +0.163 A 
ATOM      8  C   UNL     1      34.698 -16.639 -21.917  0.00  0.00    +0.163 A 
ATOM      9  C   UNL     1      32.507 -13.828 -22.823  0.00  0.00    +0.003 C 
ATOM     10  C   UNL     1      33.544 -14.994 -20.507  0.00  0.00    +0.003 C 
ATOM     11  C   UNL     1      32.189 -13.299 -21.571  0.00  0.00    +0.000 C 
ATOM     12  C   UNL     1      32.706 -13.881 -20.415  0.00  0.00    +0.000 C 
ATOM     13  H   UNL     1      32.438 -14.352 -25.314  0.00  0.00    +0.168 HD
ATOM     14  H   UNL     1      35.246 -16.792 -19.915  0.00  0.00    +0.168 HD
ENDROOT
BRANCH   3  15
ATOM     15  N   UNL     1      33.763 -15.277 -26.563  0.00  0.00    -0.255 NA
ATOM     16  H   UNL     1      33.089 -15.797 -27.125  0.00  0.00    +0.140 HD
ATOM     17  H   UNL     1      34.597 -15.847 -26.419  0.00  0.00    +0.140 HD
ENDBRANCH   3  15
BRANCH   4  18
ATOM     18  N   UNL     1      35.792 -18.528 -20.842  0.00  0.00    -0.255 NA
ATOM     19  H   UNL     1      35.337 -19.130 -20.156  0.00  0.00    +0.140 HD
ATOM     20  H   UNL     1      36.791 -18.479 -20.642  0.00  0.00    +0.140 HD
ENDBRANCH   4  18
TORSDOF 2
ENDMDL
MODEL 3
REMARK VINA RESULT:      -7.9      8.905     11.176
REMARK  Name = 10230
REMARK  2 active torsions:
REMARK  status: ('A' for Active; 'I' for Inactive)
REMARK    1  A    between atoms: N_3  and  N_15
REMARK    2  A    between atoms: N_4  and  N_18
REMARK                            x       y       z     vdW  Elec       q    Type
REMARK                         _______ _______ _______ _____ _____    ______ ____
ROOT
ATOM      1  N   UNL     1      34.506 -23.375 -17.221  0.00  0.00    -0.131 NA
ATOM      2  N   UNL     1      34.980 -23.947 -16.082  0.00  0.00    -0.131 NA
ATOM      3  N   UNL     1      32.761 -22.438 -18.501  0.00  0.00    -0.266 N 
ATOM      4  N   UNL     1      34.683 -24.757 -13.888  0.00  0.00    -0.266 N 
ATOM      5  C   UNL     1      32.300 -23.230 -16.255  0.00  0.00    +0.037 A 
ATOM      6  C   UNL     1      32.790 -23.820 -15.079  0.00  0.00    +0.037 A 
ATOM      7  C   UNL     1      33.201 -23.030 -17.294  0.00  0.00    +0.163 A 
ATOM      8  C   UNL     1      34.138 -24.159 -15.047  0.00  0.00    +0.163 A 
ATOM      9  C   UNL     1      30.945 -22.868 -16.338  0.00  0.00    +0.003 C 
ATOM     10  C   UNL     1      31.920 -24.044 -14.000  0.00  0.00    +0.003 C 
ATOM     11  C   UNL     1      30.089 -23.094 -15.259  0.00  0.00    +0.000 C 
ATOM     12  C   UNL     1      30.575 -23.681 -14.093  0.00  0.00    +0.000 C 
ATOM     13  H   UNL     1      31.796 -22.393 -18.690  0.00  0.00    +0.168 HD
ATOM     14  H   UNL     1      34.182 -24.713 -13.042  0.00  0.00    +0.168 HD
ENDROOT
BRANCH   3  15
ATOM     15  N   UNL     1      33.647 -21.927 -19.417  0.00  0.00    -0.255 NA
ATOM     16  H   UNL     1      33.148 -21.328 -20.075  0.00  0.00    +0.140 HD
ATOM     17  H   UNL     1      34.090 -22.693 -19.924  0.00  0.00    +0.140 HD
ENDBRANCH   3  15
BRANCH   4  18
ATOM     18  N   UNL     1      35.897 -25.400 -13.912  0.00  0.00    -0.255 NA
ATOM     19  H   UNL     1      35.970 -25.954 -14.765  0.00  0.00    +0.140 HD
ATOM     20  H   UNL     1      35.974 -26.012 -13.100  0.00  0.00    +0.140 HD
ENDBRANCH   4  18
TORSDOF 2
ENDMDL
MODEL 4
REMARK VINA RESULT:      -7.9      8.910     10.539
REMARK  Name = 10230
REMARK  2 active torsions:
REMARK  status: ('A' for Active; 'I' for Inactive)
REMARK    1  A    between atoms: N_3  and  N_15
REMARK    2  A    between atoms: N_4  and  N_18
REMARK                            x       y       z     vdW  Elec       q    Type
REMARK                         _______ _______ _______ _____ _____    ______ ____
ROOT
ATOM      1  N   UNL     1      35.001 -23.964 -16.034  0.00  0.00    -0.131 NA
ATOM      2  N   UNL     1      34.543 -23.414 -17.190  0.00  0.00    -0.131 NA
ATOM      3  N   UNL     1      34.673 -24.726 -13.827  0.00  0.00    -0.266 N 
ATOM      4  N   UNL     1      32.819 -22.497 -18.512  0.00  0.00    -0.266 N 
ATOM      5  C   UNL     1      32.799 -23.806 -15.062  0.00  0.00    +0.037 A 
ATOM      6  C   UNL     1      32.327 -23.239 -16.256  0.00  0.00    +0.037 A 
ATOM      7  C   UNL     1      34.144 -24.150 -15.006  0.00  0.00    +0.163 A 
ATOM      8  C   UNL     1      33.242 -23.065 -17.288  0.00  0.00    +0.163 A 
ATOM      9  C   UNL     1      31.914 -24.004 -13.989  0.00  0.00    +0.003 C 
ATOM     10  C   UNL     1      30.974 -22.873 -16.364  0.00  0.00    +0.003 C 
ATOM     11  C   UNL     1      30.572 -23.637 -14.107  0.00  0.00    +0.000 C 
ATOM     12  C   UNL     1      30.103 -23.073 -15.291  0.00  0.00    +0.000 C 
ATOM     13  H   UNL     1      34.161 -24.661 -12.988  0.00  0.00    +0.168 HD
ATOM     14  H   UNL     1      31.857 -22.451 -18.714  0.00  0.00    +0.168 HD
ENDROOT
BRANCH   3  15
ATOM     15  N   UNL     1      35.884 -25.373 -13.822  0.00  0.00    -0.255 NA
ATOM     16  H   UNL     1      36.256 -25.403 -14.771  0.00  0.00    +0.140 HD
ATOM     17  H   UNL     1      35.759 -26.325 -13.476  0.00  0.00    +0.140 HD
ENDBRANCH   3  15
BRANCH   4  18
ATOM     18  N   UNL     1      33.719 -22.008 -19.427  0.00  0.00    -0.255 NA
ATOM     19  H   UNL     1      34.459 -22.694 -19.576  0.00  0.00    +0.140 HD
ATOM     20  H   UNL     1      34.125 -21.142 -19.075  0.00  0.00    +0.140 HD
ENDBRANCH   4  18
TORSDOF 2
ENDMDL
MODEL 5
REMARK VINA RESULT:      -7.8     12.119     13.570
REMARK  Name = 10230
REMARK  2 active torsions:
REMARK  status: ('A' for Active; 'I' for Inactive)
REMARK    1  A    between atoms: N_3  and  N_15
REMARK    2  A    between atoms: N_4  and  N_18
REMARK                            x       y       z     vdW  Elec       q    Type
REMARK                         _______ _______ _______ _____ _____    ______ ____
ROOT
ATOM      1  N   UNL     1      37.608 -25.619 -11.980  0.00  0.00    -0.131 NA
ATOM      2  N   UNL     1      38.662 -25.940 -12.776  0.00  0.00    -0.131 NA
ATOM      3  N   UNL     1      35.641 -24.397 -11.533  0.00  0.00    -0.266 N 
ATOM      4  N   UNL     1      39.913 -25.699 -14.761  0.00  0.00    -0.266 N 
ATOM      5  C   UNL     1      36.820 -24.039 -13.623  0.00  0.00    +0.037 A 
ATOM      6  C   UNL     1      37.908 -24.371 -14.445  0.00  0.00    +0.037 A 
ATOM      7  C   UNL     1      36.719 -24.693 -12.401  0.00  0.00    +0.163 A 
ATOM      8  C   UNL     1      38.798 -25.327 -13.973  0.00  0.00    +0.163 A 
ATOM      9  C   UNL     1      35.890 -23.078 -14.055  0.00  0.00    +0.003 C 
ATOM     10  C   UNL     1      38.056 -23.737 -15.691  0.00  0.00    +0.003 C 
ATOM     11  C   UNL     1      36.047 -22.454 -15.294  0.00  0.00    +0.000 C 
ATOM     12  C   UNL     1      37.127 -22.783 -16.110  0.00  0.00    +0.000 C 
ATOM     13  H   UNL     1      35.115 -23.578 -11.682  0.00  0.00    +0.168 HD
ATOM     14  H   UNL     1      39.924 -25.466 -15.717  0.00  0.00    +0.168 HD
ENDROOT
BRANCH   3  15
ATOM     15  N   UNL     1      35.312 -25.223 -10.487  0.00  0.00    -0.255 NA
ATOM     16  H   UNL     1      34.298 -25.325 -10.441  0.00  0.00    +0.140 HD
ATOM     17  H   UNL     1      35.652 -24.819  -9.615  0.00  0.00    +0.140 HD
ENDBRANCH   3  15
BRANCH   4  18
ATOM     18  N   UNL     1      40.980 -26.376 -14.224  0.00  0.00    -0.255 NA
ATOM     19  H   UNL     1      41.477 -25.767 -13.575  0.00  0.00    +0.140 HD
ATOM     20  H   UNL     1      41.611 -26.664 -14.972  0.00  0.00    +0.140 HD
ENDBRANCH   4  18
TORSDOF 2
ENDMDL
MODEL 6
REMARK VINA RESULT:      -7.8     12.122     13.624
REMARK  Name = 10230
REMARK  2 active torsions:
REMARK  status: ('A' for Active; 'I' for Inactive)
REMARK    1  A    between atoms: N_3  and  N_15
REMARK    2  A    between atoms: N_4  and  N_18
REMARK                            x       y       z     vdW  Elec       q    Type
REMARK                         _______ _______ _______ _____ _____    ______ ____
ROOT
ATOM      1  N   UNL     1      38.652 -25.954 -12.783  0.00  0.00    -0.131 NA
ATOM      2  N   UNL     1      37.597 -25.626 -11.990  0.00  0.00    -0.131 NA
ATOM      3  N   UNL     1      39.913 -25.717 -14.761  0.00  0.00    -0.266 N 
ATOM      4  N   UNL     1      35.638 -24.389 -11.549  0.00  0.00    -0.266 N 
ATOM      5  C   UNL     1      37.918 -24.373 -14.451  0.00  0.00    +0.037 A 
ATOM      6  C   UNL     1      36.829 -24.034 -13.632  0.00  0.00    +0.037 A 
ATOM      7  C   UNL     1      38.799 -25.338 -13.977  0.00  0.00    +0.163 A 
ATOM      8  C   UNL     1      36.717 -24.692 -12.413  0.00  0.00    +0.163 A 
ATOM      9  C   UNL     1      38.078 -23.737 -15.693  0.00  0.00    +0.003 C 
ATOM     10  C   UNL     1      35.910 -23.064 -14.065  0.00  0.00    +0.003 C 
ATOM     11  C   UNL     1      37.158 -22.774 -16.114  0.00  0.00    +0.000 C 
ATOM     12  C   UNL     1      36.077 -22.439 -15.302  0.00  0.00    +0.000 C 
ATOM     13  H   UNL     1      39.931 -25.482 -15.717  0.00  0.00    +0.168 HD
ATOM     14  H   UNL     1      35.119 -23.566 -11.698  0.00  0.00    +0.168 HD
ENDROOT
BRANCH   3  15
ATOM     15  N   UNL     1      40.972 -26.406 -14.222  0.00  0.00    -0.255 NA
ATOM     16  H   UNL     1      40.922 -27.384 -14.508  0.00  0.00    +0.140 HD
ATOM     17  H   UNL     1      40.932 -26.347 -13.205  0.00  0.00    +0.140 HD
ENDBRANCH   3  15
BRANCH   4  18
ATOM     18  N   UNL     1      35.296 -25.216 -10.508  0.00  0.00    -0.255 NA
ATOM     19  H   UNL     1      35.257 -24.676  -9.644  0.00  0.00    +0.140 HD
ATOM     20  H   UNL     1      35.995 -25.954 -10.416  0.00  0.00    +0.140 HD
ENDBRANCH   4  18
TORSDOF 2
ENDMDL
MODEL 7
REMARK VINA RESULT:      -7.7      1.810      2.421
REMARK  Name = 10230
REMARK  2 active torsions:
REMARK  status: ('A' for Active; 'I' for Inactive)
REMARK    1  A    between atoms: N_3  and  N_15
REMARK    2  A    between atoms: N_4  and  N_18
REMARK                            x       y       z     vdW  Elec       q    Type
REMARK                         _______ _______ _______ _____ _____    ______ ____
ROOT
ATOM      1  N   UNL     1      34.305 -17.321 -25.562  0.00  0.00    -0.131 NA
ATOM      2  N   UNL     1      33.842 -16.091 -25.909  0.00  0.00    -0.131 NA
ATOM      3  N   UNL     1      35.105 -18.863 -23.967  0.00  0.00    -0.266 N 
ATOM      4  N   UNL     1      33.230 -13.877 -25.375  0.00  0.00    -0.266 N 
ATOM      5  C   UNL     1      34.514 -16.617 -23.264  0.00  0.00    +0.037 A 
ATOM      6  C   UNL     1      34.036 -15.347 -23.623  0.00  0.00    +0.037 A 
ATOM      7  C   UNL     1      34.629 -17.566 -24.273  0.00  0.00    +0.163 A 
ATOM      8  C   UNL     1      33.715 -15.139 -24.959  0.00  0.00    +0.163 A 
ATOM      9  C   UNL     1      34.852 -16.880 -21.926  0.00  0.00    +0.003 C 
ATOM     10  C   UNL     1      33.902 -14.353 -22.640  0.00  0.00    +0.003 C 
ATOM     11  C   UNL     1      34.716 -15.884 -20.957  0.00  0.00    +0.000 C 
ATOM     12  C   UNL     1      34.242 -14.623 -21.313  0.00  0.00    +0.000 C 
ATOM     13  H   UNL     1      35.571 -19.014 -23.113  0.00  0.00    +0.168 HD
ATOM     14  H   UNL     1      32.899 -13.242 -24.700  0.00  0.00    +0.168 HD
ENDROOT
BRANCH   3  15
ATOM     15  N   UNL     1      34.935 -19.915 -24.832  0.00  0.00    -0.255 NA
ATOM     16  H   UNL     1      35.844 -20.316 -25.062  0.00  0.00    +0.140 HD
ATOM     17  H   UNL     1      34.485 -19.583 -25.685  0.00  0.00    +0.140 HD
ENDBRANCH   3  15
BRANCH   4  18
ATOM     18  N   UNL     1      33.209 -13.515 -26.700  0.00  0.00    -0.255 NA
ATOM     19  H   UNL     1      32.271 -13.656 -27.075  0.00  0.00    +0.140 HD
ATOM     20  H   UNL     1      33.873 -14.089 -27.220  0.00  0.00    +0.140 HD
ENDBRANCH   4  18
TORSDOF 2
ENDMDL
MODEL 8
REMARK VINA RESULT:      -7.7      1.817      4.016
REMARK  Name = 10230
REMARK  2 active torsions:
REMARK  status: ('A' for Active; 'I' for Inactive)
REMARK    1  A    between atoms: N_3  and  N_15
REMARK    2  A    between atoms: N_4  and  N_18
REMARK                            x       y       z     vdW  Elec       q    Type
REMARK                         _______ _______ _______ _____ _____    ______ ____
ROOT
ATOM      1  N   UNL     1      33.843 -16.122 -25.924  0.00  0.00    -0.131 NA
ATOM      2  N   UNL     1      34.308 -17.350 -25.572  0.00  0.00    -0.131 NA
ATOM      3  N   UNL     1      33.229 -13.907 -25.399  0.00  0.00    -0.266 N 
ATOM      4  N   UNL     1      35.113 -18.884 -23.971  0.00  0.00    -0.266 N 
ATOM      5  C   UNL     1      34.040 -15.369 -23.641  0.00  0.00    +0.037 A 
ATOM      6  C   UNL     1      34.520 -16.637 -23.277  0.00  0.00    +0.037 A 
ATOM      7  C   UNL     1      33.717 -15.166 -24.977  0.00  0.00    +0.163 A 
ATOM      8  C   UNL     1      34.634 -17.590 -24.282  0.00  0.00    +0.163 A 
ATOM      9  C   UNL     1      33.906 -14.370 -22.662  0.00  0.00    +0.003 C 
ATOM     10  C   UNL     1      34.861 -16.893 -21.939  0.00  0.00    +0.003 C 
ATOM     11  C   UNL     1      34.247 -14.635 -21.335  0.00  0.00    +0.000 C 
ATOM     12  C   UNL     1      34.723 -15.893 -20.974  0.00  0.00    +0.000 C 
ATOM     13  H   UNL     1      32.897 -13.270 -24.725  0.00  0.00    +0.168 HD
ATOM     14  H   UNL     1      35.579 -19.032 -23.117  0.00  0.00    +0.168 HD
ENDROOT
BRANCH   3  15
ATOM     15  N   UNL     1      33.204 -13.552 -26.724  0.00  0.00    -0.255 NA
ATOM     16  H   UNL     1      33.019 -14.377 -27.294  0.00  0.00    +0.140 HD
ATOM     17  H   UNL     1      34.106 -13.154 -26.986  0.00  0.00    +0.140 HD
ENDBRANCH   3  15
BRANCH   4  18
ATOM     18  N   UNL     1      34.941 -19.941 -24.832  0.00  0.00    -0.255 NA
ATOM     19  H   UNL     1      34.109 -20.465 -24.564  0.00  0.00    +0.140 HD
ATOM     20  H   UNL     1      35.757 -20.551 -24.787  0.00  0.00    +0.140 HD
ENDBRANCH   4  18
TORSDOF 2
ENDMDL
MODEL 9
REMARK VINA RESULT:      -7.6     10.582     12.739
REMARK  Name = 10230
REMARK  2 active torsions:
REMARK  status: ('A' for Active; 'I' for Inactive)
REMARK    1  A    between atoms: N_3  and  N_15
REMARK    2  A    between atoms: N_4  and  N_18
REMARK                            x       y       z     vdW  Elec       q    Type
REMARK                         _______ _______ _______ _____ _____    ______ ____
ROOT
ATOM      1  N   UNL     1      39.443 -24.390 -15.318  0.00  0.00    -0.131 NA
ATOM      2  N   UNL     1      38.672 -23.402 -15.844  0.00  0.00    -0.131 NA
ATOM      3  N   UNL     1      39.856 -26.067 -13.713  0.00  0.00    -0.266 N 
ATOM      4  N   UNL     1      36.731 -22.063 -15.846  0.00  0.00    -0.266 N 
ATOM      5  C   UNL     1      37.811 -24.771 -13.583  0.00  0.00    +0.037 A 
ATOM      6  C   UNL     1      37.014 -23.751 -14.127  0.00  0.00    +0.037 A 
ATOM      7  C   UNL     1      39.015 -25.049 -14.219  0.00  0.00    +0.163 A 
ATOM      8  C   UNL     1      37.493 -23.099 -15.258  0.00  0.00    +0.163 A 
ATOM      9  C   UNL     1      37.372 -25.461 -12.441  0.00  0.00    +0.003 C 
ATOM     10  C   UNL     1      35.787 -23.430 -13.522  0.00  0.00    +0.003 C 
ATOM     11  C   UNL     1      36.151 -25.134 -11.847  0.00  0.00    +0.000 C 
ATOM     12  C   UNL     1      35.361 -24.121 -12.387  0.00  0.00    +0.000 C 
ATOM     13  H   UNL     1      39.710 -26.403 -12.799  0.00  0.00    +0.168 HD
ATOM     14  H   UNL     1      35.780 -21.970 -15.608  0.00  0.00    +0.168 HD
ENDROOT
BRANCH   3  15
ATOM     15  N   UNL     1      40.875 -26.599 -14.465  0.00  0.00    -0.255 NA
ATOM     16  H   UNL     1      41.438 -25.844 -14.857  0.00  0.00    +0.140 HD
ATOM     17  H   UNL     1      40.481 -27.157 -15.223  0.00  0.00    +0.140 HD
ENDBRANCH   3  15
BRANCH   4  18
ATOM     18  N   UNL     1      37.284 -21.182 -16.742  0.00  0.00    -0.255 NA
ATOM     19  H   UNL     1      37.225 -21.571 -17.682  0.00  0.00    +0.140 HD
ATOM     20  H   UNL     1      38.263 -21.022 -16.501  0.00  0.00    +0.140 HD
ENDBRANCH   4  18
TORSDOF 2
ENDMDL
