MODEL 1
REMARK VINA RESULT:      -8.2      0.000      0.000
REMARK  Name = 5597
REMARK  5 active torsions:
REMARK  status: ('A' for Active; 'I' for Inactive)
REMARK    1  A    between atoms: N_2  and  C_6
REMARK    2  A    between atoms: C_3  and  C_13
REMARK    3  A    between atoms: C_16  and  O_19
REMARK    4  A    between atoms: C_17  and  O_21
REMARK    5  A    between atoms: C_18  and  O_23
REMARK                            x       y       z     vdW  Elec       q    Type
REMARK                         _______ _______ _______ _____ _____    ______ ____
ROOT
ATOM      1  O   UNL     1      32.410 -20.479 -20.926  0.00  0.00    -0.270 OA
ATOM      2  N   UNL     1      34.515 -19.507 -20.855  0.00  0.00    -0.305 N 
ATOM      3  C   UNL     1      33.540 -20.409 -20.451  0.00  0.00    +0.246 C 
ATOM      4  H   UNL     1      35.393 -19.529 -20.411  0.00  0.00    +0.150 HD
ENDROOT
BRANCH   2   6
ATOM      5  N   UNL     1      34.478 -16.142 -22.488  0.00  0.00    +0.385 N 
ATOM      6  C   UNL     1      34.289 -18.540 -21.901  0.00  0.00    +0.051 C 
ATOM      7  C   UNL     1      35.055 -18.923 -23.170  0.00  0.00    +0.015 C 
ATOM      8  C   UNL     1      34.905 -17.839 -24.233  0.00  0.00    -0.022 C 
ATOM      9  C   UNL     1      34.675 -17.135 -21.430  0.00  0.00    -0.062 C 
ATOM     10  C   UNL     1      35.267 -16.464 -23.677  0.00  0.00    -0.082 C 
ATOM     11  H   UNL     1      34.762 -15.227 -22.139  0.00  0.00    -0.084 HD
ATOM     12  H   UNL     1      33.492 -16.141 -22.747  0.00  0.00    -0.084 HD
ENDBRANCH   2   6
BRANCH   3  13
ATOM     13  C   UNL     1      33.920 -21.322 -19.343  0.00  0.00    +0.060 C 
ATOM     14  C   UNL     1      35.248 -21.417 -18.984  0.00  0.00    +0.045 C 
ATOM     15  C   UNL     1      32.932 -22.047 -18.708  0.00  0.00    +0.045 C 
ATOM     16  C   UNL     1      33.289 -22.906 -17.669  0.00  0.00    +0.176 C 
ATOM     17  C   UNL     1      35.605 -22.276 -17.944  0.00  0.00    +0.176 C 
ATOM     18  C   UNL     1      34.625 -23.019 -17.286  0.00  0.00    +0.206 C 
BRANCH  16  19
ATOM     19  O   UNL     1      32.322 -23.628 -17.036  0.00  0.00    -0.468 OA
ATOM     20  C   UNL     1      31.226 -22.901 -16.486  0.00  0.00    +0.253 C 
ENDBRANCH  16  19
BRANCH  17  21
ATOM     21  O   UNL     1      36.914 -22.379 -17.579  0.00  0.00    -0.468 OA
ATOM     22  C   UNL     1      37.404 -21.415 -16.649  0.00  0.00    +0.253 C 
ENDBRANCH  17  21
BRANCH  18  23
ATOM     23  O   UNL     1      34.974 -23.859 -16.270  0.00  0.00    -0.465 OA
ATOM     24  C   UNL     1      34.842 -23.358 -14.942  0.00  0.00    +0.253 C 
ENDBRANCH  18  23
ENDBRANCH   3  13
TORSDOF 5
ENDMDL
MODEL 2
REMARK VINA RESULT:      -8.2      0.078      2.671
REMARK  Name = 5597
REMARK  5 active torsions:
REMARK  status: ('A' for Active; 'I' for Inactive)
REMARK    1  A    between atoms: N_2  and  C_6
REMARK    2  A    between atoms: C_3  and  C_13
REMARK    3  A    between atoms: C_16  and  O_19
REMARK    4  A    between atoms: C_17  and  O_21
REMARK    5  A    between atoms: C_18  and  O_23
REMARK                            x       y       z     vdW  Elec       q    Type
REMARK                         _______ _______ _______ _____ _____    ______ ____
ROOT
ATOM      1  O   UNL     1      32.396 -20.428 -20.927  0.00  0.00    -0.270 OA
ATOM      2  N   UNL     1      34.530 -19.518 -20.908  0.00  0.00    -0.305 N 
ATOM      3  C   UNL     1      33.538 -20.388 -20.478  0.00  0.00    +0.246 C 
ATOM      4  H   UNL     1      35.417 -19.563 -20.484  0.00  0.00    +0.150 HD
ENDROOT
BRANCH   2   6
ATOM      5  N   UNL     1      34.604 -16.171 -22.578  0.00  0.00    +0.385 N 
ATOM      6  C   UNL     1      34.309 -18.549 -21.954  0.00  0.00    +0.051 C 
ATOM      7  C   UNL     1      34.991 -18.987 -23.253  0.00  0.00    +0.015 C 
ATOM      8  C   UNL     1      34.851 -17.907 -24.321  0.00  0.00    -0.022 C 
ATOM      9  C   UNL     1      34.795 -17.164 -21.519  0.00  0.00    -0.062 C 
ATOM     10  C   UNL     1      35.316 -16.549 -23.799  0.00  0.00    -0.082 C 
ATOM     11  H   UNL     1      34.955 -15.270 -22.254  0.00  0.00    -0.084 HD
ATOM     12  H   UNL     1      33.608 -16.118 -22.791  0.00  0.00    -0.084 HD
ENDBRANCH   2   6
BRANCH   3  13
ATOM     13  C   UNL     1      33.917 -21.307 -19.373  0.00  0.00    +0.060 C 
ATOM     14  C   UNL     1      32.929 -22.037 -18.745  0.00  0.00    +0.045 C 
ATOM     15  C   UNL     1      35.245 -21.400 -19.009  0.00  0.00    +0.045 C 
ATOM     16  C   UNL     1      35.601 -22.261 -17.971  0.00  0.00    +0.176 C 
ATOM     17  C   UNL     1      33.285 -22.898 -17.708  0.00  0.00    +0.176 C 
ATOM     18  C   UNL     1      34.621 -23.011 -17.321  0.00  0.00    +0.206 C 
BRANCH  16  19
ATOM     19  O   UNL     1      36.909 -22.359 -17.602  0.00  0.00    -0.468 OA
ATOM     20  C   UNL     1      37.397 -21.386 -16.682  0.00  0.00    +0.253 C 
ENDBRANCH  16  19
BRANCH  17  21
ATOM     21  O   UNL     1      32.319 -23.626 -17.079  0.00  0.00    -0.468 OA
ATOM     22  C   UNL     1      31.255 -22.899 -16.469  0.00  0.00    +0.253 C 
ENDBRANCH  17  21
BRANCH  18  23
ATOM     23  O   UNL     1      34.969 -23.852 -16.306  0.00  0.00    -0.465 OA
ATOM     24  C   UNL     1      34.859 -23.343 -14.979  0.00  0.00    +0.253 C 
ENDBRANCH  18  23
ENDBRANCH   3  13
TORSDOF 5
ENDMDL
MODEL 3
REMARK VINA RESULT:      -8.0      6.543     10.837
REMARK  Name = 5597
REMARK  5 active torsions:
REMARK  status: ('A' for Active; 'I' for Inactive)
REMARK    1  A    between atoms: N_2  and  C_6
REMARK    2  A    between atoms: C_3  and  C_13
REMARK    3  A    between atoms: C_16  and  O_19
REMARK    4  A    between atoms: C_17  and  O_21
REMARK    5  A    between atoms: C_18  and  O_23
REMARK                            x       y       z     vdW  Elec       q    Type
REMARK                         _______ _______ _______ _____ _____    ______ ____
ROOT
ATOM      1  O   UNL     1      32.698 -14.198 -24.402  0.00  0.00    -0.270 OA
ATOM      2  N   UNL     1      33.528 -14.635 -22.280  0.00  0.00    -0.305 N 
ATOM      3  C   UNL     1      32.939 -13.840 -23.252  0.00  0.00    +0.246 C 
ATOM      4  H   UNL     1      33.679 -14.255 -21.385  0.00  0.00    +0.150 HD
ENDROOT
BRANCH   2   6
ATOM      5  N   UNL     1      35.598 -17.419 -23.680  0.00  0.00    +0.385 N 
ATOM      6  C   UNL     1      33.926 -15.999 -22.532  0.00  0.00    +0.051 C 
ATOM      7  C   UNL     1      34.178 -16.743 -21.218  0.00  0.00    +0.015 C 
ATOM      8  C   UNL     1      34.708 -18.148 -21.492  0.00  0.00    -0.022 C 
ATOM      9  C   UNL     1      35.163 -16.043 -23.434  0.00  0.00    -0.062 C 
ATOM     10  C   UNL     1      35.913 -18.111 -22.430  0.00  0.00    -0.082 C 
ATOM     11  H   UNL     1      36.431 -17.402 -24.268  0.00  0.00    -0.084 HD
ATOM     12  H   UNL     1      34.838 -17.918 -24.141  0.00  0.00    -0.084 HD
ENDBRANCH   2   6
BRANCH   3  13
ATOM     13  C   UNL     1      32.612 -12.450 -22.842  0.00  0.00    +0.060 C 
ATOM     14  C   UNL     1      31.829 -12.251 -21.723  0.00  0.00    +0.045 C 
ATOM     15  C   UNL     1      33.101 -11.401 -23.594  0.00  0.00    +0.045 C 
ATOM     16  C   UNL     1      32.793 -10.096 -23.210  0.00  0.00    +0.176 C 
ATOM     17  C   UNL     1      31.522 -10.946 -21.339  0.00  0.00    +0.176 C 
ATOM     18  C   UNL     1      32.005  -9.868 -22.082  0.00  0.00    +0.206 C 
BRANCH  16  19
ATOM     19  O   UNL     1      33.269  -9.052 -23.945  0.00  0.00    -0.468 OA
ATOM     20  C   UNL     1      34.682  -8.858 -23.956  0.00  0.00    +0.253 C 
ENDBRANCH  16  19
BRANCH  17  21
ATOM     21  O   UNL     1      30.750 -10.737 -20.236  0.00  0.00    -0.468 OA
ATOM     22  C   UNL     1      31.385 -10.870 -18.967  0.00  0.00    +0.253 C 
ENDBRANCH  17  21
BRANCH  18  23
ATOM     23  O   UNL     1      31.703  -8.593 -21.707  0.00  0.00    -0.465 OA
ATOM     24  C   UNL     1      32.641  -7.928 -20.864  0.00  0.00    +0.253 C 
ENDBRANCH  18  23
ENDBRANCH   3  13
TORSDOF 5
ENDMDL
MODEL 4
REMARK VINA RESULT:      -8.0      6.540     10.627
REMARK  Name = 5597
REMARK  5 active torsions:
REMARK  status: ('A' for Active; 'I' for Inactive)
REMARK    1  A    between atoms: N_2  and  C_6
REMARK    2  A    between atoms: C_3  and  C_13
REMARK    3  A    between atoms: C_16  and  O_19
REMARK    4  A    between atoms: C_17  and  O_21
REMARK    5  A    between atoms: C_18  and  O_23
REMARK                            x       y       z     vdW  Elec       q    Type
REMARK                         _______ _______ _______ _____ _____    ______ ____
ROOT
ATOM      1  O   UNL     1      32.741 -14.189 -24.431  0.00  0.00    -0.270 OA
ATOM      2  N   UNL     1      33.525 -14.639 -22.295  0.00  0.00    -0.305 N 
ATOM      3  C   UNL     1      32.959 -13.836 -23.275  0.00  0.00    +0.246 C 
ATOM      4  H   UNL     1      33.659 -14.264 -21.395  0.00  0.00    +0.150 HD
ENDROOT
BRANCH   2   6
ATOM      5  N   UNL     1      35.587 -17.423 -23.705  0.00  0.00    +0.385 N 
ATOM      6  C   UNL     1      33.924 -16.003 -22.545  0.00  0.00    +0.051 C 
ATOM      7  C   UNL     1      34.192 -16.741 -21.231  0.00  0.00    +0.015 C 
ATOM      8  C   UNL     1      34.721 -18.145 -21.505  0.00  0.00    -0.022 C 
ATOM      9  C   UNL     1      35.151 -16.048 -23.459  0.00  0.00    -0.062 C 
ATOM     10  C   UNL     1      35.916 -18.110 -22.455  0.00  0.00    -0.082 C 
ATOM     11  H   UNL     1      36.414 -17.407 -24.302  0.00  0.00    -0.084 HD
ATOM     12  H   UNL     1      34.823 -17.926 -24.156  0.00  0.00    -0.084 HD
ENDBRANCH   2   6
BRANCH   3  13
ATOM     13  C   UNL     1      32.628 -12.447 -22.864  0.00  0.00    +0.060 C 
ATOM     14  C   UNL     1      33.122 -11.397 -23.610  0.00  0.00    +0.045 C 
ATOM     15  C   UNL     1      31.839 -12.252 -21.749  0.00  0.00    +0.045 C 
ATOM     16  C   UNL     1      31.530 -10.948 -21.362  0.00  0.00    +0.176 C 
ATOM     17  C   UNL     1      32.813 -10.093 -23.223  0.00  0.00    +0.176 C 
ATOM     18  C   UNL     1      32.016  -9.869 -22.100  0.00  0.00    +0.206 C 
BRANCH  16  19
ATOM     19  O   UNL     1      30.752 -10.743 -20.263  0.00  0.00    -0.468 OA
ATOM     20  C   UNL     1      31.382 -10.876 -18.990  0.00  0.00    +0.253 C 
ENDBRANCH  16  19
BRANCH  17  21
ATOM     21  O   UNL     1      33.294  -9.046 -23.951  0.00  0.00    -0.468 OA
ATOM     22  C   UNL     1      34.709  -8.875 -23.981  0.00  0.00    +0.253 C 
ENDBRANCH  17  21
BRANCH  18  23
ATOM     23  O   UNL     1      31.714  -8.594 -21.721  0.00  0.00    -0.465 OA
ATOM     24  C   UNL     1      32.644  -7.938 -20.863  0.00  0.00    +0.253 C 
ENDBRANCH  18  23
ENDBRANCH   3  13
TORSDOF 5
ENDMDL
MODEL 5
REMARK VINA RESULT:      -7.9      3.574      7.588
REMARK  Name = 5597
REMARK  5 active torsions:
REMARK  status: ('A' for Active; 'I' for Inactive)
REMARK    1  A    between atoms: N_2  and  C_6
REMARK    2  A    between atoms: C_3  and  C_13
REMARK    3  A    between atoms: C_16  and  O_19
REMARK    4  A    between atoms: C_17  and  O_21
REMARK    5  A    between atoms: C_18  and  O_23
REMARK                            x       y       z     vdW  Elec       q    Type
REMARK                         _______ _______ _______ _____ _____    ______ ____
ROOT
ATOM      1  O   UNL     1      37.838 -21.807 -16.309  0.00  0.00    -0.270 OA
ATOM      2  N   UNL     1      36.565 -23.578 -15.519  0.00  0.00    -0.305 N 
ATOM      3  C   UNL     1      36.844 -22.524 -16.378  0.00  0.00    +0.246 C 
ATOM      4  H   UNL     1      35.739 -24.095 -15.657  0.00  0.00    +0.150 HD
ENDROOT
BRANCH   2   6
ATOM      5  N   UNL     1      37.532 -24.414 -12.003  0.00  0.00    +0.385 N 
ATOM      6  C   UNL     1      37.441 -23.944 -14.433  0.00  0.00    +0.051 C 
ATOM      7  C   UNL     1      38.148 -25.270 -14.727  0.00  0.00    +0.015 C 
ATOM      8  C   UNL     1      38.983 -25.708 -13.529  0.00  0.00    -0.022 C 
ATOM      9  C   UNL     1      36.665 -24.018 -13.114  0.00  0.00    -0.062 C 
ATOM     10  C   UNL     1      38.152 -25.716 -12.248  0.00  0.00    -0.082 C 
ATOM     11  H   UNL     1      36.974 -24.466 -11.151  0.00  0.00    -0.084 HD
ATOM     12  H   UNL     1      38.272 -23.718 -11.910  0.00  0.00    -0.084 HD
ENDBRANCH   2   6
BRANCH   3  13
ATOM     13  C   UNL     1      35.828 -22.258 -17.429  0.00  0.00    +0.060 C 
ATOM     14  C   UNL     1      36.217 -21.607 -18.581  0.00  0.00    +0.045 C 
ATOM     15  C   UNL     1      34.528 -22.672 -17.219  0.00  0.00    +0.045 C 
ATOM     16  C   UNL     1      33.574 -22.421 -18.205  0.00  0.00    +0.176 C 
ATOM     17  C   UNL     1      35.263 -21.356 -19.567  0.00  0.00    +0.176 C 
ATOM     18  C   UNL     1      33.942 -21.764 -19.380  0.00  0.00    +0.206 C 
BRANCH  16  19
ATOM     19  O   UNL     1      32.287 -22.823 -18.009  0.00  0.00    -0.468 OA
ATOM     20  C   UNL     1      31.913 -23.170 -16.677  0.00  0.00    +0.253 C 
ENDBRANCH  16  19
BRANCH  17  21
ATOM     21  O   UNL     1      35.633 -20.713 -20.710  0.00  0.00    -0.468 OA
ATOM     22  C   UNL     1      36.520 -19.605 -20.572  0.00  0.00    +0.253 C 
ENDBRANCH  17  21
BRANCH  18  23
ATOM     23  O   UNL     1      33.009 -21.519 -20.343  0.00  0.00    -0.465 OA
ATOM     24  C   UNL     1      32.636 -20.158 -20.550  0.00  0.00    +0.253 C 
ENDBRANCH  18  23
ENDBRANCH   3  13
TORSDOF 5
ENDMDL
MODEL 6
REMARK VINA RESULT:      -7.9      3.568      7.988
REMARK  Name = 5597
REMARK  5 active torsions:
REMARK  status: ('A' for Active; 'I' for Inactive)
REMARK    1  A    between atoms: N_2  and  C_6
REMARK    2  A    between atoms: C_3  and  C_13
REMARK    3  A    between atoms: C_16  and  O_19
REMARK    4  A    between atoms: C_17  and  O_21
REMARK    5  A    between atoms: C_18  and  O_23
REMARK                            x       y       z     vdW  Elec       q    Type
REMARK                         _______ _______ _______ _____ _____    ______ ____
ROOT
ATOM      1  O   UNL     1      37.806 -21.959 -16.343  0.00  0.00    -0.270 OA
ATOM      2  N   UNL     1      36.405 -23.577 -15.448  0.00  0.00    -0.305 N 
ATOM      3  C   UNL     1      36.757 -22.597 -16.365  0.00  0.00    +0.246 C 
ATOM      4  H   UNL     1      35.539 -24.033 -15.551  0.00  0.00    +0.150 HD
ENDROOT
BRANCH   2   6
ATOM      5  N   UNL     1      37.284 -24.704 -11.991  0.00  0.00    +0.385 N 
ATOM      6  C   UNL     1      37.262 -23.953 -14.350  0.00  0.00    +0.051 C 
ATOM      7  C   UNL     1      38.167 -25.124 -14.743  0.00  0.00    +0.015 C 
ATOM      8  C   UNL     1      38.989 -25.591 -13.546  0.00  0.00    -0.022 C 
ATOM      9  C   UNL     1      36.433 -24.294 -13.109  0.00  0.00    -0.062 C 
ATOM     10  C   UNL     1      38.097 -25.871 -12.338  0.00  0.00    -0.082 C 
ATOM     11  H   UNL     1      36.693 -24.937 -11.193  0.00  0.00    -0.084 HD
ATOM     12  H   UNL     1      37.910 -23.932 -11.765  0.00  0.00    -0.084 HD
ENDBRANCH   2   6
BRANCH   3  13
ATOM     13  C   UNL     1      35.753 -22.307 -17.421  0.00  0.00    +0.060 C 
ATOM     14  C   UNL     1      34.439 -22.670 -17.210  0.00  0.00    +0.045 C 
ATOM     15  C   UNL     1      36.168 -21.684 -18.581  0.00  0.00    +0.045 C 
ATOM     16  C   UNL     1      35.226 -21.414 -19.574  0.00  0.00    +0.176 C 
ATOM     17  C   UNL     1      33.498 -22.400 -18.202  0.00  0.00    +0.176 C 
ATOM     18  C   UNL     1      33.891 -21.770 -19.384  0.00  0.00    +0.206 C 
BRANCH  16  19
ATOM     19  O   UNL     1      35.623 -20.801 -20.724  0.00  0.00    -0.468 OA
ATOM     20  C   UNL     1      36.349 -19.581 -20.591  0.00  0.00    +0.253 C 
ENDBRANCH  16  19
BRANCH  17  21
ATOM     21  O   UNL     1      32.196 -22.753 -18.006  0.00  0.00    -0.468 OA
ATOM     22  C   UNL     1      31.817 -23.115 -16.680  0.00  0.00    +0.253 C 
ENDBRANCH  17  21
BRANCH  18  23
ATOM     23  O   UNL     1      32.971 -21.507 -20.355  0.00  0.00    -0.465 OA
ATOM     24  C   UNL     1      32.620 -20.140 -20.559  0.00  0.00    +0.253 C 
ENDBRANCH  18  23
ENDBRANCH   3  13
TORSDOF 5
ENDMDL
MODEL 7
REMARK VINA RESULT:      -7.9      2.482      4.720
REMARK  Name = 5597
REMARK  5 active torsions:
REMARK  status: ('A' for Active; 'I' for Inactive)
REMARK    1  A    between atoms: N_2  and  C_6
REMARK    2  A    between atoms: C_3  and  C_13
REMARK    3  A    between atoms: C_16  and  O_19
REMARK    4  A    between atoms: C_17  and  O_21
REMARK    5  A    between atoms: C_18  and  O_23
REMARK                            x       y       z     vdW  Elec       q    Type
REMARK                         _______ _______ _______ _____ _____    ______ ____
ROOT
ATOM      1  O   UNL     1      33.024 -23.424 -17.996  0.00  0.00    -0.270 OA
ATOM      2  N   UNL     1      34.870 -22.046 -18.265  0.00  0.00    -0.305 N 
ATOM      3  C   UNL     1      34.081 -22.958 -17.580  0.00  0.00    +0.246 C 
ATOM      4  H   UNL     1      35.703 -21.730 -17.846  0.00  0.00    +0.150 HD
ENDROOT
BRANCH   2   6
ATOM      5  N   UNL     1      32.770 -20.342 -20.850  0.00  0.00    +0.385 N 
ATOM      6  C   UNL     1      34.516 -21.543 -19.571  0.00  0.00    +0.051 C 
ATOM      7  C   UNL     1      35.579 -20.568 -20.084  0.00  0.00    +0.015 C 
ATOM      8  C   UNL     1      35.145 -19.954 -21.411  0.00  0.00    -0.022 C 
ATOM      9  C   UNL     1      33.135 -20.882 -19.540  0.00  0.00    -0.062 C 
ATOM     10  C   UNL     1      33.744 -19.353 -21.311  0.00  0.00    -0.082 C 
ATOM     11  H   UNL     1      31.854 -19.898 -20.781  0.00  0.00    -0.084 HD
ATOM     12  H   UNL     1      32.750 -21.111 -21.520  0.00  0.00    -0.084 HD
ENDBRANCH   2   6
BRANCH   3  13
ATOM     13  C   UNL     1      34.570 -23.356 -16.234  0.00  0.00    +0.060 C 
ATOM     14  C   UNL     1      33.657 -23.774 -15.289  0.00  0.00    +0.045 C 
ATOM     15  C   UNL     1      35.924 -23.295 -15.973  0.00  0.00    +0.045 C 
ATOM     16  C   UNL     1      36.384 -23.667 -14.710  0.00  0.00    +0.176 C 
ATOM     17  C   UNL     1      34.116 -24.146 -14.027  0.00  0.00    +0.176 C 
ATOM     18  C   UNL     1      35.480 -24.094 -13.737  0.00  0.00    +0.206 C 
BRANCH  16  19
ATOM     19  O   UNL     1      37.718 -23.610 -14.440  0.00  0.00    -0.468 OA
ATOM     20  C   UNL     1      38.496 -24.759 -14.768  0.00  0.00    +0.253 C 
ENDBRANCH  16  19
BRANCH  17  21
ATOM     21  O   UNL     1      33.224 -24.561 -13.084  0.00  0.00    -0.468 OA
ATOM     22  C   UNL     1      31.927 -24.937 -13.541  0.00  0.00    +0.253 C 
ENDBRANCH  17  21
BRANCH  18  23
ATOM     23  O   UNL     1      35.930 -24.457 -12.503  0.00  0.00    -0.465 OA
ATOM     24  C   UNL     1      36.176 -23.408 -11.569  0.00  0.00    +0.253 C 
ENDBRANCH  18  23
ENDBRANCH   3  13
TORSDOF 5
ENDMDL
MODEL 8
REMARK VINA RESULT:      -7.9      2.480      3.873
REMARK  Name = 5597
REMARK  5 active torsions:
REMARK  status: ('A' for Active; 'I' for Inactive)
REMARK    1  A    between atoms: N_2  and  C_6
REMARK    2  A    between atoms: C_3  and  C_13
REMARK    3  A    between atoms: C_16  and  O_19
REMARK    4  A    between atoms: C_17  and  O_21
REMARK    5  A    between atoms: C_18  and  O_23
REMARK                            x       y       z     vdW  Elec       q    Type
REMARK                         _______ _______ _______ _____ _____    ______ ____
ROOT
ATOM      1  O   UNL     1      33.029 -23.446 -18.019  0.00  0.00    -0.270 OA
ATOM      2  N   UNL     1      34.848 -22.031 -18.279  0.00  0.00    -0.305 N 
ATOM      3  C   UNL     1      34.075 -22.960 -17.598  0.00  0.00    +0.246 C 
ATOM      4  H   UNL     1      35.673 -21.700 -17.856  0.00  0.00    +0.150 HD
ENDROOT
BRANCH   2   6
ATOM      5  N   UNL     1      32.737 -20.326 -20.854  0.00  0.00    +0.385 N 
ATOM      6  C   UNL     1      34.488 -21.530 -19.583  0.00  0.00    +0.051 C 
ATOM      7  C   UNL     1      35.551 -20.561 -20.106  0.00  0.00    +0.015 C 
ATOM      8  C   UNL     1      35.111 -19.949 -21.433  0.00  0.00    -0.022 C 
ATOM      9  C   UNL     1      33.110 -20.864 -19.545  0.00  0.00    -0.062 C 
ATOM     10  C   UNL     1      33.713 -19.343 -21.325  0.00  0.00    -0.082 C 
ATOM     11  H   UNL     1      31.824 -19.878 -20.780  0.00  0.00    -0.084 HD
ATOM     12  H   UNL     1      32.711 -21.097 -21.522  0.00  0.00    -0.084 HD
ENDBRANCH   2   6
BRANCH   3  13
ATOM     13  C   UNL     1      34.569 -23.354 -16.253  0.00  0.00    +0.060 C 
ATOM     14  C   UNL     1      35.922 -23.282 -15.992  0.00  0.00    +0.045 C 
ATOM     15  C   UNL     1      33.658 -23.780 -15.307  0.00  0.00    +0.045 C 
ATOM     16  C   UNL     1      34.122 -24.151 -14.045  0.00  0.00    +0.176 C 
ATOM     17  C   UNL     1      36.385 -23.653 -14.730  0.00  0.00    +0.176 C 
ATOM     18  C   UNL     1      35.484 -24.086 -13.756  0.00  0.00    +0.206 C 
BRANCH  16  19
ATOM     19  O   UNL     1      33.232 -24.575 -13.104  0.00  0.00    -0.468 OA
ATOM     20  C   UNL     1      31.935 -24.952 -13.561  0.00  0.00    +0.253 C 
ENDBRANCH  16  19
BRANCH  17  21
ATOM     21  O   UNL     1      37.719 -23.586 -14.459  0.00  0.00    -0.468 OA
ATOM     22  C   UNL     1      38.502 -24.734 -14.778  0.00  0.00    +0.253 C 
ENDBRANCH  17  21
BRANCH  18  23
ATOM     23  O   UNL     1      35.937 -24.450 -12.523  0.00  0.00    -0.465 OA
ATOM     24  C   UNL     1      36.210 -23.399 -11.599  0.00  0.00    +0.253 C 
ENDBRANCH  18  23
ENDBRANCH   3  13
TORSDOF 5
ENDMDL
MODEL 9
REMARK VINA RESULT:      -7.8      5.277      7.469
REMARK  Name = 5597
REMARK  5 active torsions:
REMARK  status: ('A' for Active; 'I' for Inactive)
REMARK    1  A    between atoms: N_2  and  C_6
REMARK    2  A    between atoms: C_3  and  C_13
REMARK    3  A    between atoms: C_16  and  O_19
REMARK    4  A    between atoms: C_17  and  O_21
REMARK    5  A    between atoms: C_18  and  O_23
REMARK                            x       y       z     vdW  Elec       q    Type
REMARK                         _______ _______ _______ _____ _____    ______ ____
ROOT
ATOM      1  O   UNL     1      32.492 -23.573 -13.097  0.00  0.00    -0.270 OA
ATOM      2  N   UNL     1      32.288 -23.524 -15.407  0.00  0.00    -0.305 N 
ATOM      3  C   UNL     1      32.997 -23.587 -14.216  0.00  0.00    +0.246 C 
ATOM      4  H   UNL     1      32.786 -23.541 -16.256  0.00  0.00    +0.150 HD
ENDROOT
BRANCH   2   6
ATOM      5  N   UNL     1      28.928 -22.615 -16.779  0.00  0.00    +0.385 N 
ATOM      6  C   UNL     1      30.848 -23.434 -15.447  0.00  0.00    +0.051 C 
ATOM      7  C   UNL     1      30.215 -24.825 -15.366  0.00  0.00    +0.015 C 
ATOM      8  C   UNL     1      28.700 -24.733 -15.524  0.00  0.00    -0.022 C 
ATOM      9  C   UNL     1      30.388 -22.694 -16.706  0.00  0.00    -0.062 C 
ATOM     10  C   UNL     1      28.321 -23.947 -16.777  0.00  0.00    -0.082 C 
ATOM     11  H   UNL     1      28.665 -22.132 -17.637  0.00  0.00    -0.084 HD
ATOM     12  H   UNL     1      28.593 -22.109 -15.959  0.00  0.00    -0.084 HD
ENDBRANCH   2   6
BRANCH   3  13
ATOM     13  C   UNL     1      34.476 -23.649 -14.345  0.00  0.00    +0.060 C 
ATOM     14  C   UNL     1      35.215 -24.171 -13.303  0.00  0.00    +0.045 C 
ATOM     15  C   UNL     1      35.064 -23.181 -15.503  0.00  0.00    +0.045 C 
ATOM     16  C   UNL     1      36.453 -23.238 -15.624  0.00  0.00    +0.176 C 
ATOM     17  C   UNL     1      36.603 -24.228 -13.424  0.00  0.00    +0.176 C 
ATOM     18  C   UNL     1      37.222 -23.762 -14.585  0.00  0.00    +0.206 C 
BRANCH  16  19
ATOM     19  O   UNL     1      37.045 -22.778 -16.761  0.00  0.00    -0.468 OA
ATOM     20  C   UNL     1      37.203 -21.366 -16.884  0.00  0.00    +0.253 C 
ENDBRANCH  16  19
BRANCH  17  21
ATOM     21  O   UNL     1      37.344 -24.741 -12.402  0.00  0.00    -0.468 OA
ATOM     22  C   UNL     1      37.355 -26.160 -12.261  0.00  0.00    +0.253 C 
ENDBRANCH  17  21
BRANCH  18  23
ATOM     23  O   UNL     1      38.579 -23.817 -14.703  0.00  0.00    -0.465 OA
ATOM     24  C   UNL     1      39.140 -25.051 -15.142  0.00  0.00    +0.253 C 
ENDBRANCH  18  23
ENDBRANCH   3  13
TORSDOF 5
ENDMDL
