MODEL 1
REMARK VINA RESULT:      -4.2      0.000      0.000
REMARK  Name = 1003
REMARK  2 active torsions:
REMARK  status: ('A' for Active; 'I' for Inactive)
REMARK    1  A    between atoms: P_1  and  O_4
REMARK    2  A    between atoms: P_1  and  O_6
REMARK                            x       y       z     vdW  Elec       q    Type
REMARK                         _______ _______ _______ _____ _____    ______ ____
ROOT
ATOM      1  P   UNL     1      40.163 -25.942 -14.562  0.00  0.00    +0.500 P 
ATOM      2  O   UNL     1      39.854 -24.577 -13.988  0.00  0.00    -0.225 OA
ATOM      3  O   UNL     1      41.303 -26.769 -14.012  0.00  0.00    -0.116 OA
ENDROOT
BRANCH   1   4
ATOM      4  O   UNL     1      38.803 -26.843 -14.539  0.00  0.00    -0.301 OA
ATOM      5  H   UNL     1      38.465 -26.944 -15.442  0.00  0.00    +0.222 HD
ENDBRANCH   1   4
BRANCH   1   6
ATOM      6  O   UNL     1      40.347 -25.804 -16.177  0.00  0.00    -0.301 OA
ATOM      7  H   UNL     1      40.867 -26.553 -16.510  0.00  0.00    +0.222 HD
ENDBRANCH   1   6
TORSDOF 2
ENDMDL
MODEL 2
REMARK VINA RESULT:      -4.2      0.001      2.285
REMARK  Name = 1003
REMARK  2 active torsions:
REMARK  status: ('A' for Active; 'I' for Inactive)
REMARK    1  A    between atoms: P_1  and  O_4
REMARK    2  A    between atoms: P_1  and  O_6
REMARK                            x       y       z     vdW  Elec       q    Type
REMARK                         _______ _______ _______ _____ _____    ______ ____
ROOT
ATOM      1  P   UNL     1      40.164 -25.943 -14.562  0.00  0.00    +0.500 P 
ATOM      2  O   UNL     1      41.304 -26.771 -14.011  0.00  0.00    -0.225 OA
ATOM      3  O   UNL     1      39.855 -24.578 -13.989  0.00  0.00    -0.116 OA
ENDROOT
BRANCH   1   4
ATOM      4  O   UNL     1      40.348 -25.805 -16.177  0.00  0.00    -0.301 OA
ATOM      5  H   UNL     1      39.526 -26.064 -16.621  0.00  0.00    +0.222 HD
ENDBRANCH   1   4
BRANCH   1   6
ATOM      6  O   UNL     1      38.803 -26.842 -14.538  0.00  0.00    -0.301 OA
ATOM      7  H   UNL     1      38.100 -26.380 -15.021  0.00  0.00    +0.222 HD
ENDBRANCH   1   6
TORSDOF 2
ENDMDL
MODEL 3
REMARK VINA RESULT:      -4.2      0.150      1.957
REMARK  Name = 1003
REMARK  2 active torsions:
REMARK  status: ('A' for Active; 'I' for Inactive)
REMARK    1  A    between atoms: P_1  and  O_4
REMARK    2  A    between atoms: P_1  and  O_6
REMARK                            x       y       z     vdW  Elec       q    Type
REMARK                         _______ _______ _______ _____ _____    ______ ____
ROOT
ATOM      1  P   UNL     1      40.044 -25.980 -14.557  0.00  0.00    +0.500 P 
ATOM      2  O   UNL     1      38.800 -26.834 -14.451  0.00  0.00    -0.225 OA
ATOM      3  O   UNL     1      40.099 -24.614 -13.911  0.00  0.00    -0.116 OA
ENDROOT
BRANCH   1   4
ATOM      4  O   UNL     1      41.325 -26.853 -14.049  0.00  0.00    -0.301 OA
ATOM      5  H   UNL     1      41.796 -27.216 -14.816  0.00  0.00    +0.222 HD
ENDBRANCH   1   4
BRANCH   1   6
ATOM      6  O   UNL     1      40.447 -25.833 -16.131  0.00  0.00    -0.301 OA
ATOM      7  H   UNL     1      40.980 -26.596 -16.402  0.00  0.00    +0.222 HD
ENDBRANCH   1   6
TORSDOF 2
ENDMDL
MODEL 4
REMARK VINA RESULT:      -4.2      1.031      1.758
REMARK  Name = 1003
REMARK  2 active torsions:
REMARK  status: ('A' for Active; 'I' for Inactive)
REMARK    1  A    between atoms: P_1  and  O_4
REMARK    2  A    between atoms: P_1  and  O_6
REMARK                            x       y       z     vdW  Elec       q    Type
REMARK                         _______ _______ _______ _____ _____    ______ ____
ROOT
ATOM      1  P   UNL     1      39.769 -25.475 -14.826  0.00  0.00    +0.500 P 
ATOM      2  O   UNL     1      40.799 -24.919 -13.868  0.00  0.00    -0.225 OA
ATOM      3  O   UNL     1      38.822 -26.570 -14.390  0.00  0.00    -0.116 OA
ENDROOT
BRANCH   1   4
ATOM      4  O   UNL     1      38.895 -24.238 -15.434  0.00  0.00    -0.301 OA
ATOM      5  H   UNL     1      39.230 -24.005 -16.314  0.00  0.00    +0.222 HD
ENDBRANCH   1   4
BRANCH   1   6
ATOM      6  O   UNL     1      40.523 -25.947 -16.194  0.00  0.00    -0.301 OA
ATOM      7  H   UNL     1      40.724 -26.895 -16.142  0.00  0.00    +0.222 HD
ENDBRANCH   1   6
TORSDOF 2
ENDMDL
MODEL 5
REMARK VINA RESULT:      -4.0      5.194      5.915
REMARK  Name = 1003
REMARK  2 active torsions:
REMARK  status: ('A' for Active; 'I' for Inactive)
REMARK    1  A    between atoms: P_1  and  O_4
REMARK    2  A    between atoms: P_1  and  O_6
REMARK                            x       y       z     vdW  Elec       q    Type
REMARK                         _______ _______ _______ _____ _____    ______ ____
ROOT
ATOM      1  P   UNL     1      36.068 -24.220 -11.133  0.00  0.00    +0.500 P 
ATOM      2  O   UNL     1      37.099 -23.131 -10.937  0.00  0.00    -0.225 OA
ATOM      3  O   UNL     1      36.452 -25.542 -11.760  0.00  0.00    -0.116 OA
ENDROOT
BRANCH   1   4
ATOM      4  O   UNL     1      35.333 -24.512  -9.706  0.00  0.00    -0.301 OA
ATOM      5  H   UNL     1      34.463 -24.910  -9.864  0.00  0.00    +0.222 HD
ENDBRANCH   1   4
BRANCH   1   6
ATOM      6  O   UNL     1      34.798 -23.602 -11.950  0.00  0.00    -0.301 OA
ATOM      7  H   UNL     1      35.117 -22.978 -12.621  0.00  0.00    +0.222 HD
ENDBRANCH   1   6
TORSDOF 2
ENDMDL
MODEL 6
REMARK VINA RESULT:      -4.0      5.194      6.185
REMARK  Name = 1003
REMARK  2 active torsions:
REMARK  status: ('A' for Active; 'I' for Inactive)
REMARK    1  A    between atoms: P_1  and  O_4
REMARK    2  A    between atoms: P_1  and  O_6
REMARK                            x       y       z     vdW  Elec       q    Type
REMARK                         _______ _______ _______ _____ _____    ______ ____
ROOT
ATOM      1  P   UNL     1      36.068 -24.221 -11.133  0.00  0.00    +0.500 P 
ATOM      2  O   UNL     1      36.453 -25.542 -11.761  0.00  0.00    -0.225 OA
ATOM      3  O   UNL     1      37.098 -23.131 -10.936  0.00  0.00    -0.116 OA
ENDROOT
BRANCH   1   4
ATOM      4  O   UNL     1      34.798 -23.601 -11.950  0.00  0.00    -0.301 OA
ATOM      5  H   UNL     1      34.542 -22.753 -11.556  0.00  0.00    +0.222 HD
ENDBRANCH   1   4
BRANCH   1   6
ATOM      6  O   UNL     1      35.333 -24.511  -9.706  0.00  0.00    -0.301 OA
ATOM      7  H   UNL     1      35.346 -23.707  -9.164  0.00  0.00    +0.222 HD
ENDBRANCH   1   6
TORSDOF 2
ENDMDL
MODEL 7
REMARK VINA RESULT:      -3.9     12.273     13.039
REMARK  Name = 1003
REMARK  2 active torsions:
REMARK  status: ('A' for Active; 'I' for Inactive)
REMARK    1  A    between atoms: P_1  and  O_4
REMARK    2  A    between atoms: P_1  and  O_6
REMARK                            x       y       z     vdW  Elec       q    Type
REMARK                         _______ _______ _______ _____ _____    ______ ____
ROOT
ATOM      1  P   UNL     1      27.913 -22.603 -16.794  0.00  0.00    +0.500 P 
ATOM      2  O   UNL     1      29.379 -22.307 -17.021  0.00  0.00    -0.225 OA
ATOM      3  O   UNL     1      27.378 -22.823 -15.396  0.00  0.00    -0.116 OA
ENDROOT
BRANCH   1   4
ATOM      4  O   UNL     1      27.024 -21.443 -17.520  0.00  0.00    -0.301 OA
ATOM      5  H   UNL     1      26.937 -20.682 -16.925  0.00  0.00    +0.222 HD
ENDBRANCH   1   4
BRANCH   1   6
ATOM      6  O   UNL     1      27.482 -23.872 -17.725  0.00  0.00    -0.301 OA
ATOM      7  H   UNL     1      26.822 -24.407 -17.259  0.00  0.00    +0.222 HD
ENDBRANCH   1   6
TORSDOF 2
ENDMDL
MODEL 8
REMARK VINA RESULT:      -3.9     12.252     12.969
REMARK  Name = 1003
REMARK  2 active torsions:
REMARK  status: ('A' for Active; 'I' for Inactive)
REMARK    1  A    between atoms: P_1  and  O_4
REMARK    2  A    between atoms: P_1  and  O_6
REMARK                            x       y       z     vdW  Elec       q    Type
REMARK                         _______ _______ _______ _____ _____    ______ ____
ROOT
ATOM      1  P   UNL     1      27.931 -22.616 -16.790  0.00  0.00    +0.500 P 
ATOM      2  O   UNL     1      27.404 -22.838 -15.390  0.00  0.00    -0.225 OA
ATOM      3  O   UNL     1      29.394 -22.316 -17.025  0.00  0.00    -0.116 OA
ENDROOT
BRANCH   1   4
ATOM      4  O   UNL     1      27.499 -23.886 -17.721  0.00  0.00    -0.301 OA
ATOM      5  H   UNL     1      27.399 -24.675 -17.166  0.00  0.00    +0.222 HD
ENDBRANCH   1   4
BRANCH   1   6
ATOM      6  O   UNL     1      27.035 -21.459 -17.512  0.00  0.00    -0.301 OA
ATOM      7  H   UNL     1      26.103 -21.726 -17.517  0.00  0.00    +0.222 HD
ENDBRANCH   1   6
TORSDOF 2
ENDMDL
MODEL 9
REMARK VINA RESULT:      -3.9     12.288     13.118
REMARK  Name = 1003
REMARK  2 active torsions:
REMARK  status: ('A' for Active; 'I' for Inactive)
REMARK    1  A    between atoms: P_1  and  O_4
REMARK    2  A    between atoms: P_1  and  O_6
REMARK                            x       y       z     vdW  Elec       q    Type
REMARK                         _______ _______ _______ _____ _____    ______ ____
ROOT
ATOM      1  P   UNL     1      27.780 -22.701 -16.846  0.00  0.00    +0.500 P 
ATOM      2  O   UNL     1      27.541 -23.906 -17.730  0.00  0.00    -0.225 OA
ATOM      3  O   UNL     1      27.430 -22.742 -15.375  0.00  0.00    -0.116 OA
ENDROOT
BRANCH   1   4
ATOM      4  O   UNL     1      29.336 -22.235 -17.003  0.00  0.00    -0.301 OA
ATOM      5  H   UNL     1      29.566 -22.184 -17.944  0.00  0.00    +0.222 HD
ENDBRANCH   1   4
BRANCH   1   6
ATOM      6  O   UNL     1      27.058 -21.403 -17.521  0.00  0.00    -0.301 OA
ATOM      7  H   UNL     1      27.337 -21.321 -18.446  0.00  0.00    +0.222 HD
ENDBRANCH   1   6
TORSDOF 2
ENDMDL
