MODEL 1
REMARK VINA RESULT:     -10.1      0.000      0.000
REMARK  Name = 2313
REMARK  6 active torsions:
REMARK  status: ('A' for Active; 'I' for Inactive)
REMARK    1  A    between atoms: N_1  and  C_16
REMARK    2  A    between atoms: C_5  and  O_10
REMARK    3  A    between atoms: O_10  and  C_11
REMARK    4  A    between atoms: C_11  and  C_13
REMARK    5  A    between atoms: C_13  and  O_14
REMARK    6  A    between atoms: C_16  and  C_17
REMARK                            x       y       z     vdW  Elec       q    Type
REMARK                         _______ _______ _______ _____ _____    ______ ____
ROOT
ATOM      1  N   UNL     1      35.500 -17.674 -21.612  0.00  0.00    -0.244 N 
ATOM      2  N   UNL     1      35.213 -16.733 -20.698  0.00  0.00    -0.131 NA
ATOM      3  C   UNL     1      35.080 -17.373 -22.879  0.00  0.00    +0.083 A 
ATOM      4  C   UNL     1      34.467 -16.129 -22.776  0.00  0.00    +0.072 A 
ATOM      5  C   UNL     1      34.584 -15.794 -21.409  0.00  0.00    +0.244 A 
ATOM      6  C   UNL     1      35.185 -18.072 -24.083  0.00  0.00    +0.019 C 
ATOM      7  C   UNL     1      33.921 -15.533 -23.925  0.00  0.00    +0.006 C 
ATOM      8  C   UNL     1      34.636 -17.467 -25.218  0.00  0.00    +0.002 C 
ATOM      9  C   UNL     1      34.015 -16.218 -25.142  0.00  0.00    +0.000 C 
ENDROOT
BRANCH   5  10
ATOM     10  O   UNL     1      34.154 -14.691 -20.780  0.00  0.00    -0.447 OA
BRANCH  10  11
ATOM     11  C   UNL     1      32.758 -14.612 -20.449  0.00  0.00    +0.315 C 
BRANCH  11  13
ATOM     12  O   UNL     1      32.028 -12.309 -20.192  0.00  0.00    -0.246 OA
ATOM     13  C   UNL     1      32.202 -13.290 -20.900  0.00  0.00    +0.359 C 
BRANCH  13  14
ATOM     14  O   UNL     1      31.914 -13.330 -22.225  0.00  0.00    -0.478 OA
ATOM     15  H   UNL     1      31.266 -13.926 -22.546  0.00  0.00    +0.295 HD
ENDBRANCH  13  14
ENDBRANCH  11  13
ENDBRANCH  10  11
ENDBRANCH   5  10
BRANCH   1  16
ATOM     16  C   UNL     1      36.198 -18.868 -21.195  0.00  0.00    +0.154 C 
BRANCH  16  17
ATOM     17  C   UNL     1      35.254 -19.872 -20.589  0.00  0.00    +0.002 C 
ATOM     18  C   UNL     1      35.763 -20.917 -19.830  0.00  0.00    -0.002 C 
ATOM     19  C   UNL     1      33.888 -19.739 -20.797  0.00  0.00    -0.002 C 
ATOM     20  C   UNL     1      34.888 -21.848 -19.268  0.00  0.00    -0.000 C 
ATOM     21  C   UNL     1      33.014 -20.669 -20.235  0.00  0.00    -0.000 C 
ATOM     22  C   UNL     1      33.513 -21.724 -19.471  0.00  0.00    -0.000 C 
ENDBRANCH  16  17
ENDBRANCH   1  16
TORSDOF 6
ENDMDL
MODEL 2
REMARK VINA RESULT:      -9.6      2.196      3.506
REMARK  Name = 2313
REMARK  6 active torsions:
REMARK  status: ('A' for Active; 'I' for Inactive)
REMARK    1  A    between atoms: N_1  and  C_16
REMARK    2  A    between atoms: C_5  and  O_10
REMARK    3  A    between atoms: O_10  and  C_11
REMARK    4  A    between atoms: C_11  and  C_13
REMARK    5  A    between atoms: C_13  and  O_14
REMARK    6  A    between atoms: C_16  and  C_17
REMARK                            x       y       z     vdW  Elec       q    Type
REMARK                         _______ _______ _______ _____ _____    ______ ____
ROOT
ATOM      1  N   UNL     1      35.525 -17.678 -22.611  0.00  0.00    -0.244 N 
ATOM      2  N   UNL     1      35.446 -17.793 -23.947  0.00  0.00    -0.131 NA
ATOM      3  C   UNL     1      34.950 -16.541 -22.110  0.00  0.00    +0.083 A 
ATOM      4  C   UNL     1      34.459 -15.861 -23.219  0.00  0.00    +0.072 A 
ATOM      5  C   UNL     1      34.797 -16.686 -24.314  0.00  0.00    +0.244 A 
ATOM      6  C   UNL     1      34.823 -16.062 -20.805  0.00  0.00    +0.019 C 
ATOM      7  C   UNL     1      33.801 -14.633 -23.037  0.00  0.00    +0.006 C 
ATOM      8  C   UNL     1      34.166 -14.838 -20.640  0.00  0.00    +0.002 C 
ATOM      9  C   UNL     1      33.663 -14.135 -21.736  0.00  0.00    +0.000 C 
ENDROOT
BRANCH   5  10
ATOM     10  O   UNL     1      34.551 -16.487 -25.617  0.00  0.00    -0.447 OA
BRANCH  10  11
ATOM     11  C   UNL     1      33.197 -16.207 -26.006  0.00  0.00    +0.315 C 
BRANCH  11  13
ATOM     12  O   UNL     1      33.848 -14.359 -27.443  0.00  0.00    -0.246 OA
ATOM     13  C   UNL     1      33.110 -14.823 -26.586  0.00  0.00    +0.359 C 
BRANCH  13  14
ATOM     14  O   UNL     1      32.083 -14.141 -26.019  0.00  0.00    -0.478 OA
ATOM     15  H   UNL     1      32.115 -13.206 -25.965  0.00  0.00    +0.295 HD
ENDBRANCH  13  14
ENDBRANCH  11  13
ENDBRANCH  10  11
ENDBRANCH   5  10
BRANCH   1  16
ATOM     16  C   UNL     1      36.179 -18.720 -21.854  0.00  0.00    +0.154 C 
BRANCH  16  17
ATOM     17  C   UNL     1      35.180 -19.579 -21.125  0.00  0.00    +0.002 C 
ATOM     18  C   UNL     1      35.630 -20.569 -20.262  0.00  0.00    -0.002 C 
ATOM     19  C   UNL     1      33.823 -19.369 -21.327  0.00  0.00    -0.002 C 
ATOM     20  C   UNL     1      34.703 -21.365 -19.588  0.00  0.00    -0.000 C 
ATOM     21  C   UNL     1      32.897 -20.164 -20.652  0.00  0.00    -0.000 C 
ATOM     22  C   UNL     1      33.337 -21.163 -19.783  0.00  0.00    -0.000 C 
ENDBRANCH  16  17
ENDBRANCH   1  16
TORSDOF 6
ENDMDL
MODEL 3
REMARK VINA RESULT:      -9.5      6.368      9.703
REMARK  Name = 2313
REMARK  6 active torsions:
REMARK  status: ('A' for Active; 'I' for Inactive)
REMARK    1  A    between atoms: N_1  and  C_16
REMARK    2  A    between atoms: C_5  and  O_10
REMARK    3  A    between atoms: O_10  and  C_11
REMARK    4  A    between atoms: C_11  and  C_13
REMARK    5  A    between atoms: C_13  and  O_14
REMARK    6  A    between atoms: C_16  and  C_17
REMARK                            x       y       z     vdW  Elec       q    Type
REMARK                         _______ _______ _______ _____ _____    ______ ____
ROOT
ATOM      1  N   UNL     1      33.763 -23.397 -17.227  0.00  0.00    -0.244 N 
ATOM      2  N   UNL     1      34.895 -23.419 -16.505  0.00  0.00    -0.131 NA
ATOM      3  C   UNL     1      32.626 -23.230 -16.483  0.00  0.00    +0.083 A 
ATOM      4  C   UNL     1      33.061 -23.137 -15.166  0.00  0.00    +0.072 A 
ATOM      5  C   UNL     1      34.464 -23.261 -15.252  0.00  0.00    +0.244 A 
ATOM      6  C   UNL     1      31.280 -23.153 -16.848  0.00  0.00    +0.019 C 
ATOM      7  C   UNL     1      32.117 -22.959 -14.140  0.00  0.00    +0.006 C 
ATOM      8  C   UNL     1      30.352 -22.976 -15.816  0.00  0.00    +0.002 C 
ATOM      9  C   UNL     1      30.762 -22.881 -14.484  0.00  0.00    +0.000 C 
ENDROOT
BRANCH   5  10
ATOM     10  O   UNL     1      35.367 -23.240 -14.260  0.00  0.00    -0.447 OA
BRANCH  10  11
ATOM     11  C   UNL     1      35.827 -24.501 -13.748  0.00  0.00    +0.315 C 
BRANCH  11  13
ATOM     12  O   UNL     1      36.068 -25.379 -11.495  0.00  0.00    -0.246 OA
ATOM     13  C   UNL     1      35.572 -24.572 -12.268  0.00  0.00    +0.359 C 
BRANCH  13  14
ATOM     14  O   UNL     1      34.701 -23.601 -11.895  0.00  0.00    -0.478 OA
ATOM     15  H   UNL     1      33.779 -23.766 -11.918  0.00  0.00    +0.295 HD
ENDBRANCH  13  14
ENDBRANCH  11  13
ENDBRANCH  10  11
ENDBRANCH   5  10
BRANCH   1  16
ATOM     16  C   UNL     1      33.841 -23.542 -18.662  0.00  0.00    +0.154 C 
BRANCH  16  17
ATOM     17  C   UNL     1      34.118 -22.224 -19.334  0.00  0.00    +0.002 C 
ATOM     18  C   UNL     1      35.431 -21.847 -19.583  0.00  0.00    -0.002 C 
ATOM     19  C   UNL     1      33.058 -21.404 -19.693  0.00  0.00    -0.002 C 
ATOM     20  C   UNL     1      35.688 -20.625 -20.206  0.00  0.00    -0.000 C 
ATOM     21  C   UNL     1      33.315 -20.182 -20.316  0.00  0.00    -0.000 C 
ATOM     22  C   UNL     1      34.630 -19.792 -20.571  0.00  0.00    -0.000 C 
ENDBRANCH  16  17
ENDBRANCH   1  16
TORSDOF 6
ENDMDL
MODEL 4
REMARK VINA RESULT:      -9.5      6.099      9.425
REMARK  Name = 2313
REMARK  6 active torsions:
REMARK  status: ('A' for Active; 'I' for Inactive)
REMARK    1  A    between atoms: N_1  and  C_16
REMARK    2  A    between atoms: C_5  and  O_10
REMARK    3  A    between atoms: O_10  and  C_11
REMARK    4  A    between atoms: C_11  and  C_13
REMARK    5  A    between atoms: C_13  and  O_14
REMARK    6  A    between atoms: C_16  and  C_17
REMARK                            x       y       z     vdW  Elec       q    Type
REMARK                         _______ _______ _______ _____ _____    ______ ____
ROOT
ATOM      1  N   UNL     1      33.836 -23.304 -17.355  0.00  0.00    -0.244 N 
ATOM      2  N   UNL     1      35.018 -23.317 -16.717  0.00  0.00    -0.131 NA
ATOM      3  C   UNL     1      32.753 -23.178 -16.528  0.00  0.00    +0.083 A 
ATOM      4  C   UNL     1      33.280 -23.105 -15.243  0.00  0.00    +0.072 A 
ATOM      5  C   UNL     1      34.676 -23.196 -15.433  0.00  0.00    +0.244 A 
ATOM      6  C   UNL     1      31.383 -23.124 -16.793  0.00  0.00    +0.019 C 
ATOM      7  C   UNL     1      32.410 -22.970 -14.148  0.00  0.00    +0.006 C 
ATOM      8  C   UNL     1      30.529 -22.990 -15.693  0.00  0.00    +0.002 C 
ATOM      9  C   UNL     1      31.032 -22.914 -14.393  0.00  0.00    +0.000 C 
ENDROOT
BRANCH   5  10
ATOM     10  O   UNL     1      35.648 -23.176 -14.508  0.00  0.00    -0.447 OA
BRANCH  10  11
ATOM     11  C   UNL     1      36.999 -23.001 -14.962  0.00  0.00    +0.315 C 
BRANCH  11  13
ATOM     12  O   UNL     1      38.711 -24.400 -13.953  0.00  0.00    -0.246 OA
ATOM     13  C   UNL     1      37.780 -24.266 -14.734  0.00  0.00    +0.359 C 
BRANCH  13  14
ATOM     14  O   UNL     1      37.304 -25.260 -15.525  0.00  0.00    -0.478 OA
ATOM     15  H   UNL     1      37.623 -26.135 -15.422  0.00  0.00    +0.295 HD
ENDBRANCH  13  14
ENDBRANCH  11  13
ENDBRANCH  10  11
ENDBRANCH   5  10
BRANCH   1  16
ATOM     16  C   UNL     1      33.814 -23.417 -18.795  0.00  0.00    +0.154 C 
BRANCH  16  17
ATOM     17  C   UNL     1      34.107 -22.096 -19.454  0.00  0.00    +0.002 C 
ATOM     18  C   UNL     1      35.424 -21.729 -19.694  0.00  0.00    -0.002 C 
ATOM     19  C   UNL     1      33.056 -21.263 -19.813  0.00  0.00    -0.002 C 
ATOM     20  C   UNL     1      35.695 -20.504 -20.306  0.00  0.00    -0.000 C 
ATOM     21  C   UNL     1      33.327 -20.039 -20.424  0.00  0.00    -0.000 C 
ATOM     22  C   UNL     1      34.647 -19.659 -20.669  0.00  0.00    -0.000 C 
ENDBRANCH  16  17
ENDBRANCH   1  16
TORSDOF 6
ENDMDL
MODEL 5
REMARK VINA RESULT:      -9.2      5.738      8.992
REMARK  Name = 2313
REMARK  6 active torsions:
REMARK  status: ('A' for Active; 'I' for Inactive)
REMARK    1  A    between atoms: N_1  and  C_16
REMARK    2  A    between atoms: C_5  and  O_10
REMARK    3  A    between atoms: O_10  and  C_11
REMARK    4  A    between atoms: C_11  and  C_13
REMARK    5  A    between atoms: C_13  and  O_14
REMARK    6  A    between atoms: C_16  and  C_17
REMARK                            x       y       z     vdW  Elec       q    Type
REMARK                         _______ _______ _______ _____ _____    ______ ____
ROOT
ATOM      1  N   UNL     1      33.184 -23.259 -17.549  0.00  0.00    -0.244 N 
ATOM      2  N   UNL     1      31.903 -22.859 -17.615  0.00  0.00    -0.131 NA
ATOM      3  C   UNL     1      33.629 -23.512 -16.279  0.00  0.00    +0.083 A 
ATOM      4  C   UNL     1      32.542 -23.251 -15.452  0.00  0.00    +0.072 A 
ATOM      5  C   UNL     1      31.516 -22.855 -16.337  0.00  0.00    +0.244 A 
ATOM      6  C   UNL     1      34.868 -23.938 -15.796  0.00  0.00    +0.019 C 
ATOM      7  C   UNL     1      32.677 -23.419 -14.064  0.00  0.00    +0.006 C 
ATOM      8  C   UNL     1      34.988 -24.100 -14.412  0.00  0.00    +0.002 C 
ATOM      9  C   UNL     1      33.912 -23.846 -13.559  0.00  0.00    +0.000 C 
ENDROOT
BRANCH   5  10
ATOM     10  O   UNL     1      30.258 -22.493 -16.049  0.00  0.00    -0.447 OA
BRANCH  10  11
ATOM     11  C   UNL     1      29.256 -23.522 -16.016  0.00  0.00    +0.315 C 
BRANCH  11  13
ATOM     12  O   UNL     1      27.581 -23.993 -17.712  0.00  0.00    -0.246 OA
ATOM     13  C   UNL     1      28.158 -23.194 -16.989  0.00  0.00    +0.359 C 
BRANCH  13  14
ATOM     14  O   UNL     1      27.884 -21.865 -16.957  0.00  0.00    -0.478 OA
ATOM     15  H   UNL     1      27.868 -21.410 -16.139  0.00  0.00    +0.295 HD
ENDBRANCH  13  14
ENDBRANCH  11  13
ENDBRANCH  10  11
ENDBRANCH   5  10
BRANCH   1  16
ATOM     16  C   UNL     1      33.945 -23.383 -18.770  0.00  0.00    +0.154 C 
BRANCH  16  17
ATOM     17  C   UNL     1      34.127 -22.049 -19.442  0.00  0.00    +0.002 C 
ATOM     18  C   UNL     1      33.010 -21.321 -19.830  0.00  0.00    -0.002 C 
ATOM     19  C   UNL     1      35.408 -21.564 -19.665  0.00  0.00    -0.002 C 
ATOM     20  C   UNL     1      33.178 -20.084 -20.454  0.00  0.00    -0.000 C 
ATOM     21  C   UNL     1      35.576 -20.327 -20.288  0.00  0.00    -0.000 C 
ATOM     22  C   UNL     1      34.461 -19.588 -20.683  0.00  0.00    -0.000 C 
ENDBRANCH  16  17
ENDBRANCH   1  16
TORSDOF 6
ENDMDL
MODEL 6
REMARK VINA RESULT:      -9.0      5.769      8.882
REMARK  Name = 2313
REMARK  6 active torsions:
REMARK  status: ('A' for Active; 'I' for Inactive)
REMARK    1  A    between atoms: N_1  and  C_16
REMARK    2  A    between atoms: C_5  and  O_10
REMARK    3  A    between atoms: O_10  and  C_11
REMARK    4  A    between atoms: C_11  and  C_13
REMARK    5  A    between atoms: C_13  and  O_14
REMARK    6  A    between atoms: C_16  and  C_17
REMARK                            x       y       z     vdW  Elec       q    Type
REMARK                         _______ _______ _______ _____ _____    ______ ____
ROOT
ATOM      1  N   UNL     1      33.160 -22.987 -17.616  0.00  0.00    -0.244 N 
ATOM      2  N   UNL     1      31.915 -22.589 -17.925  0.00  0.00    -0.131 NA
ATOM      3  C   UNL     1      33.325 -23.351 -16.307  0.00  0.00    +0.083 A 
ATOM      4  C   UNL     1      32.078 -23.172 -15.717  0.00  0.00    +0.072 A 
ATOM      5  C   UNL     1      31.259 -22.703 -16.767  0.00  0.00    +0.244 A 
ATOM      6  C   UNL     1      34.440 -23.813 -15.605  0.00  0.00    +0.019 C 
ATOM      7  C   UNL     1      31.914 -23.463 -14.353  0.00  0.00    +0.006 C 
ATOM      8  C   UNL     1      34.261 -24.098 -14.247  0.00  0.00    +0.002 C 
ATOM      9  C   UNL     1      33.020 -23.927 -13.631  0.00  0.00    +0.000 C 
ENDROOT
BRANCH   5  10
ATOM     10  O   UNL     1      29.960 -22.374 -16.730  0.00  0.00    -0.447 OA
BRANCH  10  11
ATOM     11  C   UNL     1      29.011 -23.423 -16.482  0.00  0.00    +0.315 C 
BRANCH  11  13
ATOM     12  O   UNL     1      26.871 -22.521 -15.766  0.00  0.00    -0.246 OA
ATOM     13  C   UNL     1      27.614 -22.899 -16.661  0.00  0.00    +0.359 C 
BRANCH  13  14
ATOM     14  O   UNL     1      27.278 -22.900 -17.976  0.00  0.00    -0.478 OA
ATOM     15  H   UNL     1      26.376 -22.902 -18.228  0.00  0.00    +0.295 HD
ENDBRANCH  13  14
ENDBRANCH  11  13
ENDBRANCH  10  11
ENDBRANCH   5  10
BRANCH   1  16
ATOM     16  C   UNL     1      34.170 -22.997 -18.648  0.00  0.00    +0.154 C 
BRANCH  16  17
ATOM     17  C   UNL     1      34.145 -21.726 -19.454  0.00  0.00    +0.002 C 
ATOM     18  C   UNL     1      35.341 -21.133 -19.834  0.00  0.00    -0.002 C 
ATOM     19  C   UNL     1      32.926 -21.164 -19.806  0.00  0.00    -0.002 C 
ATOM     20  C   UNL     1      35.318 -19.955 -20.581  0.00  0.00    -0.000 C 
ATOM     21  C   UNL     1      32.902 -19.986 -20.553  0.00  0.00    -0.000 C 
ATOM     22  C   UNL     1      34.098 -19.381 -20.940  0.00  0.00    -0.000 C 
ENDBRANCH  16  17
ENDBRANCH   1  16
TORSDOF 6
ENDMDL
MODEL 7
REMARK VINA RESULT:      -8.9      4.271      6.445
REMARK  Name = 2313
REMARK  6 active torsions:
REMARK  status: ('A' for Active; 'I' for Inactive)
REMARK    1  A    between atoms: N_1  and  C_16
REMARK    2  A    between atoms: C_5  and  O_10
REMARK    3  A    between atoms: O_10  and  C_11
REMARK    4  A    between atoms: C_11  and  C_13
REMARK    5  A    between atoms: C_13  and  O_14
REMARK    6  A    between atoms: C_16  and  C_17
REMARK                            x       y       z     vdW  Elec       q    Type
REMARK                         _______ _______ _______ _____ _____    ______ ____
ROOT
ATOM      1  N   UNL     1      32.486 -12.028 -23.262  0.00  0.00    -0.244 N 
ATOM      2  N   UNL     1      31.680 -11.485 -22.335  0.00  0.00    -0.131 NA
ATOM      3  C   UNL     1      33.385 -11.152 -23.807  0.00  0.00    +0.083 A 
ATOM      4  C   UNL     1      33.138  -9.936 -23.179  0.00  0.00    +0.072 A 
ATOM      5  C   UNL     1      32.079 -10.212 -22.287  0.00  0.00    +0.244 A 
ATOM      6  C   UNL     1      34.374 -11.320 -24.778  0.00  0.00    +0.019 C 
ATOM      7  C   UNL     1      33.909  -8.814 -23.525  0.00  0.00    +0.006 C 
ATOM      8  C   UNL     1      35.133 -10.194 -25.113  0.00  0.00    +0.002 C 
ATOM      9  C   UNL     1      34.906  -8.961 -24.497  0.00  0.00    +0.000 C 
ENDROOT
BRANCH   5  10
ATOM     10  O   UNL     1      31.461  -9.376 -21.441  0.00  0.00    -0.447 OA
BRANCH  10  11
ATOM     11  C   UNL     1      32.198  -8.918 -20.296  0.00  0.00    +0.315 C 
BRANCH  11  13
ATOM     12  O   UNL     1      31.819  -6.678 -21.161  0.00  0.00    -0.246 OA
ATOM     13  C   UNL     1      32.374  -7.426 -20.369  0.00  0.00    +0.359 C 
BRANCH  13  14
ATOM     14  O   UNL     1      33.248  -7.010 -19.418  0.00  0.00    -0.478 OA
ATOM     15  H   UNL     1      34.061  -7.460 -19.301  0.00  0.00    +0.295 HD
ENDBRANCH  13  14
ENDBRANCH  11  13
ENDBRANCH  10  11
ENDBRANCH   5  10
BRANCH   1  16
ATOM     16  C   UNL     1      32.340 -13.428 -23.586  0.00  0.00    +0.154 C 
BRANCH  16  17
ATOM     17  C   UNL     1      33.104 -14.297 -22.623  0.00  0.00    +0.002 C 
ATOM     18  C   UNL     1      34.226 -14.985 -23.065  0.00  0.00    -0.002 C 
ATOM     19  C   UNL     1      32.675 -14.399 -21.307  0.00  0.00    -0.002 C 
ATOM     20  C   UNL     1      34.933 -15.791 -22.172  0.00  0.00    -0.000 C 
ATOM     21  C   UNL     1      33.383 -15.204 -20.414  0.00  0.00    -0.000 C 
ATOM     22  C   UNL     1      34.512 -15.900 -20.847  0.00  0.00    -0.000 C 
ENDBRANCH  16  17
ENDBRANCH   1  16
TORSDOF 6
ENDMDL
MODEL 8
REMARK VINA RESULT:      -8.5      6.946      9.330
REMARK  Name = 2313
REMARK  6 active torsions:
REMARK  status: ('A' for Active; 'I' for Inactive)
REMARK    1  A    between atoms: N_1  and  C_16
REMARK    2  A    between atoms: C_5  and  O_10
REMARK    3  A    between atoms: O_10  and  C_11
REMARK    4  A    between atoms: C_11  and  C_13
REMARK    5  A    between atoms: C_13  and  O_14
REMARK    6  A    between atoms: C_16  and  C_17
REMARK                            x       y       z     vdW  Elec       q    Type
REMARK                         _______ _______ _______ _____ _____    ______ ____
ROOT
ATOM      1  N   UNL     1      35.843 -22.850 -15.963  0.00  0.00    -0.244 N 
ATOM      2  N   UNL     1      34.833 -23.390 -15.260  0.00  0.00    -0.131 NA
ATOM      3  C   UNL     1      35.497 -22.449 -17.225  0.00  0.00    +0.083 A 
ATOM      4  C   UNL     1      34.147 -22.759 -17.351  0.00  0.00    +0.072 A 
ATOM      5  C   UNL     1      33.803 -23.333 -16.108  0.00  0.00    +0.244 A 
ATOM      6  C   UNL     1      36.240 -21.854 -18.247  0.00  0.00    +0.019 C 
ATOM      7  C   UNL     1      33.483 -22.466 -18.554  0.00  0.00    +0.006 C 
ATOM      8  C   UNL     1      35.565 -21.569 -19.439  0.00  0.00    +0.002 C 
ATOM      9  C   UNL     1      34.210 -21.870 -19.591  0.00  0.00    +0.000 C 
ENDROOT
BRANCH   5  10
ATOM     10  O   UNL     1      32.614 -23.805 -15.706  0.00  0.00    -0.447 OA
BRANCH  10  11
ATOM     11  C   UNL     1      31.791 -22.947 -14.902  0.00  0.00    +0.315 C 
BRANCH  11  13
ATOM     12  O   UNL     1      30.797 -24.155 -13.042  0.00  0.00    -0.246 OA
ATOM     13  C   UNL     1      31.711 -23.485 -13.500  0.00  0.00    +0.359 C 
BRANCH  13  14
ATOM     14  O   UNL     1      32.812 -23.122 -12.795  0.00  0.00    -0.478 OA
ATOM     15  H   UNL     1      32.747 -22.961 -11.875  0.00  0.00    +0.295 HD
ENDBRANCH  13  14
ENDBRANCH  11  13
ENDBRANCH  10  11
ENDBRANCH   5  10
BRANCH   1  16
ATOM     16  C   UNL     1      37.147 -22.742 -15.350  0.00  0.00    +0.154 C 
BRANCH  16  17
ATOM     17  C   UNL     1      37.385 -23.856 -14.366  0.00  0.00    +0.002 C 
ATOM     18  C   UNL     1      37.407 -23.575 -13.007  0.00  0.00    -0.002 C 
ATOM     19  C   UNL     1      37.579 -25.149 -14.832  0.00  0.00    -0.002 C 
ATOM     20  C   UNL     1      37.628 -24.608 -12.096  0.00  0.00    -0.000 C 
ATOM     21  C   UNL     1      37.799 -26.182 -13.921  0.00  0.00    -0.000 C 
ATOM     22  C   UNL     1      37.825 -25.911 -12.552  0.00  0.00    -0.000 C 
ENDBRANCH  16  17
ENDBRANCH   1  16
TORSDOF 6
ENDMDL
MODEL 9
REMARK VINA RESULT:      -8.5      5.182      8.312
REMARK  Name = 2313
REMARK  6 active torsions:
REMARK  status: ('A' for Active; 'I' for Inactive)
REMARK    1  A    between atoms: N_1  and  C_16
REMARK    2  A    between atoms: C_5  and  O_10
REMARK    3  A    between atoms: O_10  and  C_11
REMARK    4  A    between atoms: C_11  and  C_13
REMARK    5  A    between atoms: C_13  and  O_14
REMARK    6  A    between atoms: C_16  and  C_17
REMARK                            x       y       z     vdW  Elec       q    Type
REMARK                         _______ _______ _______ _____ _____    ______ ____
ROOT
ATOM      1  N   UNL     1      34.659 -22.583 -18.455  0.00  0.00    -0.244 N 
ATOM      2  N   UNL     1      33.373 -22.969 -18.440  0.00  0.00    -0.131 NA
ATOM      3  C   UNL     1      35.272 -22.622 -17.232  0.00  0.00    +0.083 A 
ATOM      4  C   UNL     1      34.296 -23.071 -16.348  0.00  0.00    +0.072 A 
ATOM      5  C   UNL     1      33.155 -23.264 -17.156  0.00  0.00    +0.244 A 
ATOM      6  C   UNL     1      36.573 -22.309 -16.834  0.00  0.00    +0.019 C 
ATOM      7  C   UNL     1      34.616 -23.221 -14.988  0.00  0.00    +0.006 C 
ATOM      8  C   UNL     1      36.876 -22.462 -15.477  0.00  0.00    +0.002 C 
ATOM      9  C   UNL     1      35.915 -22.911 -14.569  0.00  0.00    +0.000 C 
ENDROOT
BRANCH   5  10
ATOM     10  O   UNL     1      31.937 -23.690 -16.793  0.00  0.00    -0.447 OA
BRANCH  10  11
ATOM     11  C   UNL     1      31.210 -22.902 -15.837  0.00  0.00    +0.315 C 
BRANCH  11  13
ATOM     12  O   UNL     1      29.004 -23.794 -15.346  0.00  0.00    -0.246 OA
ATOM     13  C   UNL     1      29.733 -23.096 -16.036  0.00  0.00    +0.359 C 
BRANCH  13  14
ATOM     14  O   UNL     1      29.305 -22.378 -17.105  0.00  0.00    -0.478 OA
ATOM     15  H   UNL     1      28.837 -21.577 -16.974  0.00  0.00    +0.295 HD
ENDBRANCH  13  14
ENDBRANCH  11  13
ENDBRANCH  10  11
ENDBRANCH   5  10
BRANCH   1  16
ATOM     16  C   UNL     1      35.257 -22.181 -19.707  0.00  0.00    +0.154 C 
BRANCH  16  17
ATOM     17  C   UNL     1      34.689 -20.874 -20.192  0.00  0.00    +0.002 C 
ATOM     18  C   UNL     1      35.544 -19.900 -20.691  0.00  0.00    -0.002 C 
ATOM     19  C   UNL     1      33.319 -20.660 -20.133  0.00  0.00    -0.002 C 
ATOM     20  C   UNL     1      35.017 -18.689 -21.141  0.00  0.00    -0.000 C 
ATOM     21  C   UNL     1      32.793 -19.450 -20.583  0.00  0.00    -0.000 C 
ATOM     22  C   UNL     1      33.642 -18.463 -21.086  0.00  0.00    -0.000 C 
ENDBRANCH  16  17
ENDBRANCH   1  16
TORSDOF 6
ENDMDL
