MODEL 1
REMARK VINA RESULT:      -8.1      0.000      0.000
REMARK  Name = 6883
REMARK  4 active torsions:
REMARK  status: ('A' for Active; 'I' for Inactive)
REMARK    1  A    between atoms: C_5  and  O_9
REMARK    2  A    between atoms: C_6  and  O_13
REMARK    3  A    between atoms: O_9  and  N_12
REMARK    4  A    between atoms: O_13  and  N_16
REMARK                            x       y       z     vdW  Elec       q    Type
REMARK                         _______ _______ _______ _____ _____    ______ ____
ROOT
ATOM      1  O   UNL     1      36.811 -26.110 -12.705  0.00  0.00    -0.346 OA
ATOM      2  O   UNL     1      36.651 -24.213 -15.099  0.00  0.00    -0.346 OA
ATOM      3  C   UNL     1      37.335 -24.786 -12.899  0.00  0.00    +0.191 C 
ATOM      4  C   UNL     1      37.778 -24.698 -14.346  0.00  0.00    +0.191 C 
ATOM      5  C   UNL     1      36.250 -23.739 -12.828  0.00  0.00    +0.259 C 
ATOM      6  C   UNL     1      38.077 -26.131 -14.707  0.00  0.00    +0.259 C 
ATOM      7  C   UNL     1      37.067 -26.899 -13.879  0.00  0.00    +0.191 C 
ATOM      8  C   UNL     1      35.598 -23.864 -14.187  0.00  0.00    +0.191 C 
ENDROOT
BRANCH   5   9
ATOM      9  O   UNL     1      35.333 -23.950 -11.779  0.00  0.00    -0.334 OA
BRANCH   9  12
ATOM     10  O   UNL     1      35.380 -24.622  -9.661  0.00  0.00    -0.090 OA
ATOM     11  O   UNL     1      36.850 -23.084 -10.325  0.00  0.00    -0.090 OA
ATOM     12  N   UNL     1      35.913 -23.871 -10.477  0.00  0.00    +0.218 N 
ENDBRANCH   9  12
ENDBRANCH   5   9
BRANCH   6  13
ATOM     13  O   UNL     1      39.385 -26.478 -14.268  0.00  0.00    -0.334 OA
BRANCH  13  16
ATOM     14  O   UNL     1      40.620 -26.044 -16.054  0.00  0.00    -0.090 OA
ATOM     15  O   UNL     1      40.958 -24.837 -14.210  0.00  0.00    -0.090 OA
ATOM     16  N   UNL     1      40.412 -25.712 -14.886  0.00  0.00    +0.218 N 
ENDBRANCH  13  16
ENDBRANCH   6  13
TORSDOF 4
ENDMDL
MODEL 2
REMARK VINA RESULT:      -7.5      2.261      5.221
REMARK  Name = 6883
REMARK  4 active torsions:
REMARK  status: ('A' for Active; 'I' for Inactive)
REMARK    1  A    between atoms: C_5  and  O_9
REMARK    2  A    between atoms: C_6  and  O_13
REMARK    3  A    between atoms: O_9  and  N_12
REMARK    4  A    between atoms: O_13  and  N_16
REMARK                            x       y       z     vdW  Elec       q    Type
REMARK                         _______ _______ _______ _____ _____    ______ ____
ROOT
ATOM      1  O   UNL     1      37.135 -25.657 -15.392  0.00  0.00    -0.346 OA
ATOM      2  O   UNL     1      36.389 -25.062 -12.486  0.00  0.00    -0.346 OA
ATOM      3  C   UNL     1      37.626 -24.666 -14.473  0.00  0.00    +0.191 C 
ATOM      4  C   UNL     1      36.440 -24.210 -13.646  0.00  0.00    +0.191 C 
ATOM      5  C   UNL     1      38.535 -25.271 -13.432  0.00  0.00    +0.259 C 
ATOM      6  C   UNL     1      35.262 -24.477 -14.548  0.00  0.00    +0.259 C 
ATOM      7  C   UNL     1      35.702 -25.710 -15.311  0.00  0.00    +0.191 C 
ATOM      8  C   UNL     1      37.547 -25.911 -12.480  0.00  0.00    +0.191 C 
ENDROOT
BRANCH   5   9
ATOM      9  O   UNL     1      39.447 -26.208 -13.957  0.00  0.00    -0.334 OA
BRANCH   9  12
ATOM     10  O   UNL     1      41.025 -24.671 -14.253  0.00  0.00    -0.090 OA
ATOM     11  O   UNL     1      40.653 -26.145 -15.883  0.00  0.00    -0.090 OA
ATOM     12  N   UNL     1      40.462 -25.632 -14.778  0.00  0.00    +0.218 N 
ENDBRANCH   9  12
ENDBRANCH   5   9
BRANCH   6  13
ATOM     13  O   UNL     1      35.105 -23.403 -15.468  0.00  0.00    -0.334 OA
BRANCH  13  16
ATOM     14  O   UNL     1      32.898 -23.541 -15.570  0.00  0.00    -0.090 OA
ATOM     15  O   UNL     1      34.049 -23.524 -17.479  0.00  0.00    -0.090 OA
ATOM     16  N   UNL     1      33.922 -23.497 -16.252  0.00  0.00    +0.218 N 
ENDBRANCH  13  16
ENDBRANCH   6  13
TORSDOF 4
ENDMDL
MODEL 3
REMARK VINA RESULT:      -7.5      1.120      5.003
REMARK  Name = 6883
REMARK  4 active torsions:
REMARK  status: ('A' for Active; 'I' for Inactive)
REMARK    1  A    between atoms: C_5  and  O_9
REMARK    2  A    between atoms: C_6  and  O_13
REMARK    3  A    between atoms: O_9  and  N_12
REMARK    4  A    between atoms: O_13  and  N_16
REMARK                            x       y       z     vdW  Elec       q    Type
REMARK                         _______ _______ _______ _____ _____    ______ ____
ROOT
ATOM      1  O   UNL     1      37.935 -23.795 -14.520  0.00  0.00    -0.346 OA
ATOM      2  O   UNL     1      36.031 -26.187 -14.449  0.00  0.00    -0.346 OA
ATOM      3  C   UNL     1      37.942 -24.986 -13.715  0.00  0.00    +0.191 C 
ATOM      4  C   UNL     1      36.496 -25.314 -13.403  0.00  0.00    +0.191 C 
ATOM      5  C   UNL     1      38.384 -26.192 -14.508  0.00  0.00    +0.259 C 
ATOM      6  C   UNL     1      35.809 -23.974 -13.490  0.00  0.00    +0.259 C 
ATOM      7  C   UNL     1      36.600 -23.266 -14.571  0.00  0.00    +0.191 C 
ATOM      8  C   UNL     1      37.138 -26.528 -15.297  0.00  0.00    +0.191 C 
ENDROOT
BRANCH   5   9
ATOM      9  O   UNL     1      39.490 -25.941 -15.345  0.00  0.00    -0.334 OA
BRANCH   9  12
ATOM     10  O   UNL     1      41.187 -26.786 -14.186  0.00  0.00    -0.090 OA
ATOM     11  O   UNL     1      41.149 -24.592 -14.577  0.00  0.00    -0.090 OA
ATOM     12  N   UNL     1      40.716 -25.745 -14.643  0.00  0.00    +0.218 N 
ENDBRANCH   9  12
ENDBRANCH   5   9
BRANCH   6  13
ATOM     13  O   UNL     1      35.972 -23.266 -12.267  0.00  0.00    -0.334 OA
BRANCH  13  16
ATOM     14  O   UNL     1      34.871 -24.846 -11.175  0.00  0.00    -0.090 OA
ATOM     15  O   UNL     1      36.678 -23.956 -10.218  0.00  0.00    -0.090 OA
ATOM     16  N   UNL     1      35.841 -24.089 -11.114  0.00  0.00    +0.218 N 
ENDBRANCH  13  16
ENDBRANCH   6  13
TORSDOF 4
ENDMDL
MODEL 4
REMARK VINA RESULT:      -7.5      3.054      5.067
REMARK  Name = 6883
REMARK  4 active torsions:
REMARK  status: ('A' for Active; 'I' for Inactive)
REMARK    1  A    between atoms: C_5  and  O_9
REMARK    2  A    between atoms: C_6  and  O_13
REMARK    3  A    between atoms: O_9  and  N_12
REMARK    4  A    between atoms: O_13  and  N_16
REMARK                            x       y       z     vdW  Elec       q    Type
REMARK                         _______ _______ _______ _____ _____    ______ ____
ROOT
ATOM      1  O   UNL     1      35.610 -25.498 -15.570  0.00  0.00    -0.346 OA
ATOM      2  O   UNL     1      36.707 -22.745 -14.814  0.00  0.00    -0.346 OA
ATOM      3  C   UNL     1      34.979 -24.367 -14.945  0.00  0.00    +0.191 C 
ATOM      4  C   UNL     1      36.013 -23.737 -14.034  0.00  0.00    +0.191 C 
ATOM      5  C   UNL     1      34.703 -23.263 -15.936  0.00  0.00    +0.259 C 
ATOM      6  C   UNL     1      36.933 -24.885 -13.702  0.00  0.00    +0.259 C 
ATOM      7  C   UNL     1      36.898 -25.713 -14.970  0.00  0.00    +0.191 C 
ATOM      8  C   UNL     1      36.068 -22.630 -16.095  0.00  0.00    +0.191 C 
ENDROOT
BRANCH   5   9
ATOM      9  O   UNL     1      34.188 -23.725 -17.164  0.00  0.00    -0.334 OA
BRANCH   9  12
ATOM     10  O   UNL     1      32.092 -23.131 -16.726  0.00  0.00    -0.090 OA
ATOM     11  O   UNL     1      32.980 -22.545 -18.685  0.00  0.00    -0.090 OA
ATOM     12  N   UNL     1      32.985 -23.073 -17.570  0.00  0.00    +0.218 N 
ENDBRANCH   9  12
ENDBRANCH   5   9
BRANCH   6  13
ATOM     13  O   UNL     1      36.383 -25.654 -12.640  0.00  0.00    -0.334 OA
BRANCH  13  16
ATOM     14  O   UNL     1      37.443 -24.445 -11.118  0.00  0.00    -0.090 OA
ATOM     15  O   UNL     1      35.307 -24.972 -10.755  0.00  0.00    -0.090 OA
ATOM     16  N   UNL     1      36.362 -24.967 -11.394  0.00  0.00    +0.218 N 
ENDBRANCH  13  16
ENDBRANCH   6  13
TORSDOF 4
ENDMDL
MODEL 5
REMARK VINA RESULT:      -7.4      1.976      2.479
REMARK  Name = 6883
REMARK  4 active torsions:
REMARK  status: ('A' for Active; 'I' for Inactive)
REMARK    1  A    between atoms: C_5  and  O_9
REMARK    2  A    between atoms: C_6  and  O_13
REMARK    3  A    between atoms: O_9  and  N_12
REMARK    4  A    between atoms: O_13  and  N_16
REMARK                            x       y       z     vdW  Elec       q    Type
REMARK                         _______ _______ _______ _____ _____    ______ ____
ROOT
ATOM      1  O   UNL     1      36.412 -25.607 -12.548  0.00  0.00    -0.346 OA
ATOM      2  O   UNL     1      36.333 -25.031 -15.551  0.00  0.00    -0.346 OA
ATOM      3  C   UNL     1      36.468 -24.368 -13.275  0.00  0.00    +0.191 C 
ATOM      4  C   UNL     1      37.271 -24.634 -14.533  0.00  0.00    +0.191 C 
ATOM      5  C   UNL     1      35.117 -23.984 -13.828  0.00  0.00    +0.259 C 
ATOM      6  C   UNL     1      38.152 -25.795 -14.145  0.00  0.00    +0.259 C 
ATOM      7  C   UNL     1      37.276 -26.567 -13.178  0.00  0.00    +0.191 C 
ATOM      8  C   UNL     1      35.000 -24.886 -15.037  0.00  0.00    +0.191 C 
ENDROOT
BRANCH   5   9
ATOM      9  O   UNL     1      34.060 -24.180 -12.917  0.00  0.00    -0.334 OA
BRANCH   9  12
ATOM     10  O   UNL     1      32.058 -25.077 -13.274  0.00  0.00    -0.090 OA
ATOM     11  O   UNL     1      32.506 -23.080 -14.158  0.00  0.00    -0.090 OA
ATOM     12  N   UNL     1      32.763 -24.095 -13.505  0.00  0.00    +0.218 N 
ENDBRANCH   9  12
ENDBRANCH   5   9
BRANCH   6  13
ATOM     13  O   UNL     1      39.296 -25.322 -13.446  0.00  0.00    -0.334 OA
BRANCH  13  16
ATOM     14  O   UNL     1      40.955 -24.670 -14.759  0.00  0.00    -0.090 OA
ATOM     15  O   UNL     1      40.999 -26.745 -13.944  0.00  0.00    -0.090 OA
ATOM     16  N   UNL     1      40.523 -25.617 -14.101  0.00  0.00    +0.218 N 
ENDBRANCH  13  16
ENDBRANCH   6  13
TORSDOF 4
ENDMDL
MODEL 6
REMARK VINA RESULT:      -7.3      3.213      5.248
REMARK  Name = 6883
REMARK  4 active torsions:
REMARK  status: ('A' for Active; 'I' for Inactive)
REMARK    1  A    between atoms: C_5  and  O_9
REMARK    2  A    between atoms: C_6  and  O_13
REMARK    3  A    between atoms: O_9  and  N_12
REMARK    4  A    between atoms: O_13  and  N_16
REMARK                            x       y       z     vdW  Elec       q    Type
REMARK                         _______ _______ _______ _____ _____    ______ ____
ROOT
ATOM      1  O   UNL     1      36.185 -22.711 -14.969  0.00  0.00    -0.346 OA
ATOM      2  O   UNL     1      35.860 -25.686 -15.597  0.00  0.00    -0.346 OA
ATOM      3  C   UNL     1      35.754 -23.809 -14.148  0.00  0.00    +0.191 C 
ATOM      4  C   UNL     1      34.941 -24.729 -15.037  0.00  0.00    +0.191 C 
ATOM      5  C   UNL     1      36.911 -24.689 -13.741  0.00  0.00    +0.259 C 
ATOM      6  C   UNL     1      34.422 -23.806 -16.111  0.00  0.00    +0.259 C 
ATOM      7  C   UNL     1      35.544 -22.797 -16.252  0.00  0.00    +0.191 C 
ATOM      8  C   UNL     1      37.150 -25.500 -14.996  0.00  0.00    +0.191 C 
ENDROOT
BRANCH   5   9
ATOM      9  O   UNL     1      38.056 -23.968 -13.349  0.00  0.00    -0.334 OA
BRANCH   9  12
ATOM     10  O   UNL     1      38.915 -22.883 -11.610  0.00  0.00    -0.090 OA
ATOM     11  O   UNL     1      37.609 -24.649 -11.227  0.00  0.00    -0.090 OA
ATOM     12  N   UNL     1      38.199 -23.830 -11.936  0.00  0.00    +0.218 N 
ENDBRANCH   9  12
ENDBRANCH   5   9
BRANCH   6  13
ATOM     13  O   UNL     1      33.258 -23.132 -15.648  0.00  0.00    -0.334 OA
BRANCH  13  16
ATOM     14  O   UNL     1      31.207 -23.887 -15.996  0.00  0.00    -0.090 OA
ATOM     15  O   UNL     1      32.225 -22.782 -17.643  0.00  0.00    -0.090 OA
ATOM     16  N   UNL     1      32.139 -23.272 -16.514  0.00  0.00    +0.218 N 
ENDBRANCH  13  16
ENDBRANCH   6  13
TORSDOF 4
ENDMDL
MODEL 7
REMARK VINA RESULT:      -7.2      6.821      8.242
REMARK  Name = 6883
REMARK  4 active torsions:
REMARK  status: ('A' for Active; 'I' for Inactive)
REMARK    1  A    between atoms: C_5  and  O_9
REMARK    2  A    between atoms: C_6  and  O_13
REMARK    3  A    between atoms: O_9  and  N_12
REMARK    4  A    between atoms: O_13  and  N_16
REMARK                            x       y       z     vdW  Elec       q    Type
REMARK                         _______ _______ _______ _____ _____    ______ ____
ROOT
ATOM      1  O   UNL     1      30.379 -22.353 -14.499  0.00  0.00    -0.346 OA
ATOM      2  O   UNL     1      30.191 -25.134 -15.756  0.00  0.00    -0.346 OA
ATOM      3  C   UNL     1      30.152 -22.763 -15.858  0.00  0.00    +0.191 C 
ATOM      4  C   UNL     1      31.004 -23.995 -16.091  0.00  0.00    +0.191 C 
ATOM      5  C   UNL     1      28.753 -23.294 -16.054  0.00  0.00    +0.259 C 
ATOM      6  C   UNL     1      32.126 -23.836 -15.097  0.00  0.00    +0.259 C 
ATOM      7  C   UNL     1      31.445 -23.135 -13.938  0.00  0.00    +0.191 C 
ATOM      8  C   UNL     1      28.856 -24.686 -15.472  0.00  0.00    +0.191 C 
ENDROOT
BRANCH   5   9
ATOM      9  O   UNL     1      27.763 -22.523 -15.413  0.00  0.00    -0.334 OA
BRANCH   9  12
ATOM     10  O   UNL     1      25.631 -22.079 -15.856  0.00  0.00    -0.090 OA
ATOM     11  O   UNL     1      27.173 -21.525 -17.368  0.00  0.00    -0.090 OA
ATOM     12  N   UNL     1      26.777 -21.993 -16.297  0.00  0.00    +0.218 N 
ENDBRANCH   9  12
ENDBRANCH   5   9
BRANCH   6  13
ATOM     13  O   UNL     1      33.125 -22.974 -15.628  0.00  0.00    -0.334 OA
BRANCH  13  16
ATOM     14  O   UNL     1      34.096 -23.363 -17.579  0.00  0.00    -0.090 OA
ATOM     15  O   UNL     1      34.863 -24.434 -15.780  0.00  0.00    -0.090 OA
ATOM     16  N   UNL     1      34.119 -23.656 -16.383  0.00  0.00    +0.218 N 
ENDBRANCH  13  16
ENDBRANCH   6  13
TORSDOF 4
ENDMDL
MODEL 8
REMARK VINA RESULT:      -7.2      2.941      5.553
REMARK  Name = 6883
REMARK  4 active torsions:
REMARK  status: ('A' for Active; 'I' for Inactive)
REMARK    1  A    between atoms: C_5  and  O_9
REMARK    2  A    between atoms: C_6  and  O_13
REMARK    3  A    between atoms: O_9  and  N_12
REMARK    4  A    between atoms: O_13  and  N_16
REMARK                            x       y       z     vdW  Elec       q    Type
REMARK                         _______ _______ _______ _____ _____    ______ ____
ROOT
ATOM      1  O   UNL     1      35.408 -24.543 -15.452  0.00  0.00    -0.346 OA
ATOM      2  O   UNL     1      37.875 -22.904 -14.689  0.00  0.00    -0.346 OA
ATOM      3  C   UNL     1      35.559 -23.145 -15.152  0.00  0.00    +0.191 C 
ATOM      4  C   UNL     1      36.593 -23.044 -14.048  0.00  0.00    +0.191 C 
ATOM      5  C   UNL     1      36.220 -22.399 -16.286  0.00  0.00    +0.259 C 
ATOM      6  C   UNL     1      36.493 -24.378 -13.353  0.00  0.00    +0.259 C 
ATOM      7  C   UNL     1      36.139 -25.317 -14.488  0.00  0.00    +0.191 C 
ATOM      8  C   UNL     1      37.675 -22.770 -16.105  0.00  0.00    +0.191 C 
ENDROOT
BRANCH   5   9
ATOM      9  O   UNL     1      35.734 -22.763 -17.558  0.00  0.00    -0.334 OA
BRANCH   9  12
ATOM     10  O   UNL     1      34.659 -21.682 -19.174  0.00  0.00    -0.090 OA
ATOM     11  O   UNL     1      36.636 -20.903 -18.501  0.00  0.00    -0.090 OA
ATOM     12  N   UNL     1      35.682 -21.684 -18.489  0.00  0.00    +0.218 N 
ENDBRANCH   9  12
ENDBRANCH   5   9
BRANCH   6  13
ATOM     13  O   UNL     1      35.416 -24.359 -12.424  0.00  0.00    -0.334 OA
BRANCH  13  16
ATOM     14  O   UNL     1      35.176 -25.308 -10.438  0.00  0.00    -0.090 OA
ATOM     15  O   UNL     1      36.768 -23.768 -10.693  0.00  0.00    -0.090 OA
ATOM     16  N   UNL     1      35.833 -24.479 -11.069  0.00  0.00    +0.218 N 
ENDBRANCH  13  16
ENDBRANCH   6  13
TORSDOF 4
ENDMDL
MODEL 9
REMARK VINA RESULT:      -7.2      2.518      3.540
REMARK  Name = 6883
REMARK  4 active torsions:
REMARK  status: ('A' for Active; 'I' for Inactive)
REMARK    1  A    between atoms: C_5  and  O_9
REMARK    2  A    between atoms: C_6  and  O_13
REMARK    3  A    between atoms: O_9  and  N_12
REMARK    4  A    between atoms: O_13  and  N_16
REMARK                            x       y       z     vdW  Elec       q    Type
REMARK                         _______ _______ _______ _____ _____    ______ ____
ROOT
ATOM      1  O   UNL     1      37.570 -23.321 -13.763  0.00  0.00    -0.346 OA
ATOM      2  O   UNL     1      36.645 -26.188 -14.288  0.00  0.00    -0.346 OA
ATOM      3  C   UNL     1      37.495 -24.083 -14.980  0.00  0.00    +0.191 C 
ATOM      4  C   UNL     1      37.868 -25.509 -14.628  0.00  0.00    +0.191 C 
ATOM      5  C   UNL     1      36.071 -24.229 -15.460  0.00  0.00    +0.259 C 
ATOM      6  C   UNL     1      38.740 -25.350 -13.408  0.00  0.00    +0.259 C 
ATOM      7  C   UNL     1      38.138 -24.138 -12.726  0.00  0.00    +0.191 C 
ATOM      8  C   UNL     1      35.538 -25.312 -14.549  0.00  0.00    +0.191 C 
ENDROOT
BRANCH   5   9
ATOM      9  O   UNL     1      35.321 -23.039 -15.366  0.00  0.00    -0.334 OA
BRANCH   9  12
ATOM     10  O   UNL     1      34.212 -23.197 -17.285  0.00  0.00    -0.090 OA
ATOM     11  O   UNL     1      33.049 -22.995 -15.394  0.00  0.00    -0.090 OA
ATOM     12  N   UNL     1      34.079 -23.080 -16.067  0.00  0.00    +0.218 N 
ENDBRANCH   9  12
ENDBRANCH   5   9
BRANCH   6  13
ATOM     13  O   UNL     1      40.071 -25.039 -13.801  0.00  0.00    -0.334 OA
BRANCH  13  16
ATOM     14  O   UNL     1      40.630 -25.978 -15.726  0.00  0.00    -0.090 OA
ATOM     15  O   UNL     1      41.267 -26.973 -13.835  0.00  0.00    -0.090 OA
ATOM     16  N   UNL     1      40.716 -26.094 -14.503  0.00  0.00    +0.218 N 
ENDBRANCH  13  16
ENDBRANCH   6  13
TORSDOF 4
ENDMDL
