MODEL 1
REMARK VINA RESULT:      -8.5      0.000      0.000
REMARK  Name = 23190
REMARK  5 active torsions:
REMARK  status: ('A' for Active; 'I' for Inactive)
REMARK    1  A    between atoms: N_1  and  C1*_14
REMARK    2  A    between atoms: C2*_15  and  O2*_18
REMARK    3  A    between atoms: C3*_16  and  O3*_20
REMARK    4  A    between atoms: C4*_17  and  C5*_22
REMARK    5  A    between atoms: C5*_22  and  O5*_23
REMARK                            x       y       z     vdW  Elec       q    Type
REMARK                         _______ _______ _______ _____ _____    ______ ____
ROOT
ATOM      1  N   UNL     1      34.289 -19.390 -20.985  0.00  0.00    -0.220 NA
ATOM      2  N   UNL     1      32.723 -20.788 -20.243  0.00  0.00    -0.252 NA
ATOM      3  N   UNL     1      35.607 -22.413 -18.581  0.00  0.00    -0.229 NA
ATOM      4  N   UNL     1      33.329 -23.121 -18.455  0.00  0.00    -0.342 N 
ATOM      5  C   UNL     1      34.951 -20.309 -20.210  0.00  0.00    +0.128 C 
ATOM      6  C   UNL     1      32.960 -19.720 -20.973  0.00  0.00    +0.203 C 
ATOM      7  C   UNL     1      33.953 -21.168 -19.759  0.00  0.00    +0.105 C 
ATOM      8  C   UNL     1      36.289 -20.461 -19.875  0.00  0.00    +0.016 C 
ATOM      9  C   UNL     1      34.310 -22.233 -18.931  0.00  0.00    +0.140 C 
ATOM     10  C   UNL     1      36.540 -21.547 -19.048  0.00  0.00    +0.097 C 
ATOM     11  H   UNL     1      33.586 -23.871 -17.870  0.00  0.00    +0.144 HD
ATOM     12  H   UNL     1      32.386 -22.994 -18.707  0.00  0.00    +0.144 HD
ENDROOT
BRANCH   1  14
ATOM     13  O4* UNL     1      34.849 -17.087 -20.865  0.00  0.00    -0.336 OA
ATOM     14  C1* UNL     1      34.881 -18.262 -21.700  0.00  0.00    +0.208 C 
ATOM     15  C2* UNL     1      34.154 -17.889 -22.983  0.00  0.00    +0.183 C 
ATOM     16  C3* UNL     1      34.532 -16.428 -23.131  0.00  0.00    +0.171 C 
ATOM     17  C4* UNL     1      34.522 -15.942 -21.685  0.00  0.00    +0.175 C 
BRANCH  15  18
ATOM     18  O2* UNL     1      34.572 -18.682 -24.075  0.00  0.00    -0.378 OA
ATOM     19  H2* UNL     1      35.486 -18.976 -23.931  0.00  0.00    +0.211 HD
ENDBRANCH  15  18
BRANCH  16  20
ATOM     20  O3* UNL     1      35.862 -16.331 -23.640  0.00  0.00    -0.379 OA
ATOM     21  H3* UNL     1      35.925 -16.818 -24.476  0.00  0.00    +0.211 HD
ENDBRANCH  16  20
BRANCH  17  22
ATOM     22  C5* UNL     1      33.164 -15.410 -21.248  0.00  0.00    +0.169 C 
BRANCH  22  23
ATOM     23  O5* UNL     1      32.608 -14.655 -22.311  0.00  0.00    -0.379 OA
ATOM     24  H5* UNL     1      32.741 -15.129 -23.147  0.00  0.00    +0.211 HD
ENDBRANCH  22  23
ENDBRANCH  17  22
ENDBRANCH   1  14
TORSDOF 5
ENDMDL
MODEL 2
REMARK VINA RESULT:      -8.4      6.272      8.943
REMARK  Name = 23190
REMARK  5 active torsions:
REMARK  status: ('A' for Active; 'I' for Inactive)
REMARK    1  A    between atoms: N_1  and  C1*_14
REMARK    2  A    between atoms: C2*_15  and  O2*_18
REMARK    3  A    between atoms: C3*_16  and  O3*_20
REMARK    4  A    between atoms: C4*_17  and  C5*_22
REMARK    5  A    between atoms: C5*_22  and  O5*_23
REMARK                            x       y       z     vdW  Elec       q    Type
REMARK                         _______ _______ _______ _____ _____    ______ ____
ROOT
ATOM      1  N   UNL     1      35.732 -23.288 -15.810  0.00  0.00    -0.220 NA
ATOM      2  N   UNL     1      33.777 -23.573 -16.836  0.00  0.00    -0.252 NA
ATOM      3  N   UNL     1      35.339 -21.432 -19.425  0.00  0.00    -0.229 NA
ATOM      4  N   UNL     1      33.138 -22.357 -19.505  0.00  0.00    -0.342 N 
ATOM      5  C   UNL     1      35.826 -22.586 -16.987  0.00  0.00    +0.128 C 
ATOM      6  C   UNL     1      34.488 -23.859 -15.768  0.00  0.00    +0.203 C 
ATOM      7  C   UNL     1      34.596 -22.780 -17.607  0.00  0.00    +0.105 C 
ATOM      8  C   UNL     1      36.843 -21.824 -17.544  0.00  0.00    +0.016 C 
ATOM      9  C   UNL     1      34.369 -22.183 -18.848  0.00  0.00    +0.140 C 
ATOM     10  C   UNL     1      36.521 -21.275 -18.777  0.00  0.00    +0.097 C 
ATOM     11  H   UNL     1      32.984 -21.934 -20.381  0.00  0.00    +0.144 HD
ATOM     12  H   UNL     1      32.431 -22.902 -19.090  0.00  0.00    +0.144 HD
ENDROOT
BRANCH   1  14
ATOM     13  O4* UNL     1      37.830 -24.252 -15.261  0.00  0.00    -0.336 OA
ATOM     14  C1* UNL     1      36.762 -23.410 -14.782  0.00  0.00    +0.208 C 
ATOM     15  C2* UNL     1      36.275 -24.040 -13.486  0.00  0.00    +0.183 C 
ATOM     16  C3* UNL     1      37.563 -24.606 -12.922  0.00  0.00    +0.171 C 
ATOM     17  C4* UNL     1      38.282 -25.094 -14.175  0.00  0.00    +0.175 C 
BRANCH  15  18
ATOM     18  O2* UNL     1      35.667 -23.091 -12.635  0.00  0.00    -0.378 OA
ATOM     19  H2* UNL     1      35.392 -22.319 -13.155  0.00  0.00    +0.211 HD
ENDBRANCH  15  18
BRANCH  16  20
ATOM     20  O3* UNL     1      38.327 -23.552 -12.336  0.00  0.00    -0.379 OA
ATOM     21  H3* UNL     1      39.206 -23.523 -12.744  0.00  0.00    +0.211 HD
ENDBRANCH  16  20
BRANCH  17  22
ATOM     22  C5* UNL     1      37.953 -26.541 -14.521  0.00  0.00    +0.169 C 
BRANCH  22  23
ATOM     23  O5* UNL     1      37.343 -26.574 -15.799  0.00  0.00    -0.379 OA
ATOM     24  H5* UNL     1      37.482 -25.724 -16.246  0.00  0.00    +0.211 HD
ENDBRANCH  22  23
ENDBRANCH  17  22
ENDBRANCH   1  14
TORSDOF 5
ENDMDL
MODEL 3
REMARK VINA RESULT:      -8.3      8.496     10.209
REMARK  Name = 23190
REMARK  5 active torsions:
REMARK  status: ('A' for Active; 'I' for Inactive)
REMARK    1  A    between atoms: N_1  and  C1*_14
REMARK    2  A    between atoms: C2*_15  and  O2*_18
REMARK    3  A    between atoms: C3*_16  and  O3*_20
REMARK    4  A    between atoms: C4*_17  and  C5*_22
REMARK    5  A    between atoms: C5*_22  and  O5*_23
REMARK                            x       y       z     vdW  Elec       q    Type
REMARK                         _______ _______ _______ _____ _____    ______ ____
ROOT
ATOM      1  N   UNL     1      34.124 -24.247 -14.283  0.00  0.00    -0.220 NA
ATOM      2  N   UNL     1      33.605 -22.990 -16.046  0.00  0.00    -0.252 NA
ATOM      3  N   UNL     1      30.148 -23.995 -15.171  0.00  0.00    -0.229 NA
ATOM      4  N   UNL     1      30.784 -22.580 -16.987  0.00  0.00    -0.342 N 
ATOM      5  C   UNL     1      32.757 -24.307 -14.391  0.00  0.00    +0.128 C 
ATOM      6  C   UNL     1      34.583 -23.447 -15.295  0.00  0.00    +0.203 C 
ATOM      7  C   UNL     1      32.459 -23.516 -15.496  0.00  0.00    +0.105 C 
ATOM      8  C   UNL     1      31.787 -24.963 -13.645  0.00  0.00    +0.016 C 
ATOM      9  C   UNL     1      31.124 -23.372 -15.875  0.00  0.00    +0.140 C 
ATOM     10  C   UNL     1      30.494 -24.755 -14.102  0.00  0.00    +0.097 C 
ATOM     11  H   UNL     1      29.840 -22.481 -17.250  0.00  0.00    +0.144 HD
ATOM     12  H   UNL     1      31.489 -22.124 -17.502  0.00  0.00    +0.144 HD
ENDROOT
BRANCH   1  14
ATOM     13  O4* UNL     1      35.086 -24.059 -12.122  0.00  0.00    -0.336 OA
ATOM     14  C1* UNL     1      34.952 -24.909 -13.278  0.00  0.00    +0.208 C 
ATOM     15  C2* UNL     1      36.366 -25.218 -13.743  0.00  0.00    +0.183 C 
ATOM     16  C3* UNL     1      37.114 -25.269 -12.425  0.00  0.00    +0.171 C 
ATOM     17  C4* UNL     1      36.441 -24.158 -11.626  0.00  0.00    +0.175 C 
BRANCH  15  18
ATOM     18  O2* UNL     1      36.431 -26.431 -14.465  0.00  0.00    -0.378 OA
ATOM     19  H2* UNL     1      37.301 -26.509 -14.888  0.00  0.00    +0.211 HD
ENDBRANCH  15  18
BRANCH  16  20
ATOM     20  O3* UNL     1      36.857 -26.518 -11.783  0.00  0.00    -0.379 OA
ATOM     21  H3* UNL     1      36.880 -26.399 -10.821  0.00  0.00    +0.211 HD
ENDBRANCH  16  20
BRANCH  17  22
ATOM     22  C5* UNL     1      37.118 -22.806 -11.805  0.00  0.00    +0.169 C 
BRANCH  22  23
ATOM     23  O5* UNL     1      38.514 -22.970 -11.629  0.00  0.00    -0.379 OA
ATOM     24  H5* UNL     1      38.985 -22.518 -12.346  0.00  0.00    +0.211 HD
ENDBRANCH  22  23
ENDBRANCH  17  22
ENDBRANCH   1  14
TORSDOF 5
ENDMDL
MODEL 4
REMARK VINA RESULT:      -8.1      6.672      9.515
REMARK  Name = 23190
REMARK  5 active torsions:
REMARK  status: ('A' for Active; 'I' for Inactive)
REMARK    1  A    between atoms: N_1  and  C1*_14
REMARK    2  A    between atoms: C2*_15  and  O2*_18
REMARK    3  A    between atoms: C3*_16  and  O3*_20
REMARK    4  A    between atoms: C4*_17  and  C5*_22
REMARK    5  A    between atoms: C5*_22  and  O5*_23
REMARK                            x       y       z     vdW  Elec       q    Type
REMARK                         _______ _______ _______ _____ _____    ______ ____
ROOT
ATOM      1  N   UNL     1      36.575 -23.379 -15.775  0.00  0.00    -0.220 NA
ATOM      2  N   UNL     1      37.138 -21.954 -17.391  0.00  0.00    -0.252 NA
ATOM      3  N   UNL     1      33.585 -22.357 -18.360  0.00  0.00    -0.229 NA
ATOM      4  N   UNL     1      35.197 -20.984 -19.466  0.00  0.00    -0.342 N 
ATOM      5  C   UNL     1      35.432 -23.182 -16.511  0.00  0.00    +0.128 C 
ATOM      6  C   UNL     1      37.566 -22.622 -16.343  0.00  0.00    +0.203 C 
ATOM      7  C   UNL     1      35.810 -22.291 -17.510  0.00  0.00    +0.105 C 
ATOM      8  C   UNL     1      34.145 -23.690 -16.395  0.00  0.00    +0.016 C 
ATOM      9  C   UNL     1      34.853 -21.885 -18.441  0.00  0.00    +0.140 C 
ATOM     10  C   UNL     1      33.270 -23.225 -17.365  0.00  0.00    +0.097 C 
ATOM     11  H   UNL     1      34.518 -20.700 -20.120  0.00  0.00    +0.144 HD
ATOM     12  H   UNL     1      36.117 -20.638 -19.529  0.00  0.00    +0.144 HD
ENDROOT
BRANCH   1  14
ATOM     13  O4* UNL     1      37.920 -23.877 -13.885  0.00  0.00    -0.336 OA
ATOM     14  C1* UNL     1      36.722 -24.235 -14.601  0.00  0.00    +0.208 C 
ATOM     15  C2* UNL     1      36.849 -25.716 -14.925  0.00  0.00    +0.183 C 
ATOM     16  C3* UNL     1      37.594 -26.229 -13.708  0.00  0.00    +0.171 C 
ATOM     17  C4* UNL     1      38.558 -25.085 -13.411  0.00  0.00    +0.175 C 
BRANCH  15  18
ATOM     18  O2* UNL     1      35.587 -26.328 -15.100  0.00  0.00    -0.378 OA
ATOM     19  H2* UNL     1      35.254 -26.634 -14.242  0.00  0.00    +0.211 HD
ENDBRANCH  15  18
BRANCH  16  20
ATOM     20  O3* UNL     1      36.684 -26.358 -12.615  0.00  0.00    -0.379 OA
ATOM     21  H3* UNL     1      37.047 -25.907 -11.837  0.00  0.00    +0.211 HD
ENDBRANCH  16  20
BRANCH  17  22
ATOM     22  C5* UNL     1      39.894 -25.235 -14.128  0.00  0.00    +0.169 C 
BRANCH  22  23
ATOM     23  O5* UNL     1      40.031 -26.578 -14.555  0.00  0.00    -0.379 OA
ATOM     24  H5* UNL     1      39.535 -26.708 -15.379  0.00  0.00    +0.211 HD
ENDBRANCH  22  23
ENDBRANCH  17  22
ENDBRANCH   1  14
TORSDOF 5
ENDMDL
MODEL 5
REMARK VINA RESULT:      -8.1      6.192      9.003
REMARK  Name = 23190
REMARK  5 active torsions:
REMARK  status: ('A' for Active; 'I' for Inactive)
REMARK    1  A    between atoms: N_1  and  C1*_14
REMARK    2  A    between atoms: C2*_15  and  O2*_18
REMARK    3  A    between atoms: C3*_16  and  O3*_20
REMARK    4  A    between atoms: C4*_17  and  C5*_22
REMARK    5  A    between atoms: C5*_22  and  O5*_23
REMARK                            x       y       z     vdW  Elec       q    Type
REMARK                         _______ _______ _______ _____ _____    ______ ____
ROOT
ATOM      1  N   UNL     1      36.185 -23.134 -16.131  0.00  0.00    -0.220 NA
ATOM      2  N   UNL     1      37.070 -21.694 -17.580  0.00  0.00    -0.252 NA
ATOM      3  N   UNL     1      33.713 -21.891 -19.132  0.00  0.00    -0.229 NA
ATOM      4  N   UNL     1      35.546 -20.570 -19.908  0.00  0.00    -0.342 N 
ATOM      5  C   UNL     1      35.190 -22.860 -17.036  0.00  0.00    +0.128 C 
ATOM      6  C   UNL     1      37.289 -22.412 -16.500  0.00  0.00    +0.203 C 
ATOM      7  C   UNL     1      35.767 -21.961 -17.927  0.00  0.00    +0.105 C 
ATOM      8  C   UNL     1      33.880 -23.306 -17.151  0.00  0.00    +0.016 C 
ATOM      9  C   UNL     1      34.996 -21.481 -18.987  0.00  0.00    +0.140 C 
ATOM     10  C   UNL     1      33.199 -22.770 -18.235  0.00  0.00    +0.097 C 
ATOM     11  H   UNL     1      34.997 -20.234 -20.654  0.00  0.00    +0.144 HD
ATOM     12  H   UNL     1      36.477 -20.268 -19.807  0.00  0.00    +0.144 HD
ENDROOT
BRANCH   1  14
ATOM     13  O4* UNL     1      35.774 -23.273 -13.798  0.00  0.00    -0.336 OA
ATOM     14  C1* UNL     1      36.097 -24.030 -14.981  0.00  0.00    +0.208 C 
ATOM     15  C2* UNL     1      37.389 -24.770 -14.670  0.00  0.00    +0.183 C 
ATOM     16  C3* UNL     1      37.222 -25.063 -13.192  0.00  0.00    +0.171 C 
ATOM     17  C4* UNL     1      36.534 -23.799 -12.686  0.00  0.00    +0.175 C 
BRANCH  15  18
ATOM     18  O2* UNL     1      37.530 -25.938 -15.453  0.00  0.00    -0.378 OA
ATOM     19  H2* UNL     1      37.017 -26.659 -15.054  0.00  0.00    +0.211 HD
ENDBRANCH  15  18
BRANCH  16  20
ATOM     20  O3* UNL     1      36.334 -26.168 -13.025  0.00  0.00    -0.379 OA
ATOM     21  H3* UNL     1      36.678 -26.936 -13.506  0.00  0.00    +0.211 HD
ENDBRANCH  16  20
BRANCH  17  22
ATOM     22  C5* UNL     1      37.518 -22.731 -12.228  0.00  0.00    +0.169 C 
BRANCH  22  23
ATOM     23  O5* UNL     1      38.638 -23.369 -11.639  0.00  0.00    -0.379 OA
ATOM     24  H5* UNL     1      39.431 -22.830 -11.785  0.00  0.00    +0.211 HD
ENDBRANCH  22  23
ENDBRANCH  17  22
ENDBRANCH   1  14
TORSDOF 5
ENDMDL
MODEL 6
REMARK VINA RESULT:      -8.0      6.906      9.446
REMARK  Name = 23190
REMARK  5 active torsions:
REMARK  status: ('A' for Active; 'I' for Inactive)
REMARK    1  A    between atoms: N_1  and  C1*_14
REMARK    2  A    between atoms: C2*_15  and  O2*_18
REMARK    3  A    between atoms: C3*_16  and  O3*_20
REMARK    4  A    between atoms: C4*_17  and  C5*_22
REMARK    5  A    between atoms: C5*_22  and  O5*_23
REMARK                            x       y       z     vdW  Elec       q    Type
REMARK                         _______ _______ _______ _____ _____    ______ ____
ROOT
ATOM      1  N   UNL     1      34.412 -23.764 -14.656  0.00  0.00    -0.220 NA
ATOM      2  N   UNL     1      32.238 -23.853 -14.183  0.00  0.00    -0.252 NA
ATOM      3  N   UNL     1      31.891 -22.737 -17.698  0.00  0.00    -0.229 NA
ATOM      4  N   UNL     1      30.101 -23.168 -16.176  0.00  0.00    -0.342 N 
ATOM      5  C   UNL     1      33.766 -23.384 -15.806  0.00  0.00    +0.128 C 
ATOM      6  C   UNL     1      33.453 -24.034 -13.715  0.00  0.00    +0.203 C 
ATOM      7  C   UNL     1      32.414 -23.448 -15.485  0.00  0.00    +0.105 C 
ATOM      8  C   UNL     1      34.230 -23.001 -17.057  0.00  0.00    +0.016 C 
ATOM      9  C   UNL     1      31.477 -23.114 -16.464  0.00  0.00    +0.140 C 
ATOM     10  C   UNL     1      33.222 -22.691 -17.958  0.00  0.00    +0.097 C 
ATOM     11  H   UNL     1      29.444 -22.932 -16.870  0.00  0.00    +0.144 HD
ATOM     12  H   UNL     1      29.795 -23.441 -15.281  0.00  0.00    +0.144 HD
ENDROOT
BRANCH   1  14
ATOM     13  O4* UNL     1      36.429 -24.702 -15.480  0.00  0.00    -0.336 OA
ATOM     14  C1* UNL     1      35.855 -23.866 -14.456  0.00  0.00    +0.208 C 
ATOM     15  C2* UNL     1      36.257 -24.487 -13.127  0.00  0.00    +0.183 C 
ATOM     16  C3* UNL     1      37.633 -25.034 -13.453  0.00  0.00    +0.171 C 
ATOM     17  C4* UNL     1      37.456 -25.528 -14.885  0.00  0.00    +0.175 C 
BRANCH  15  18
ATOM     18  O2* UNL     1      36.271 -23.535 -12.083  0.00  0.00    -0.378 OA
ATOM     19  H2* UNL     1      35.362 -23.255 -11.888  0.00  0.00    +0.211 HD
ENDBRANCH  15  18
BRANCH  16  20
ATOM     20  O3* UNL     1      38.580 -23.966 -13.448  0.00  0.00    -0.379 OA
ATOM     21  H3* UNL     1      38.179 -23.175 -13.838  0.00  0.00    +0.211 HD
ENDBRANCH  16  20
BRANCH  17  22
ATOM     22  C5* UNL     1      37.007 -26.981 -14.959  0.00  0.00    +0.169 C 
BRANCH  22  23
ATOM     23  O5* UNL     1      36.749 -27.307 -16.314  0.00  0.00    -0.379 OA
ATOM     24  H5* UNL     1      36.883 -26.521 -16.866  0.00  0.00    +0.211 HD
ENDBRANCH  22  23
ENDBRANCH  17  22
ENDBRANCH   1  14
TORSDOF 5
ENDMDL
MODEL 7
REMARK VINA RESULT:      -8.0      7.024      9.583
REMARK  Name = 23190
REMARK  5 active torsions:
REMARK  status: ('A' for Active; 'I' for Inactive)
REMARK    1  A    between atoms: N_1  and  C1*_14
REMARK    2  A    between atoms: C2*_15  and  O2*_18
REMARK    3  A    between atoms: C3*_16  and  O3*_20
REMARK    4  A    between atoms: C4*_17  and  C5*_22
REMARK    5  A    between atoms: C5*_22  and  O5*_23
REMARK                            x       y       z     vdW  Elec       q    Type
REMARK                         _______ _______ _______ _____ _____    ______ ____
ROOT
ATOM      1  N   UNL     1      34.862 -24.177 -14.577  0.00  0.00    -0.220 NA
ATOM      2  N   UNL     1      33.038 -23.968 -13.318  0.00  0.00    -0.252 NA
ATOM      3  N   UNL     1      31.501 -22.913 -16.519  0.00  0.00    -0.229 NA
ATOM      4  N   UNL     1      30.392 -23.064 -14.408  0.00  0.00    -0.342 N 
ATOM      5  C   UNL     1      33.872 -23.747 -15.427  0.00  0.00    +0.128 C 
ATOM      6  C   UNL     1      34.312 -24.293 -13.328  0.00  0.00    +0.203 C 
ATOM      7  C   UNL     1      32.747 -23.625 -14.618  0.00  0.00    +0.105 C 
ATOM      8  C   UNL     1      33.863 -23.463 -16.785  0.00  0.00    +0.016 C 
ATOM      9  C   UNL     1      31.550 -23.199 -15.195  0.00  0.00    +0.140 C 
ATOM     10  C   UNL     1      32.628 -23.048 -17.262  0.00  0.00    +0.097 C 
ATOM     11  H   UNL     1      29.550 -22.763 -14.821  0.00  0.00    +0.144 HD
ATOM     12  H   UNL     1      30.422 -23.270 -13.446  0.00  0.00    +0.144 HD
ENDROOT
BRANCH   1  14
ATOM     13  O4* UNL     1      36.636 -25.741 -14.390  0.00  0.00    -0.336 OA
ATOM     14  C1* UNL     1      36.251 -24.461 -14.927  0.00  0.00    +0.208 C 
ATOM     15  C2* UNL     1      37.249 -23.453 -14.377  0.00  0.00    +0.183 C 
ATOM     16  C3* UNL     1      38.517 -24.283 -14.320  0.00  0.00    +0.171 C 
ATOM     17  C4* UNL     1      37.992 -25.650 -13.895  0.00  0.00    +0.175 C 
BRANCH  15  18
ATOM     18  O2* UNL     1      37.366 -22.318 -15.210  0.00  0.00    -0.378 OA
ATOM     19  H2* UNL     1      36.877 -22.470 -16.035  0.00  0.00    +0.211 HD
ENDBRANCH  15  18
BRANCH  16  20
ATOM     20  O3* UNL     1      39.071 -24.391 -15.631  0.00  0.00    -0.379 OA
ATOM     21  H3* UNL     1      39.048 -23.524 -16.065  0.00  0.00    +0.211 HD
ENDBRANCH  16  20
BRANCH  17  22
ATOM     22  C5* UNL     1      37.964 -25.830 -12.383  0.00  0.00    +0.169 C 
BRANCH  22  23
ATOM     23  O5* UNL     1      36.801 -26.560 -12.034  0.00  0.00    -0.379 OA
ATOM     24  H5* UNL     1      37.058 -27.416 -11.657  0.00  0.00    +0.211 HD
ENDBRANCH  22  23
ENDBRANCH  17  22
ENDBRANCH   1  14
TORSDOF 5
ENDMDL
MODEL 8
REMARK VINA RESULT:      -7.9      8.081      9.553
REMARK  Name = 23190
REMARK  5 active torsions:
REMARK  status: ('A' for Active; 'I' for Inactive)
REMARK    1  A    between atoms: N_1  and  C1*_14
REMARK    2  A    between atoms: C2*_15  and  O2*_18
REMARK    3  A    between atoms: C3*_16  and  O3*_20
REMARK    4  A    between atoms: C4*_17  and  C5*_22
REMARK    5  A    between atoms: C5*_22  and  O5*_23
REMARK                            x       y       z     vdW  Elec       q    Type
REMARK                         _______ _______ _______ _____ _____    ______ ____
ROOT
ATOM      1  N   UNL     1      33.871 -24.097 -14.631  0.00  0.00    -0.220 NA
ATOM      2  N   UNL     1      35.140 -23.403 -16.324  0.00  0.00    -0.252 NA
ATOM      3  N   UNL     1      37.871 -23.833 -13.858  0.00  0.00    -0.229 NA
ATOM      4  N   UNL     1      38.118 -23.091 -16.116  0.00  0.00    -0.342 N 
ATOM      5  C   UNL     1      35.157 -24.085 -14.150  0.00  0.00    +0.128 C 
ATOM      6  C   UNL     1      33.915 -23.680 -15.935  0.00  0.00    +0.203 C 
ATOM      7  C   UNL     1      35.927 -23.650 -15.223  0.00  0.00    +0.105 C 
ATOM      8  C   UNL     1      35.697 -24.406 -12.911  0.00  0.00    +0.016 C 
ATOM      9  C   UNL     1      37.307 -23.528 -15.053  0.00  0.00    +0.140 C 
ATOM     10  C   UNL     1      37.074 -24.253 -12.844  0.00  0.00    +0.097 C 
ATOM     11  H   UNL     1      39.091 -23.008 -15.990  0.00  0.00    +0.144 HD
ATOM     12  H   UNL     1      37.713 -22.869 -16.985  0.00  0.00    +0.144 HD
ENDROOT
BRANCH   1  14
ATOM     13  O4* UNL     1      31.918 -25.444 -14.663  0.00  0.00    -0.336 OA
ATOM     14  C1* UNL     1      32.668 -24.480 -13.898  0.00  0.00    +0.208 C 
ATOM     15  C2* UNL     1      31.716 -23.326 -13.621  0.00  0.00    +0.183 C 
ATOM     16  C3* UNL     1      30.393 -24.054 -13.475  0.00  0.00    +0.171 C 
ATOM     17  C4* UNL     1      30.508 -25.152 -14.528  0.00  0.00    +0.175 C 
BRANCH  15  18
ATOM     18  O2* UNL     1      32.083 -22.606 -12.462  0.00  0.00    -0.378 OA
ATOM     19  H2* UNL     1      32.149 -21.662 -12.675  0.00  0.00    +0.211 HD
ENDBRANCH  15  18
BRANCH  16  20
ATOM     20  O3* UNL     1      30.326 -24.660 -12.184  0.00  0.00    -0.379 OA
ATOM     21  H3* UNL     1      29.467 -24.464 -11.779  0.00  0.00    +0.211 HD
ENDBRANCH  16  20
BRANCH  17  22
ATOM     22  C5* UNL     1      29.973 -24.726 -15.888  0.00  0.00    +0.169 C 
BRANCH  22  23
ATOM     23  O5* UNL     1      28.741 -24.053 -15.701  0.00  0.00    -0.379 OA
ATOM     24  H5* UNL     1      28.207 -24.532 -15.048  0.00  0.00    +0.211 HD
ENDBRANCH  22  23
ENDBRANCH  17  22
ENDBRANCH   1  14
TORSDOF 5
ENDMDL
MODEL 9
REMARK VINA RESULT:      -7.9      0.946      2.013
REMARK  Name = 23190
REMARK  5 active torsions:
REMARK  status: ('A' for Active; 'I' for Inactive)
REMARK    1  A    between atoms: N_1  and  C1*_14
REMARK    2  A    between atoms: C2*_15  and  O2*_18
REMARK    3  A    between atoms: C3*_16  and  O3*_20
REMARK    4  A    between atoms: C4*_17  and  C5*_22
REMARK    5  A    between atoms: C5*_22  and  O5*_23
REMARK                            x       y       z     vdW  Elec       q    Type
REMARK                         _______ _______ _______ _____ _____    ______ ____
ROOT
ATOM      1  N   UNL     1      35.720 -19.168 -20.766  0.00  0.00    -0.220 NA
ATOM      2  N   UNL     1      36.481 -20.857 -19.531  0.00  0.00    -0.252 NA
ATOM      3  N   UNL     1      32.907 -21.830 -19.478  0.00  0.00    -0.229 NA
ATOM      4  N   UNL     1      34.699 -23.000 -18.417  0.00  0.00    -0.342 N 
ATOM      5  C   UNL     1      34.617 -19.922 -20.451  0.00  0.00    +0.128 C 
ATOM      6  C   UNL     1      36.809 -19.769 -20.193  0.00  0.00    +0.203 C 
ATOM      7  C   UNL     1      35.118 -20.968 -19.682  0.00  0.00    +0.105 C 
ATOM      8  C   UNL     1      33.271 -19.786 -20.759  0.00  0.00    +0.016 C 
ATOM      9  C   UNL     1      34.229 -21.928 -19.197  0.00  0.00    +0.140 C 
ATOM     10  C   UNL     1      32.471 -20.789 -20.232  0.00  0.00    +0.097 C 
ATOM     11  H   UNL     1      34.067 -23.675 -18.077  0.00  0.00    +0.144 HD
ATOM     12  H   UNL     1      35.658 -23.076 -18.210  0.00  0.00    +0.144 HD
ENDROOT
BRANCH   1  14
ATOM     13  O4* UNL     1      35.318 -16.829 -20.757  0.00  0.00    -0.336 OA
ATOM     14  C1* UNL     1      35.743 -17.945 -21.564  0.00  0.00    +0.208 C 
ATOM     15  C2* UNL     1      34.817 -17.972 -22.770  0.00  0.00    +0.183 C 
ATOM     16  C3* UNL     1      34.561 -16.494 -22.989  0.00  0.00    +0.171 C 
ATOM     17  C4* UNL     1      34.487 -15.961 -21.562  0.00  0.00    +0.175 C 
BRANCH  15  18
ATOM     18  O2* UNL     1      35.418 -18.602 -23.883  0.00  0.00    -0.378 OA
ATOM     19  H2* UNL     1      34.976 -18.310 -24.697  0.00  0.00    +0.211 HD
ENDBRANCH  15  18
BRANCH  16  20
ATOM     20  O3* UNL     1      35.690 -15.910 -23.640  0.00  0.00    -0.379 OA
ATOM     21  H3* UNL     1      36.409 -15.795 -23.001  0.00  0.00    +0.211 HD
ENDBRANCH  16  20
BRANCH  17  22
ATOM     22  C5* UNL     1      33.075 -15.985 -20.993  0.00  0.00    +0.169 C 
BRANCH  22  23
ATOM     23  O5* UNL     1      32.277 -15.069 -21.721  0.00  0.00    -0.379 OA
ATOM     24  H5* UNL     1      31.584 -14.713 -21.142  0.00  0.00    +0.211 HD
ENDBRANCH  22  23
ENDBRANCH  17  22
ENDBRANCH   1  14
TORSDOF 5
ENDMDL
