MODEL 1
REMARK VINA RESULT:      -9.9      0.000      0.000
REMARK  Name = 12897341
REMARK  6 active torsions:
REMARK  status: ('A' for Active; 'I' for Inactive)
REMARK    1  A    between atoms: N_2  and  CA_9
REMARK    2  A    between atoms: C_3  and  CA_19
REMARK    3  A    between atoms: CA_13  and  C_16
REMARK    4  A    between atoms: C_16  and  O_17
REMARK    5  A    between atoms: CA_19  and  C_20
REMARK    6  A    between atoms: CA_19  and  N_26
REMARK                            x       y       z     vdW  Elec       q    Type
REMARK                         _______ _______ _______ _____ _____    ______ ____
ROOT
ATOM      1  O   UNL     1      34.562 -17.931 -23.681  0.00  0.00    -0.277 OA
ATOM      2  N   UNL     1      34.540 -16.243 -22.091  0.00  0.00    -0.298 N 
ATOM      3  C   UNL     1      34.977 -17.459 -22.624  0.00  0.00    +0.206 C 
ATOM      4  H   UNL     1      34.926 -15.937 -21.238  0.00  0.00    +0.150 HD
ENDROOT
BRANCH   2   9
ATOM      5 CL   UNL     1      32.473  -9.701 -23.303  0.00  0.00    -0.085 Cl
ATOM      6  O   UNL     1      31.749 -15.077 -20.926  0.00  0.00    -0.273 OA
ATOM      7  N   UNL     1      32.864 -13.517 -22.292  0.00  0.00    -0.251 N 
ATOM      8  C   UNL     1      33.984 -13.964 -23.113  0.00  0.00    +0.107 C 
ATOM      9  CA  UNL     1      33.536 -15.406 -22.744  0.00  0.00    +0.168 C 
ATOM     10  C   UNL     1      33.836 -13.368 -24.498  0.00  0.00    +0.028 C 
ATOM     11  C   UNL     1      32.545 -14.714 -21.760  0.00  0.00    +0.249 C 
ATOM     12  C   UNL     1      33.815 -11.833 -24.346  0.00  0.00    +0.041 C 
ATOM     13  CA  UNL     1      32.449 -12.225 -22.276  0.00  0.00    +0.137 C 
ATOM     14  C   UNL     1      32.906 -11.375 -23.218  0.00  0.00    +0.055 C 
BRANCH  13  16
ATOM     15  OXT UNL     1      31.725 -11.744 -20.064  0.00  0.00    -0.244 OA
ATOM     16  C   UNL     1      31.477 -11.825 -21.251  0.00  0.00    +0.353 C 
BRANCH  16  17
ATOM     17  O   UNL     1      30.290 -11.565 -21.835  0.00  0.00    -0.476 OA
ATOM     18  H   UNL     1      30.041 -10.681 -22.020  0.00  0.00    +0.295 HD
ENDBRANCH  16  17
ENDBRANCH  13  16
ENDBRANCH   2   9
BRANCH   3  19
ATOM     19  CA  UNL     1      36.011 -18.156 -21.748  0.00  0.00    +0.036 C 
BRANCH  19  20
ATOM     20  C   UNL     1      35.390 -19.317 -20.999  0.00  0.00    -0.034 C 
ATOM     21  C   UNL     1      36.216 -20.246 -20.392  0.00  0.00    -0.006 C 
ATOM     22  C   UNL     1      34.013 -19.421 -20.939  0.00  0.00    -0.006 C 
ATOM     23  C   UNL     1      35.644 -21.316 -19.702  0.00  0.00    -0.000 C 
ATOM     24  C   UNL     1      33.441 -20.489 -20.249  0.00  0.00    -0.000 C 
ATOM     25  C   UNL     1      34.256 -21.437 -19.630  0.00  0.00    -0.000 C 
ENDBRANCH  19  20
BRANCH  19  26
ATOM     26  N   UNL     1      37.118 -18.577 -22.612  0.00  0.00    +0.390 N 
ATOM     27  H1  UNL     1      36.988 -18.189 -23.546  0.00  0.00    -0.088 HD
ATOM     28  H2  UNL     1      37.138 -19.596 -22.666  0.00  0.00    -0.088 HD
ATOM     29  H3  UNL     1      38.000 -18.241 -22.224  0.00  0.00    -0.088 HD
ENDBRANCH  19  26
ENDBRANCH   3  19
TORSDOF 6
ENDMDL
MODEL 2
REMARK VINA RESULT:      -9.9      3.394      8.732
REMARK  Name = 12897341
REMARK  6 active torsions:
REMARK  status: ('A' for Active; 'I' for Inactive)
REMARK    1  A    between atoms: N_2  and  CA_9
REMARK    2  A    between atoms: C_3  and  CA_19
REMARK    3  A    between atoms: CA_13  and  C_16
REMARK    4  A    between atoms: C_16  and  O_17
REMARK    5  A    between atoms: CA_19  and  C_20
REMARK    6  A    between atoms: CA_19  and  N_26
REMARK                            x       y       z     vdW  Elec       q    Type
REMARK                         _______ _______ _______ _____ _____    ______ ____
ROOT
ATOM      1  O   UNL     1      31.941 -11.134 -22.428  0.00  0.00    -0.277 OA
ATOM      2  N   UNL     1      33.326 -12.236 -23.927  0.00  0.00    -0.298 N 
ATOM      3  C   UNL     1      32.767 -11.098 -23.338  0.00  0.00    +0.206 C 
ATOM      4  H   UNL     1      33.982 -12.118 -24.651  0.00  0.00    +0.150 HD
ENDROOT
BRANCH   2   9
ATOM      5 CL   UNL     1      35.848 -18.475 -22.123  0.00  0.00    -0.085 Cl
ATOM      6  O   UNL     1      32.827 -14.881 -25.733  0.00  0.00    -0.273 OA
ATOM      7  N   UNL     1      33.992 -15.367 -23.746  0.00  0.00    -0.251 N 
ATOM      8  C   UNL     1      34.060 -14.356 -22.696  0.00  0.00    +0.107 C 
ATOM      9  CA  UNL     1      32.980 -13.594 -23.513  0.00  0.00    +0.168 C 
ATOM     10  C   UNL     1      33.789 -15.024 -21.363  0.00  0.00    +0.028 C 
ATOM     11  C   UNL     1      33.221 -14.676 -24.608  0.00  0.00    +0.249 C 
ATOM     12  C   UNL     1      34.851 -16.124 -21.168  0.00  0.00    +0.041 C 
ATOM     13  CA  UNL     1      34.591 -16.579 -23.623  0.00  0.00    +0.137 C 
ATOM     14  C   UNL     1      35.050 -16.967 -22.416  0.00  0.00    +0.055 C 
BRANCH  13  16
ATOM     15  OXT UNL     1      34.221 -18.562 -24.879  0.00  0.00    -0.244 OA
ATOM     16  C   UNL     1      34.669 -17.434 -24.814  0.00  0.00    +0.353 C 
BRANCH  16  17
ATOM     17  O   UNL     1      35.306 -16.773 -25.801  0.00  0.00    -0.476 OA
ATOM     18  H   UNL     1      35.864 -16.049 -25.597  0.00  0.00    +0.295 HD
ENDBRANCH  16  17
ENDBRANCH  13  16
ENDBRANCH   2   9
BRANCH   3  19
ATOM     19  CA  UNL     1      33.271  -9.799 -23.957  0.00  0.00    +0.036 C 
BRANCH  19  20
ATOM     20  C   UNL     1      32.649  -8.599 -23.274  0.00  0.00    -0.034 C 
ATOM     21  C   UNL     1      31.496  -8.045 -23.801  0.00  0.00    -0.006 C 
ATOM     22  C   UNL     1      33.248  -8.083 -22.139  0.00  0.00    -0.006 C 
ATOM     23  C   UNL     1      30.924  -6.939 -23.173  0.00  0.00    -0.000 C 
ATOM     24  C   UNL     1      32.676  -6.979 -21.509  0.00  0.00    -0.000 C 
ATOM     25  C   UNL     1      31.513  -6.406 -22.026  0.00  0.00    -0.000 C 
ENDBRANCH  19  20
BRANCH  19  26
ATOM     26  N   UNL     1      34.733  -9.798 -23.866  0.00  0.00    +0.390 N 
ATOM     27  H1  UNL     1      35.047 -10.656 -23.413  0.00  0.00    -0.088 HD
ATOM     28  H2  UNL     1      35.039  -8.993 -23.319  0.00  0.00    -0.088 HD
ATOM     29  H3  UNL     1      35.133  -9.742 -24.803  0.00  0.00    -0.088 HD
ENDBRANCH  19  26
ENDBRANCH   3  19
TORSDOF 6
ENDMDL
MODEL 3
REMARK VINA RESULT:      -9.8      3.161      4.790
REMARK  Name = 12897341
REMARK  6 active torsions:
REMARK  status: ('A' for Active; 'I' for Inactive)
REMARK    1  A    between atoms: N_2  and  CA_9
REMARK    2  A    between atoms: C_3  and  CA_19
REMARK    3  A    between atoms: CA_13  and  C_16
REMARK    4  A    between atoms: C_16  and  O_17
REMARK    5  A    between atoms: CA_19  and  C_20
REMARK    6  A    between atoms: CA_19  and  N_26
REMARK                            x       y       z     vdW  Elec       q    Type
REMARK                         _______ _______ _______ _____ _____    ______ ____
ROOT
ATOM      1  O   UNL     1      36.414 -20.692 -20.635  0.00  0.00    -0.277 OA
ATOM      2  N   UNL     1      34.508 -19.373 -20.695  0.00  0.00    -0.298 N 
ATOM      3  C   UNL     1      35.219 -20.536 -20.390  0.00  0.00    +0.206 C 
ATOM      4  H   UNL     1      33.552 -19.331 -20.464  0.00  0.00    +0.150 HD
ENDROOT
BRANCH   2   9
ATOM      5 CL   UNL     1      33.293 -13.491 -24.228  0.00  0.00    -0.085 Cl
ATOM      6  O   UNL     1      35.457 -18.985 -23.770  0.00  0.00    -0.273 OA
ATOM      7  N   UNL     1      34.466 -17.038 -22.893  0.00  0.00    -0.251 N 
ATOM      8  C   UNL     1      34.233 -16.945 -21.456  0.00  0.00    +0.107 C 
ATOM      9  CA  UNL     1      35.122 -18.215 -21.341  0.00  0.00    +0.168 C 
ATOM     10  C   UNL     1      34.666 -15.571 -20.984  0.00  0.00    +0.028 C 
ATOM     11  C   UNL     1      35.063 -18.246 -22.898  0.00  0.00    +0.249 C 
ATOM     12  C   UNL     1      33.843 -14.528 -21.767  0.00  0.00    +0.041 C 
ATOM     13  CA  UNL     1      34.116 -16.045 -23.749  0.00  0.00    +0.137 C 
ATOM     14  C   UNL     1      33.776 -14.838 -23.252  0.00  0.00    +0.055 C 
BRANCH  13  16
ATOM     15  OXT UNL     1      33.198 -16.367 -25.917  0.00  0.00    -0.244 OA
ATOM     16  C   UNL     1      34.171 -16.323 -25.189  0.00  0.00    +0.353 C 
BRANCH  16  17
ATOM     17  O   UNL     1      35.452 -16.514 -25.561  0.00  0.00    -0.476 OA
ATOM     18  H   UNL     1      35.647 -16.989 -26.345  0.00  0.00    +0.295 HD
ENDBRANCH  16  17
ENDBRANCH  13  16
ENDBRANCH   2   9
BRANCH   3  19
ATOM     19  CA  UNL     1      34.354 -21.610 -19.740  0.00  0.00    +0.036 C 
BRANCH  19  20
ATOM     20  C   UNL     1      34.943 -22.049 -18.415  0.00  0.00    -0.034 C 
ATOM     21  C   UNL     1      34.162 -22.783 -17.540  0.00  0.00    -0.006 C 
ATOM     22  C   UNL     1      36.247 -21.706 -18.110  0.00  0.00    -0.006 C 
ATOM     23  C   UNL     1      34.704 -23.187 -16.320  0.00  0.00    -0.000 C 
ATOM     24  C   UNL     1      36.790 -22.109 -16.891  0.00  0.00    -0.000 C 
ATOM     25  C   UNL     1      36.018 -22.850 -15.995  0.00  0.00    -0.000 C 
ENDBRANCH  19  20
BRANCH  19  26
ATOM     26  N   UNL     1      33.000 -21.067 -19.596  0.00  0.00    +0.390 N 
ATOM     27  H1  UNL     1      32.898 -20.245 -20.190  0.00  0.00    -0.088 HD
ATOM     28  H2  UNL     1      32.840 -20.807 -18.623  0.00  0.00    -0.088 HD
ATOM     29  H3  UNL     1      32.319 -21.774 -19.874  0.00  0.00    -0.088 HD
ENDBRANCH  19  26
ENDBRANCH   3  19
TORSDOF 6
ENDMDL
MODEL 4
REMARK VINA RESULT:      -9.5      2.852      3.876
REMARK  Name = 12897341
REMARK  6 active torsions:
REMARK  status: ('A' for Active; 'I' for Inactive)
REMARK    1  A    between atoms: N_2  and  CA_9
REMARK    2  A    between atoms: C_3  and  CA_19
REMARK    3  A    between atoms: CA_13  and  C_16
REMARK    4  A    between atoms: C_16  and  O_17
REMARK    5  A    between atoms: CA_19  and  C_20
REMARK    6  A    between atoms: CA_19  and  N_26
REMARK                            x       y       z     vdW  Elec       q    Type
REMARK                         _______ _______ _______ _____ _____    ______ ____
ROOT
ATOM      1  O   UNL     1      34.937 -18.135 -20.598  0.00  0.00    -0.277 OA
ATOM      2  N   UNL     1      34.349 -18.594 -22.794  0.00  0.00    -0.298 N 
ATOM      3  C   UNL     1      34.414 -18.877 -21.427  0.00  0.00    +0.206 C 
ATOM      4  H   UNL     1      33.910 -19.244 -23.389  0.00  0.00    +0.150 HD
ENDROOT
BRANCH   2   9
ATOM      5 CL   UNL     1      32.913 -12.117 -24.923  0.00  0.00    -0.085 Cl
ATOM      6  O   UNL     1      34.579 -17.715 -25.905  0.00  0.00    -0.273 OA
ATOM      7  N   UNL     1      34.017 -15.905 -24.509  0.00  0.00    -0.251 N 
ATOM      8  C   UNL     1      34.140 -16.058 -23.063  0.00  0.00    +0.107 C 
ATOM      9  CA  UNL     1      34.903 -17.375 -23.378  0.00  0.00    +0.168 C 
ATOM     10  C   UNL     1      34.804 -14.817 -22.500  0.00  0.00    +0.028 C 
ATOM     11  C   UNL     1      34.476 -17.124 -24.855  0.00  0.00    +0.249 C 
ATOM     12  C   UNL     1      33.924 -13.607 -22.876  0.00  0.00    +0.041 C 
ATOM     13  CA  UNL     1      33.574 -14.757 -25.080  0.00  0.00    +0.137 C 
ATOM     14  C   UNL     1      33.479 -13.641 -24.327  0.00  0.00    +0.055 C 
BRANCH  13  16
ATOM     15  OXT UNL     1      33.802 -14.071 -27.344  0.00  0.00    -0.244 OA
ATOM     16  C   UNL     1      33.260 -14.775 -26.513  0.00  0.00    +0.353 C 
BRANCH  16  17
ATOM     17  O   UNL     1      32.293 -15.684 -26.751  0.00  0.00    -0.476 OA
ATOM     18  H   UNL     1      31.525 -15.439 -27.227  0.00  0.00    +0.295 HD
ENDBRANCH  16  17
ENDBRANCH  13  16
ENDBRANCH   2   9
BRANCH   3  19
ATOM     19  CA  UNL     1      33.785 -20.218 -21.066  0.00  0.00    +0.036 C 
BRANCH  19  20
ATOM     20  C   UNL     1      34.585 -20.917 -19.986  0.00  0.00    -0.034 C 
ATOM     21  C   UNL     1      35.956 -20.737 -19.940  0.00  0.00    -0.006 C 
ATOM     22  C   UNL     1      33.927 -21.719 -19.071  0.00  0.00    -0.006 C 
ATOM     23  C   UNL     1      36.693 -21.381 -18.946  0.00  0.00    -0.000 C 
ATOM     24  C   UNL     1      34.663 -22.362 -18.077  0.00  0.00    -0.000 C 
ATOM     25  C   UNL     1      36.048 -22.193 -18.014  0.00  0.00    -0.000 C 
ENDBRANCH  19  20
BRANCH  19  26
ATOM     26  N   UNL     1      32.399 -19.968 -20.660  0.00  0.00    +0.390 N 
ATOM     27  H1  UNL     1      31.794 -19.998 -21.480  0.00  0.00    -0.088 HD
ATOM     28  H2  UNL     1      32.334 -19.049 -20.222  0.00  0.00    -0.088 HD
ATOM     29  H3  UNL     1      32.105 -20.683 -19.994  0.00  0.00    -0.088 HD
ENDBRANCH  19  26
ENDBRANCH   3  19
TORSDOF 6
ENDMDL
MODEL 5
REMARK VINA RESULT:      -9.5      2.172      3.077
REMARK  Name = 12897341
REMARK  6 active torsions:
REMARK  status: ('A' for Active; 'I' for Inactive)
REMARK    1  A    between atoms: N_2  and  CA_9
REMARK    2  A    between atoms: C_3  and  CA_19
REMARK    3  A    between atoms: CA_13  and  C_16
REMARK    4  A    between atoms: C_16  and  O_17
REMARK    5  A    between atoms: CA_19  and  C_20
REMARK    6  A    between atoms: CA_19  and  N_26
REMARK                            x       y       z     vdW  Elec       q    Type
REMARK                         _______ _______ _______ _____ _____    ______ ____
ROOT
ATOM      1  O   UNL     1      36.020 -18.351 -20.726  0.00  0.00    -0.277 OA
ATOM      2  N   UNL     1      33.914 -17.588 -21.327  0.00  0.00    -0.298 N 
ATOM      3  C   UNL     1      34.854 -18.582 -21.043  0.00  0.00    +0.206 C 
ATOM      4  H   UNL     1      33.000 -17.861 -21.572  0.00  0.00    +0.150 HD
ENDROOT
BRANCH   2   9
ATOM      5 CL   UNL     1      31.583 -11.174 -22.729  0.00  0.00    -0.085 Cl
ATOM      6  O   UNL     1      35.313 -15.699 -23.558  0.00  0.00    -0.273 OA
ATOM      7  N   UNL     1      33.563 -14.599 -22.432  0.00  0.00    -0.251 N 
ATOM      8  C   UNL     1      33.011 -15.196 -21.221  0.00  0.00    +0.107 C 
ATOM      9  CA  UNL     1      34.227 -16.162 -21.275  0.00  0.00    +0.168 C 
ATOM     10  C   UNL     1      32.847 -14.110 -20.176  0.00  0.00    +0.028 C 
ATOM     11  C   UNL     1      34.517 -15.521 -22.665  0.00  0.00    +0.249 C 
ATOM     12  C   UNL     1      31.909 -13.036 -20.764  0.00  0.00    +0.041 C 
ATOM     13  CA  UNL     1      33.092 -13.433 -22.943  0.00  0.00    +0.137 C 
ATOM     14  C   UNL     1      32.269 -12.671 -22.193  0.00  0.00    +0.055 C 
BRANCH  13  16
ATOM     15  OXT UNL     1      33.197 -13.576 -25.312  0.00  0.00    -0.244 OA
ATOM     16  C   UNL     1      33.544 -13.033 -24.281  0.00  0.00    +0.353 C 
BRANCH  16  17
ATOM     17  O   UNL     1      34.386 -11.986 -24.177  0.00  0.00    -0.476 OA
ATOM     18  H   UNL     1      34.057 -11.141 -23.944  0.00  0.00    +0.295 HD
ENDBRANCH  16  17
ENDBRANCH  13  16
ENDBRANCH   2   9
BRANCH   3  19
ATOM     19  CA  UNL     1      34.293 -19.992 -21.186  0.00  0.00    +0.036 C 
BRANCH  19  20
ATOM     20  C   UNL     1      34.697 -20.857 -20.010  0.00  0.00    -0.034 C 
ATOM     21  C   UNL     1      36.025 -20.888 -19.622  0.00  0.00    -0.006 C 
ATOM     22  C   UNL     1      33.731 -21.596 -19.352  0.00  0.00    -0.006 C 
ATOM     23  C   UNL     1      36.397 -21.685 -18.539  0.00  0.00    -0.000 C 
ATOM     24  C   UNL     1      34.103 -22.392 -18.270  0.00  0.00    -0.000 C 
ATOM     25  C   UNL     1      35.437 -22.437 -17.863  0.00  0.00    -0.000 C 
ENDBRANCH  19  20
BRANCH  19  26
ATOM     26  N   UNL     1      32.838 -19.883 -21.325  0.00  0.00    +0.390 N 
ATOM     27  H1  UNL     1      32.581 -18.904 -21.454  0.00  0.00    -0.088 HD
ATOM     28  H2  UNL     1      32.389 -20.243 -20.483  0.00  0.00    -0.088 HD
ATOM     29  H3  UNL     1      32.531 -20.425 -22.132  0.00  0.00    -0.088 HD
ENDBRANCH  19  26
ENDBRANCH   3  19
TORSDOF 6
ENDMDL
MODEL 6
REMARK VINA RESULT:      -9.1      2.220      3.461
REMARK  Name = 12897341
REMARK  6 active torsions:
REMARK  status: ('A' for Active; 'I' for Inactive)
REMARK    1  A    between atoms: N_2  and  CA_9
REMARK    2  A    between atoms: C_3  and  CA_19
REMARK    3  A    between atoms: CA_13  and  C_16
REMARK    4  A    between atoms: C_16  and  O_17
REMARK    5  A    between atoms: CA_19  and  C_20
REMARK    6  A    between atoms: CA_19  and  N_26
REMARK                            x       y       z     vdW  Elec       q    Type
REMARK                         _______ _______ _______ _____ _____    ______ ____
ROOT
ATOM      1  O   UNL     1      34.681 -14.381 -23.261  0.00  0.00    -0.277 OA
ATOM      2  N   UNL     1      32.672 -13.764 -22.280  0.00  0.00    -0.298 N 
ATOM      3  C   UNL     1      33.808 -14.567 -22.414  0.00  0.00    +0.206 C 
ATOM      4  H   UNL     1      32.022 -13.983 -21.574  0.00  0.00    +0.150 HD
ENDROOT
BRANCH   2   9
ATOM      5 CL   UNL     1      34.592  -7.259 -23.872  0.00  0.00    -0.085 Cl
ATOM      6  O   UNL     1      30.717 -11.226 -21.792  0.00  0.00    -0.273 OA
ATOM      7  N   UNL     1      32.733 -10.608 -22.839  0.00  0.00    -0.251 N 
ATOM      8  C   UNL     1      33.601 -11.648 -23.379  0.00  0.00    +0.107 C 
ATOM      9  CA  UNL     1      32.407 -12.614 -23.141  0.00  0.00    +0.168 C 
ATOM     10  C   UNL     1      34.074 -11.219 -24.753  0.00  0.00    +0.028 C 
ATOM     11  C   UNL     1      31.738 -11.411 -22.412  0.00  0.00    +0.249 C 
ATOM     12  C   UNL     1      34.818  -9.878 -24.593  0.00  0.00    +0.041 C 
ATOM     13  CA  UNL     1      33.053  -9.291 -22.907  0.00  0.00    +0.137 C 
ATOM     14  C   UNL     1      34.067  -8.901 -23.706  0.00  0.00    +0.055 C 
BRANCH  13  16
ATOM     15  OXT UNL     1      31.342  -7.670 -22.603  0.00  0.00    -0.244 OA
ATOM     16  C   UNL     1      32.241  -8.342 -22.136  0.00  0.00    +0.353 C 
BRANCH  16  17
ATOM     17  O   UNL     1      32.649  -8.342 -20.851  0.00  0.00    -0.476 OA
ATOM     18  H   UNL     1      32.520  -7.583 -20.318  0.00  0.00    +0.295 HD
ENDBRANCH  16  17
ENDBRANCH  13  16
ENDBRANCH   2   9
BRANCH   3  19
ATOM     19  CA  UNL     1      33.847 -15.716 -21.414  0.00  0.00    +0.036 C 
BRANCH  19  20
ATOM     20  C   UNL     1      34.259 -17.008 -22.090  0.00  0.00    -0.034 C 
ATOM     21  C   UNL     1      34.267 -18.180 -21.356  0.00  0.00    -0.006 C 
ATOM     22  C   UNL     1      34.617 -16.985 -23.426  0.00  0.00    -0.006 C 
ATOM     23  C   UNL     1      34.646 -19.369 -21.978  0.00  0.00    -0.000 C 
ATOM     24  C   UNL     1      34.995 -18.174 -24.049  0.00  0.00    -0.000 C 
ATOM     25  C   UNL     1      35.010 -19.367 -23.325  0.00  0.00    -0.000 C 
ENDBRANCH  19  20
BRANCH  19  26
ATOM     26  N   UNL     1      34.761 -15.337 -20.332  0.00  0.00    +0.390 N 
ATOM     27  H1  UNL     1      35.722 -15.517 -20.620  0.00  0.00    -0.088 HD
ATOM     28  H2  UNL     1      34.546 -15.884 -19.499  0.00  0.00    -0.088 HD
ATOM     29  H3  UNL     1      34.648 -14.344 -20.124  0.00  0.00    -0.088 HD
ENDBRANCH  19  26
ENDBRANCH   3  19
TORSDOF 6
ENDMDL
MODEL 7
REMARK VINA RESULT:      -9.0      7.565     11.335
REMARK  Name = 12897341
REMARK  6 active torsions:
REMARK  status: ('A' for Active; 'I' for Inactive)
REMARK    1  A    between atoms: N_2  and  CA_9
REMARK    2  A    between atoms: C_3  and  CA_19
REMARK    3  A    between atoms: CA_13  and  C_16
REMARK    4  A    between atoms: C_16  and  O_17
REMARK    5  A    between atoms: CA_19  and  C_20
REMARK    6  A    between atoms: CA_19  and  N_26
REMARK                            x       y       z     vdW  Elec       q    Type
REMARK                         _______ _______ _______ _____ _____    ______ ____
ROOT
ATOM      1  O   UNL     1      33.920 -23.768 -19.059  0.00  0.00    -0.277 OA
ATOM      2  N   UNL     1      34.479 -22.386 -17.282  0.00  0.00    -0.298 N 
ATOM      3  C   UNL     1      33.979 -22.645 -18.562  0.00  0.00    +0.206 C 
ATOM      4  H   UNL     1      34.490 -21.455 -16.960  0.00  0.00    +0.150 HD
ENDROOT
BRANCH   2   9
ATOM      5 CL   UNL     1      35.640 -24.217 -10.661  0.00  0.00    -0.085 Cl
ATOM      6  O   UNL     1      37.471 -22.846 -16.124  0.00  0.00    -0.273 OA
ATOM      7  N   UNL     1      35.813 -23.329 -14.524  0.00  0.00    -0.251 N 
ATOM      8  C   UNL     1      34.423 -23.441 -14.952  0.00  0.00    +0.107 C 
ATOM      9  CA  UNL     1      34.985 -23.435 -16.401  0.00  0.00    +0.168 C 
ATOM     10  C   UNL     1      33.812 -24.661 -14.293  0.00  0.00    +0.028 C 
ATOM     11  C   UNL     1      36.356 -23.106 -15.738  0.00  0.00    +0.249 C 
ATOM     12  C   UNL     1      33.927 -24.474 -12.767  0.00  0.00    +0.041 C 
ATOM     13  CA  UNL     1      36.186 -23.479 -13.228  0.00  0.00    +0.137 C 
ATOM     14  C   UNL     1      35.303 -23.990 -12.344  0.00  0.00    +0.055 C 
BRANCH  13  16
ATOM     15  OXT UNL     1      37.854 -22.165 -12.162  0.00  0.00    -0.244 OA
ATOM     16  C   UNL     1      37.559 -23.118 -12.857  0.00  0.00    +0.353 C 
BRANCH  16  17
ATOM     17  O   UNL     1      38.419 -24.001 -13.402  0.00  0.00    -0.476 OA
ATOM     18  H   UNL     1      38.197 -24.441 -14.199  0.00  0.00    +0.295 HD
ENDBRANCH  16  17
ENDBRANCH  13  16
ENDBRANCH   2   9
BRANCH   3  19
ATOM     19  CA  UNL     1      33.532 -21.384 -19.293  0.00  0.00    +0.036 C 
BRANCH  19  20
ATOM     20  C   UNL     1      34.718 -20.658 -19.894  0.00  0.00    -0.034 C 
ATOM     21  C   UNL     1      34.495 -19.641 -20.804  0.00  0.00    -0.006 C 
ATOM     22  C   UNL     1      35.997 -21.029 -19.519  0.00  0.00    -0.006 C 
ATOM     23  C   UNL     1      35.588 -18.973 -21.358  0.00  0.00    -0.000 C 
ATOM     24  C   UNL     1      37.089 -20.362 -20.071  0.00  0.00    -0.000 C 
ATOM     25  C   UNL     1      36.885 -19.332 -20.992  0.00  0.00    -0.000 C 
ENDBRANCH  19  20
BRANCH  19  26
ATOM     26  N   UNL     1      32.548 -21.779 -20.304  0.00  0.00    +0.390 N 
ATOM     27  H1  UNL     1      32.743 -21.290 -21.178  0.00  0.00    -0.088 HD
ATOM     28  H2  UNL     1      31.612 -21.536 -19.980  0.00  0.00    -0.088 HD
ATOM     29  H3  UNL     1      32.604 -22.786 -20.459  0.00  0.00    -0.088 HD
ENDBRANCH  19  26
ENDBRANCH   3  19
TORSDOF 6
ENDMDL
MODEL 8
REMARK VINA RESULT:      -8.9      1.782      2.382
REMARK  Name = 12897341
REMARK  6 active torsions:
REMARK  status: ('A' for Active; 'I' for Inactive)
REMARK    1  A    between atoms: N_2  and  CA_9
REMARK    2  A    between atoms: C_3  and  CA_19
REMARK    3  A    between atoms: CA_13  and  C_16
REMARK    4  A    between atoms: C_16  and  O_17
REMARK    5  A    between atoms: CA_19  and  C_20
REMARK    6  A    between atoms: CA_19  and  N_26
REMARK                            x       y       z     vdW  Elec       q    Type
REMARK                         _______ _______ _______ _____ _____    ______ ____
ROOT
ATOM      1  O   UNL     1      34.781 -18.323 -23.454  0.00  0.00    -0.277 OA
ATOM      2  N   UNL     1      34.520 -16.601 -21.923  0.00  0.00    -0.298 N 
ATOM      3  C   UNL     1      35.074 -17.799 -22.380  0.00  0.00    +0.206 C 
ATOM      4  H   UNL     1      34.811 -16.250 -21.050  0.00  0.00    +0.150 HD
ENDROOT
BRANCH   2   9
ATOM      5 CL   UNL     1      33.568 -11.851 -26.930  0.00  0.00    -0.085 Cl
ATOM      6  O   UNL     1      33.227 -13.692 -21.312  0.00  0.00    -0.273 OA
ATOM      7  N   UNL     1      33.654 -14.012 -23.604  0.00  0.00    -0.251 N 
ATOM      8  C   UNL     1      33.974 -15.351 -24.088  0.00  0.00    +0.107 C 
ATOM      9  CA  UNL     1      33.528 -15.845 -22.683  0.00  0.00    +0.168 C 
ATOM     10  C   UNL     1      33.187 -15.608 -25.357  0.00  0.00    +0.028 C 
ATOM     11  C   UNL     1      33.454 -14.333 -22.311  0.00  0.00    +0.249 C 
ATOM     12  C   UNL     1      33.581 -14.521 -26.378  0.00  0.00    +0.041 C 
ATOM     13  CA  UNL     1      33.607 -12.937 -24.431  0.00  0.00    +0.137 C 
ATOM     14  C   UNL     1      33.607 -13.132 -25.765  0.00  0.00    +0.055 C 
BRANCH  13  16
ATOM     15  OXT UNL     1      32.520 -11.172 -23.267  0.00  0.00    -0.244 OA
ATOM     16  C   UNL     1      33.511 -11.603 -23.824  0.00  0.00    +0.353 C 
BRANCH  16  17
ATOM     17  O   UNL     1      34.681 -10.952 -23.983  0.00  0.00    -0.476 OA
ATOM     18  H   UNL     1      34.740 -10.039 -23.784  0.00  0.00    +0.295 HD
ENDBRANCH  16  17
ENDBRANCH  13  16
ENDBRANCH   2   9
BRANCH   3  19
ATOM     19  CA  UNL     1      36.069 -18.409 -21.399  0.00  0.00    +0.036 C 
BRANCH  19  20
ATOM     20  C   UNL     1      35.476 -19.621 -20.711  0.00  0.00    -0.034 C 
ATOM     21  C   UNL     1      34.101 -19.771 -20.676  0.00  0.00    -0.006 C 
ATOM     22  C   UNL     1      36.322 -20.550 -20.135  0.00  0.00    -0.006 C 
ATOM     23  C   UNL     1      33.555 -20.887 -20.042  0.00  0.00    -0.000 C 
ATOM     24  C   UNL     1      35.777 -21.667 -19.502  0.00  0.00    -0.000 C 
ATOM     25  C   UNL     1      34.393 -21.836 -19.455  0.00  0.00    -0.000 C 
ENDBRANCH  19  20
BRANCH  19  26
ATOM     26  N   UNL     1      37.291 -18.729 -22.142  0.00  0.00    +0.390 N 
ATOM     27  H1  UNL     1      37.986 -19.114 -21.503  0.00  0.00    -0.088 HD
ATOM     28  H2  UNL     1      37.658 -17.882 -22.575  0.00  0.00    -0.088 HD
ATOM     29  H3  UNL     1      37.078 -19.415 -22.867  0.00  0.00    -0.088 HD
ENDBRANCH  19  26
ENDBRANCH   3  19
TORSDOF 6
ENDMDL
MODEL 9
REMARK VINA RESULT:      -8.8      3.776      9.245
REMARK  Name = 12897341
REMARK  6 active torsions:
REMARK  status: ('A' for Active; 'I' for Inactive)
REMARK    1  A    between atoms: N_2  and  CA_9
REMARK    2  A    between atoms: C_3  and  CA_19
REMARK    3  A    between atoms: CA_13  and  C_16
REMARK    4  A    between atoms: C_16  and  O_17
REMARK    5  A    between atoms: CA_19  and  C_20
REMARK    6  A    between atoms: CA_19  and  N_26
REMARK                            x       y       z     vdW  Elec       q    Type
REMARK                         _______ _______ _______ _____ _____    ______ ____
ROOT
ATOM      1  O   UNL     1      31.414  -9.809 -22.857  0.00  0.00    -0.277 OA
ATOM      2  N   UNL     1      33.154 -10.988 -23.836  0.00  0.00    -0.298 N 
ATOM      3  C   UNL     1      32.490  -9.820 -23.452  0.00  0.00    +0.206 C 
ATOM      4  H   UNL     1      34.014 -10.907 -24.309  0.00  0.00    +0.150 HD
ENDROOT
BRANCH   2   9
ATOM      5 CL   UNL     1      34.517 -17.192 -20.973  0.00  0.00    -0.085 Cl
ATOM      6  O   UNL     1      33.375 -13.691 -25.611  0.00  0.00    -0.273 OA
ATOM      7  N   UNL     1      33.593 -14.120 -23.307  0.00  0.00    -0.251 N 
ATOM      8  C   UNL     1      33.248 -13.071 -22.353  0.00  0.00    +0.107 C 
ATOM      9  CA  UNL     1      32.628 -12.324 -23.567  0.00  0.00    +0.168 C 
ATOM     10  C   UNL     1      32.428 -13.685 -21.236  0.00  0.00    +0.028 C 
ATOM     11  C   UNL     1      33.271 -13.450 -24.431  0.00  0.00    +0.249 C 
ATOM     12  C   UNL     1      33.281 -14.793 -20.586  0.00  0.00    +0.041 C 
ATOM     13  CA  UNL     1      34.052 -15.334 -22.913  0.00  0.00    +0.137 C 
ATOM     14  C   UNL     1      33.956 -15.684 -21.613  0.00  0.00    +0.055 C 
BRANCH  13  16
ATOM     15  OXT UNL     1      33.921 -16.801 -24.778  0.00  0.00    -0.244 OA
ATOM     16  C   UNL     1      34.593 -16.235 -23.938  0.00  0.00    +0.353 C 
BRANCH  16  17
ATOM     17  O   UNL     1      35.931 -16.324 -23.797  0.00  0.00    -0.476 OA
ATOM     18  H   UNL     1      36.365 -15.839 -23.123  0.00  0.00    +0.295 HD
ENDBRANCH  16  17
ENDBRANCH  13  16
ENDBRANCH   2   9
BRANCH   3  19
ATOM     19  CA  UNL     1      33.228  -8.552 -23.864  0.00  0.00    +0.036 C 
BRANCH  19  20
ATOM     20  C   UNL     1      32.502  -7.318 -23.368  0.00  0.00    -0.034 C 
ATOM     21  C   UNL     1      31.753  -6.573 -24.260  0.00  0.00    -0.006 C 
ATOM     22  C   UNL     1      32.606  -6.966 -22.035  0.00  0.00    -0.006 C 
ATOM     23  C   UNL     1      31.085  -5.436 -23.804  0.00  0.00    -0.000 C 
ATOM     24  C   UNL     1      31.938  -5.831 -21.578  0.00  0.00    -0.000 C 
ATOM     25  C   UNL     1      31.177  -5.065 -22.462  0.00  0.00    -0.000 C 
ENDBRANCH  19  20
BRANCH  19  26
ATOM     26  N   UNL     1      34.596  -8.641 -23.346  0.00  0.00    +0.390 N 
ATOM     27  H1  UNL     1      35.039  -9.489 -23.699  0.00  0.00    -0.088 HD
ATOM     28  H2  UNL     1      34.571  -8.669 -22.326  0.00  0.00    -0.088 HD
ATOM     29  H3  UNL     1      35.130  -7.827 -23.650  0.00  0.00    -0.088 HD
ENDBRANCH  19  26
ENDBRANCH   3  19
TORSDOF 6
ENDMDL
