MODEL 1
REMARK VINA RESULT:     -10.1      0.000      0.000
REMARK  Name = 6449876
REMARK  10 active torsions:
REMARK  status: ('A' for Active; 'I' for Inactive)
REMARK    1  A    between atoms: C_1  and  C_19
REMARK    2  A    between atoms: C_2  and  N_8
REMARK    3  A    between atoms: N_7  and  C_13
REMARK    4  A    between atoms: N_9  and  C_18
REMARK    5  A    between atoms: C_19  and  C_22
REMARK    6  A    between atoms: C_20  and  C_27
REMARK    7  A    between atoms: C_27  and  C_28
REMARK    8  A    between atoms: C_28  and  C_29
REMARK    9  A    between atoms: C_29  and  C_31
REMARK   10  A    between atoms: C_31  and  O_32
REMARK                            x       y       z     vdW  Elec       q    Type
REMARK                         _______ _______ _______ _____ _____    ______ ____
ROOT
ATOM      1  C   UNL     1      33.351  -9.491 -23.480  0.00  0.00    +0.001 C 
ATOM      2  C   UNL     1      33.955 -11.545 -24.601  0.00  0.00    +0.059 C 
ATOM      3  C   UNL     1      33.143 -10.853 -23.702  0.00  0.00    +0.017 C 
ATOM      4  C   UNL     1      34.370  -8.822 -24.159  0.00  0.00    +0.000 C 
ATOM      5  C   UNL     1      34.974 -10.876 -25.278  0.00  0.00    +0.017 C 
ATOM      6  C   UNL     1      35.182  -9.515 -25.058  0.00  0.00    +0.001 C 
ENDROOT
BRANCH   2   8
ATOM      7  N   UNL     1      34.057 -13.915 -22.665  0.00  0.00    -0.243 NA
ATOM      8  N   UNL     1      33.744 -12.921 -24.826  0.00  0.00    -0.324 N 
ATOM      9  N   UNL     1      33.596 -15.282 -24.534  0.00  0.00    -0.263 N 
ATOM     10  C   UNL     1      33.795 -13.983 -23.933  0.00  0.00    +0.211 C 
ATOM     11  H   UNL     1      33.530 -13.166 -25.755  0.00  0.00    +0.169 HD
ATOM     12  H   UNL     1      33.655 -16.108 -24.001  0.00  0.00    +0.181 HD
BRANCH   7  13
ATOM     13  C   UNL     1      34.132 -15.165 -21.922  0.00  0.00    +0.088 C 
ATOM     14  C   UNL     1      35.022 -16.135 -22.700  0.00  0.00    +0.024 C 
ATOM     15  C   UNL     1      34.738 -14.861 -20.552  0.00  0.00    +0.024 C 
ATOM     16  C   UNL     1      32.718 -15.725 -21.772  0.00  0.00    +0.024 C 
ENDBRANCH   7  13
BRANCH   9  18
ATOM     17  N   UNL     1      33.097 -15.333 -26.985  0.00  0.00    -0.171 NA
ATOM     18  C   UNL     1      33.328 -15.314 -25.849  0.00  0.00    +0.184 C 
ENDBRANCH   9  18
ENDBRANCH   2   8
BRANCH   1  19
ATOM     19  C   UNL     1      32.487  -8.754 -22.525  0.00  0.00    -0.003 C 
ATOM     20  C   UNL     1      32.154  -7.481 -22.831  0.00  0.00    -0.026 C 
BRANCH  19  22
ATOM     21  N   UNL     1      31.957  -9.319 -18.845  0.00  0.00    -0.242 NA
ATOM     22  C   UNL     1      32.011  -9.359 -21.263  0.00  0.00    +0.019 C 
ATOM     23  C   UNL     1      31.203 -10.490 -21.269  0.00  0.00    +0.003 C 
ATOM     24  C   UNL     1      32.356  -8.816 -20.035  0.00  0.00    +0.099 C 
ATOM     25  C   UNL     1      30.771 -11.037 -20.066  0.00  0.00    +0.021 C 
ATOM     26  C   UNL     1      31.172 -10.419 -18.892  0.00  0.00    +0.099 C 
ENDBRANCH  19  22
BRANCH  20  27
ATOM     27  C   UNL     1      32.556  -6.689 -24.049  0.00  0.00    +0.027 C 
BRANCH  27  28
ATOM     28  C   UNL     1      31.383  -5.848 -24.563  0.00  0.00    +0.016 C 
BRANCH  28  29
ATOM     29  C   UNL     1      31.621  -4.349 -24.384  0.00  0.00    +0.110 C 
BRANCH  29  31
ATOM     30  O   UNL     1      30.311  -4.377 -22.329  0.00  0.00    -0.250 OA
ATOM     31  C   UNL     1      31.127  -3.824 -23.053  0.00  0.00    +0.314 C 
BRANCH  31  32
ATOM     32  O   UNL     1      31.722  -2.645 -22.733  0.00  0.00    -0.480 OA
ATOM     33  H   UNL     1      32.653  -2.557 -22.800  0.00  0.00    +0.295 HD
ENDBRANCH  31  32
ENDBRANCH  29  31
ENDBRANCH  28  29
ENDBRANCH  27  28
ENDBRANCH  20  27
ENDBRANCH   1  19
TORSDOF 10
ENDMDL
MODEL 2
REMARK VINA RESULT:      -9.5      2.526      4.443
REMARK  Name = 6449876
REMARK  10 active torsions:
REMARK  status: ('A' for Active; 'I' for Inactive)
REMARK    1  A    between atoms: C_1  and  C_19
REMARK    2  A    between atoms: C_2  and  N_8
REMARK    3  A    between atoms: N_7  and  C_13
REMARK    4  A    between atoms: N_9  and  C_18
REMARK    5  A    between atoms: C_19  and  C_22
REMARK    6  A    between atoms: C_20  and  C_27
REMARK    7  A    between atoms: C_27  and  C_28
REMARK    8  A    between atoms: C_28  and  C_29
REMARK    9  A    between atoms: C_29  and  C_31
REMARK   10  A    between atoms: C_31  and  O_32
REMARK                            x       y       z     vdW  Elec       q    Type
REMARK                         _______ _______ _______ _____ _____    ______ ____
ROOT
ATOM      1  C   UNL     1      33.366  -8.581 -23.307  0.00  0.00    +0.001 C 
ATOM      2  C   UNL     1      33.873 -10.703 -24.346  0.00  0.00    +0.059 C 
ATOM      3  C   UNL     1      32.987  -9.879 -23.652  0.00  0.00    +0.017 C 
ATOM      4  C   UNL     1      34.631  -8.107 -23.658  0.00  0.00    +0.000 C 
ATOM      5  C   UNL     1      35.137 -10.230 -24.696  0.00  0.00    +0.017 C 
ATOM      6  C   UNL     1      35.517  -8.932 -24.352  0.00  0.00    +0.001 C 
ENDROOT
BRANCH   2   8
ATOM      7  N   UNL     1      33.978 -13.301 -22.730  0.00  0.00    -0.243 NA
ATOM      8  N   UNL     1      33.491 -12.014 -24.695  0.00  0.00    -0.324 N 
ATOM      9  N   UNL     1      33.134 -14.370 -24.658  0.00  0.00    -0.263 N 
ATOM     10  C   UNL     1      33.546 -13.182 -23.947  0.00  0.00    +0.211 C 
ATOM     11  H   UNL     1      33.131 -12.118 -25.606  0.00  0.00    +0.169 HD
ATOM     12  H   UNL     1      33.174 -15.260 -24.238  0.00  0.00    +0.181 HD
BRANCH   7  13
ATOM     13  C   UNL     1      34.018 -14.638 -22.154  0.00  0.00    +0.088 C 
ATOM     14  C   UNL     1      34.785 -15.552 -23.111  0.00  0.00    +0.024 C 
ATOM     15  C   UNL     1      34.735 -14.547 -20.807  0.00  0.00    +0.024 C 
ATOM     16  C   UNL     1      32.582 -15.127 -21.967  0.00  0.00    +0.024 C 
ENDBRANCH   7  13
BRANCH   9  18
ATOM     17  N   UNL     1      32.320 -14.073 -27.005  0.00  0.00    -0.171 NA
ATOM     18  C   UNL     1      32.692 -14.210 -25.915  0.00  0.00    +0.184 C 
ENDBRANCH   9  18
ENDBRANCH   2   8
BRANCH   1  19
ATOM     19  C   UNL     1      32.423  -7.703 -22.570  0.00  0.00    -0.003 C 
ATOM     20  C   UNL     1      32.089  -8.056 -21.309  0.00  0.00    -0.026 C 
BRANCH  19  22
ATOM     21  N   UNL     1      30.487  -4.499 -22.922  0.00  0.00    -0.242 NA
ATOM     22  C   UNL     1      31.836  -6.490 -23.177  0.00  0.00    +0.019 C 
ATOM     23  C   UNL     1      32.048  -6.183 -24.516  0.00  0.00    +0.003 C 
ATOM     24  C   UNL     1      31.055  -5.623 -22.429  0.00  0.00    +0.099 C 
ATOM     25  C   UNL     1      31.481  -5.036 -25.060  0.00  0.00    +0.021 C 
ATOM     26  C   UNL     1      30.716  -4.234 -24.227  0.00  0.00    +0.099 C 
ENDBRANCH  19  22
BRANCH  20  27
ATOM     27  C   UNL     1      32.563  -9.257 -20.531  0.00  0.00    +0.027 C 
BRANCH  27  28
ATOM     28  C   UNL     1      31.685  -9.487 -19.297  0.00  0.00    +0.016 C 
BRANCH  28  29
ATOM     29  C   UNL     1      30.705 -10.645 -19.488  0.00  0.00    +0.110 C 
BRANCH  29  31
ATOM     30  O   UNL     1      30.657 -11.531 -21.758  0.00  0.00    -0.250 OA
ATOM     31  C   UNL     1      31.096 -11.574 -20.618  0.00  0.00    +0.314 C 
BRANCH  31  32
ATOM     32  O   UNL     1      32.033 -12.473 -20.217  0.00  0.00    -0.480 OA
ATOM     33  H   UNL     1      32.847 -12.538 -20.675  0.00  0.00    +0.295 HD
ENDBRANCH  31  32
ENDBRANCH  29  31
ENDBRANCH  28  29
ENDBRANCH  27  28
ENDBRANCH  20  27
ENDBRANCH   1  19
TORSDOF 10
ENDMDL
MODEL 3
REMARK VINA RESULT:      -9.4      3.598      8.062
REMARK  Name = 6449876
REMARK  10 active torsions:
REMARK  status: ('A' for Active; 'I' for Inactive)
REMARK    1  A    between atoms: C_1  and  C_19
REMARK    2  A    between atoms: C_2  and  N_8
REMARK    3  A    between atoms: N_7  and  C_13
REMARK    4  A    between atoms: N_9  and  C_18
REMARK    5  A    between atoms: C_19  and  C_22
REMARK    6  A    between atoms: C_20  and  C_27
REMARK    7  A    between atoms: C_27  and  C_28
REMARK    8  A    between atoms: C_28  and  C_29
REMARK    9  A    between atoms: C_29  and  C_31
REMARK   10  A    between atoms: C_31  and  O_32
REMARK                            x       y       z     vdW  Elec       q    Type
REMARK                         _______ _______ _______ _____ _____    ______ ____
ROOT
ATOM      1  C   UNL     1      33.896 -15.537 -22.699  0.00  0.00    +0.001 C 
ATOM      2  C   UNL     1      33.672 -13.143 -22.946  0.00  0.00    +0.059 C 
ATOM      3  C   UNL     1      34.248 -14.350 -23.343  0.00  0.00    +0.017 C 
ATOM      4  C   UNL     1      32.966 -15.516 -21.659  0.00  0.00    +0.000 C 
ATOM      5  C   UNL     1      32.743 -13.123 -21.906  0.00  0.00    +0.017 C 
ATOM      6  C   UNL     1      32.391 -14.309 -21.262  0.00  0.00    +0.001 C 
ENDROOT
BRANCH   2   8
ATOM      7  N   UNL     1      32.804 -10.258 -22.408  0.00  0.00    -0.243 NA
ATOM      8  N   UNL     1      34.027 -11.944 -23.597  0.00  0.00    -0.324 N 
ATOM      9  N   UNL     1      34.135  -9.659 -24.262  0.00  0.00    -0.263 N 
ATOM     10  C   UNL     1      33.622 -10.642 -23.338  0.00  0.00    +0.211 C 
ATOM     11  H   UNL     1      34.656 -12.045 -24.348  0.00  0.00    +0.169 HD
ATOM     12  H   UNL     1      33.878  -8.711 -24.199  0.00  0.00    +0.181 HD
BRANCH   7  13
ATOM     13  C   UNL     1      32.454  -8.845 -22.356  0.00  0.00    +0.088 C 
ATOM     14  C   UNL     1      31.384  -8.574 -23.414  0.00  0.00    +0.024 C 
ATOM     15  C   UNL     1      31.915  -8.546 -20.958  0.00  0.00    +0.024 C 
ATOM     16  C   UNL     1      33.714  -8.025 -22.634  0.00  0.00    +0.024 C 
ENDBRANCH   7  13
BRANCH   9  18
ATOM     17  N   UNL     1      35.710 -10.476 -26.028  0.00  0.00    -0.171 NA
ATOM     18  C   UNL     1      34.980 -10.092 -25.212  0.00  0.00    +0.184 C 
ENDBRANCH   9  18
ENDBRANCH   2   8
BRANCH   1  19
ATOM     19  C   UNL     1      34.508 -16.821 -23.123  0.00  0.00    -0.003 C 
ATOM     20  C   UNL     1      34.829 -16.966 -24.427  0.00  0.00    -0.026 C 
BRANCH  19  22
ATOM     21  N   UNL     1      36.260 -19.071 -20.671  0.00  0.00    -0.242 NA
ATOM     22  C   UNL     1      34.748 -17.931 -22.176  0.00  0.00    +0.019 C 
ATOM     23  C   UNL     1      33.753 -18.859 -21.890  0.00  0.00    +0.003 C 
ATOM     24  C   UNL     1      35.974 -18.080 -21.545  0.00  0.00    +0.099 C 
ATOM     25  C   UNL     1      34.009 -19.892 -20.996  0.00  0.00    +0.021 C 
ATOM     26  C   UNL     1      35.268 -19.954 -20.419  0.00  0.00    +0.099 C 
ENDBRANCH  19  22
BRANCH  20  27
ATOM     27  C   UNL     1      34.643 -15.966 -25.539  0.00  0.00    +0.027 C 
BRANCH  27  28
ATOM     28  C   UNL     1      33.246 -16.090 -26.155  0.00  0.00    +0.016 C 
BRANCH  28  29
ATOM     29  C   UNL     1      32.540 -14.738 -26.270  0.00  0.00    +0.110 C 
BRANCH  29  31
ATOM     30  O   UNL     1      34.008 -13.866 -28.009  0.00  0.00    -0.250 OA
ATOM     31  C   UNL     1      33.373 -13.692 -26.979  0.00  0.00    +0.314 C 
BRANCH  31  32
ATOM     32  O   UNL     1      33.319 -12.496 -26.334  0.00  0.00    -0.480 OA
ATOM     33  H   UNL     1      33.949 -12.292 -25.671  0.00  0.00    +0.295 HD
ENDBRANCH  31  32
ENDBRANCH  29  31
ENDBRANCH  28  29
ENDBRANCH  27  28
ENDBRANCH  20  27
ENDBRANCH   1  19
TORSDOF 10
ENDMDL
MODEL 4
REMARK VINA RESULT:      -9.4     12.593     15.987
REMARK  Name = 6449876
REMARK  10 active torsions:
REMARK  status: ('A' for Active; 'I' for Inactive)
REMARK    1  A    between atoms: C_1  and  C_19
REMARK    2  A    between atoms: C_2  and  N_8
REMARK    3  A    between atoms: N_7  and  C_13
REMARK    4  A    between atoms: N_9  and  C_18
REMARK    5  A    between atoms: C_19  and  C_22
REMARK    6  A    between atoms: C_20  and  C_27
REMARK    7  A    between atoms: C_27  and  C_28
REMARK    8  A    between atoms: C_28  and  C_29
REMARK    9  A    between atoms: C_29  and  C_31
REMARK   10  A    between atoms: C_31  and  O_32
REMARK                            x       y       z     vdW  Elec       q    Type
REMARK                         _______ _______ _______ _____ _____    ______ ____
ROOT
ATOM      1  C   UNL     1      31.572 -23.679 -15.613  0.00  0.00    +0.001 C 
ATOM      2  C   UNL     1      32.827 -24.458 -13.700  0.00  0.00    +0.059 C 
ATOM      3  C   UNL     1      32.715 -23.626 -14.814  0.00  0.00    +0.017 C 
ATOM      4  C   UNL     1      30.540 -24.563 -15.295  0.00  0.00    +0.000 C 
ATOM      5  C   UNL     1      31.796 -25.342 -13.384  0.00  0.00    +0.017 C 
ATOM      6  C   UNL     1      30.653 -25.395 -14.181  0.00  0.00    +0.001 C 
ENDROOT
BRANCH   2   8
ATOM      7  N   UNL     1      35.745 -23.898 -14.438  0.00  0.00    -0.243 NA
ATOM      8  N   UNL     1      33.981 -24.404 -12.893  0.00  0.00    -0.324 N 
ATOM      9  N   UNL     1      36.242 -24.247 -12.157  0.00  0.00    -0.263 N 
ATOM     10  C   UNL     1      35.299 -24.149 -13.246  0.00  0.00    +0.211 C 
ATOM     11  H   UNL     1      33.831 -24.574 -11.934  0.00  0.00    +0.169 HD
ATOM     12  H   UNL     1      37.209 -24.129 -12.302  0.00  0.00    +0.181 HD
BRANCH   7  13
ATOM     13  C   UNL     1      37.182 -23.730 -14.601  0.00  0.00    +0.088 C 
ATOM     14  C   UNL     1      37.726 -23.008 -13.367  0.00  0.00    +0.024 C 
ATOM     15  C   UNL     1      37.805 -25.120 -14.727  0.00  0.00    +0.024 C 
ATOM     16  C   UNL     1      37.433 -22.910 -15.866  0.00  0.00    +0.024 C 
ENDBRANCH   7  13
BRANCH   9  18
ATOM     17  N   UNL     1      35.310 -24.725  -9.884  0.00  0.00    -0.171 NA
ATOM     18  C   UNL     1      35.745 -24.508 -10.937  0.00  0.00    +0.184 C 
ENDBRANCH   9  18
ENDBRANCH   2   8
BRANCH   1  19
ATOM     19  C   UNL     1      31.452 -22.793 -16.797  0.00  0.00    -0.003 C 
ATOM     20  C   UNL     1      30.240 -22.258 -17.064  0.00  0.00    -0.026 C 
BRANCH  19  22
ATOM     21  N   UNL     1      34.928 -22.853 -18.231  0.00  0.00    -0.242 NA
ATOM     22  C   UNL     1      32.598 -22.504 -17.686  0.00  0.00    +0.019 C 
ATOM     23  C   UNL     1      32.463 -21.652 -18.776  0.00  0.00    +0.003 C 
ATOM     24  C   UNL     1      33.840 -23.074 -17.459  0.00  0.00    +0.099 C 
ATOM     25  C   UNL     1      33.558 -21.399 -19.594  0.00  0.00    +0.021 C 
ATOM     26  C   UNL     1      34.758 -22.018 -19.281  0.00  0.00    +0.099 C 
ENDBRANCH  19  22
BRANCH  20  27
ATOM     27  C   UNL     1      28.958 -22.449 -16.294  0.00  0.00    +0.027 C 
BRANCH  27  28
ATOM     28  C   UNL     1      27.937 -23.235 -17.123  0.00  0.00    +0.016 C 
BRANCH  28  29
ATOM     29  C   UNL     1      27.120 -22.331 -18.047  0.00  0.00    +0.110 C 
BRANCH  29  31
ATOM     30  O   UNL     1      25.571 -21.732 -16.263  0.00  0.00    -0.250 OA
ATOM     31  C   UNL     1      26.149 -21.441 -17.300  0.00  0.00    +0.314 C 
BRANCH  31  32
ATOM     32  O   UNL     1      26.004 -20.239 -17.918  0.00  0.00    -0.480 OA
ATOM     33  H   UNL     1      25.258 -20.080 -18.463  0.00  0.00    +0.295 HD
ENDBRANCH  31  32
ENDBRANCH  29  31
ENDBRANCH  28  29
ENDBRANCH  27  28
ENDBRANCH  20  27
ENDBRANCH   1  19
TORSDOF 10
ENDMDL
MODEL 5
REMARK VINA RESULT:      -8.7     11.228     15.130
REMARK  Name = 6449876
REMARK  10 active torsions:
REMARK  status: ('A' for Active; 'I' for Inactive)
REMARK    1  A    between atoms: C_1  and  C_19
REMARK    2  A    between atoms: C_2  and  N_8
REMARK    3  A    between atoms: N_7  and  C_13
REMARK    4  A    between atoms: N_9  and  C_18
REMARK    5  A    between atoms: C_19  and  C_22
REMARK    6  A    between atoms: C_20  and  C_27
REMARK    7  A    between atoms: C_27  and  C_28
REMARK    8  A    between atoms: C_28  and  C_29
REMARK    9  A    between atoms: C_29  and  C_31
REMARK   10  A    between atoms: C_31  and  O_32
REMARK                            x       y       z     vdW  Elec       q    Type
REMARK                         _______ _______ _______ _____ _____    ______ ____
ROOT
ATOM      1  C   UNL     1      35.060 -22.614 -17.086  0.00  0.00    +0.001 C 
ATOM      2  C   UNL     1      37.233 -23.161 -16.183  0.00  0.00    +0.059 C 
ATOM      3  C   UNL     1      35.864 -23.412 -16.272  0.00  0.00    +0.017 C 
ATOM      4  C   UNL     1      35.626 -21.565 -17.812  0.00  0.00    +0.000 C 
ATOM      5  C   UNL     1      37.798 -22.112 -16.908  0.00  0.00    +0.017 C 
ATOM      6  C   UNL     1      36.995 -21.314 -17.722  0.00  0.00    +0.001 C 
ENDROOT
BRANCH   2   8
ATOM      7  N   UNL     1      36.787 -24.178 -13.330  0.00  0.00    -0.243 NA
ATOM      8  N   UNL     1      38.046 -23.967 -15.361  0.00  0.00    -0.324 N 
ATOM      9  N   UNL     1      38.920 -25.174 -13.501  0.00  0.00    -0.263 N 
ATOM     10  C   UNL     1      37.827 -24.419 -14.067  0.00  0.00    +0.211 C 
ATOM     11  H   UNL     1      38.898 -24.253 -15.764  0.00  0.00    +0.169 HD
ATOM     12  H   UNL     1      38.890 -25.505 -12.574  0.00  0.00    +0.181 HD
BRANCH   7  13
ATOM     13  C   UNL     1      36.790 -24.690 -11.966  0.00  0.00    +0.088 C 
ATOM     14  C   UNL     1      37.114 -26.183 -12.014  0.00  0.00    +0.024 C 
ATOM     15  C   UNL     1      37.862 -23.932 -11.184  0.00  0.00    +0.024 C 
ATOM     16  C   UNL     1      35.409 -24.452 -11.357  0.00  0.00    +0.024 C 
ENDBRANCH   7  13
BRANCH   9  18
ATOM     17  N   UNL     1      40.896 -25.594 -14.977  0.00  0.00    -0.171 NA
ATOM     18  C   UNL     1      39.980 -25.404 -14.292  0.00  0.00    +0.184 C 
ENDBRANCH   9  18
ENDBRANCH   2   8
BRANCH   1  19
ATOM     19  C   UNL     1      33.603 -22.882 -17.183  0.00  0.00    -0.003 C 
ATOM     20  C   UNL     1      32.979 -22.562 -18.339  0.00  0.00    -0.026 C 
BRANCH  19  22
ATOM     21  N   UNL     1      30.688 -24.115 -15.154  0.00  0.00    -0.242 NA
ATOM     22  C   UNL     1      32.830 -23.457 -16.062  0.00  0.00    +0.019 C 
ATOM     23  C   UNL     1      33.460 -23.872 -14.894  0.00  0.00    +0.003 C 
ATOM     24  C   UNL     1      31.453 -23.599 -16.141  0.00  0.00    +0.099 C 
ATOM     25  C   UNL     1      32.707 -24.408 -13.856  0.00  0.00    +0.021 C 
ATOM     26  C   UNL     1      31.336 -24.507 -14.034  0.00  0.00    +0.099 C 
ENDBRANCH  19  22
BRANCH  20  27
ATOM     27  C   UNL     1      33.586 -21.953 -19.577  0.00  0.00    +0.027 C 
BRANCH  27  28
ATOM     28  C   UNL     1      32.973 -20.579 -19.864  0.00  0.00    +0.016 C 
BRANCH  28  29
ATOM     29  C   UNL     1      33.503 -19.966 -21.161  0.00  0.00    +0.110 C 
BRANCH  29  31
ATOM     30  O   UNL     1      35.750 -19.267 -20.525  0.00  0.00    -0.250 OA
ATOM     31  C   UNL     1      34.633 -18.984 -20.934  0.00  0.00    +0.314 C 
BRANCH  31  32
ATOM     32  O   UNL     1      34.263 -17.719 -21.265  0.00  0.00    -0.480 OA
ATOM     33  H   UNL     1      33.468 -17.359 -20.923  0.00  0.00    +0.295 HD
ENDBRANCH  31  32
ENDBRANCH  29  31
ENDBRANCH  28  29
ENDBRANCH  27  28
ENDBRANCH  20  27
ENDBRANCH   1  19
TORSDOF 10
ENDMDL
MODEL 6
REMARK VINA RESULT:      -8.7      3.865      8.522
REMARK  Name = 6449876
REMARK  10 active torsions:
REMARK  status: ('A' for Active; 'I' for Inactive)
REMARK    1  A    between atoms: C_1  and  C_19
REMARK    2  A    between atoms: C_2  and  N_8
REMARK    3  A    between atoms: N_7  and  C_13
REMARK    4  A    between atoms: N_9  and  C_18
REMARK    5  A    between atoms: C_19  and  C_22
REMARK    6  A    between atoms: C_20  and  C_27
REMARK    7  A    between atoms: C_27  and  C_28
REMARK    8  A    between atoms: C_28  and  C_29
REMARK    9  A    between atoms: C_29  and  C_31
REMARK   10  A    between atoms: C_31  and  O_32
REMARK                            x       y       z     vdW  Elec       q    Type
REMARK                         _______ _______ _______ _____ _____    ______ ____
ROOT
ATOM      1  C   UNL     1      33.929 -16.337 -21.858  0.00  0.00    +0.001 C 
ATOM      2  C   UNL     1      33.412 -14.020 -22.309  0.00  0.00    +0.059 C 
ATOM      3  C   UNL     1      34.024 -15.216 -22.684  0.00  0.00    +0.017 C 
ATOM      4  C   UNL     1      33.220 -16.261 -20.659  0.00  0.00    +0.000 C 
ATOM      5  C   UNL     1      32.703 -13.945 -21.110  0.00  0.00    +0.017 C 
ATOM      6  C   UNL     1      32.608 -15.065 -20.285  0.00  0.00    +0.001 C 
ENDROOT
BRANCH   2   8
ATOM      7  N   UNL     1      32.485 -11.137 -21.859  0.00  0.00    -0.243 NA
ATOM      8  N   UNL     1      33.506 -12.887 -23.143  0.00  0.00    -0.324 N 
ATOM      9  N   UNL     1      33.277 -10.690 -24.037  0.00  0.00    -0.263 N 
ATOM     10  C   UNL     1      33.079 -11.585 -22.921  0.00  0.00    +0.211 C 
ATOM     11  H   UNL     1      33.940 -13.042 -24.014  0.00  0.00    +0.169 HD
ATOM     12  H   UNL     1      32.972  -9.755 -24.006  0.00  0.00    +0.181 HD
BRANCH   7  13
ATOM     13  C   UNL     1      32.053  -9.746 -21.862  0.00  0.00    +0.088 C 
ATOM     14  C   UNL     1      31.746  -9.334 -20.421  0.00  0.00    +0.024 C 
ATOM     15  C   UNL     1      33.193  -8.902 -22.430  0.00  0.00    +0.024 C 
ATOM     16  C   UNL     1      30.807  -9.629 -22.739  0.00  0.00    +0.024 C 
ENDBRANCH   7  13
BRANCH   9  18
ATOM     17  N   UNL     1      34.439 -11.616 -26.051  0.00  0.00    -0.171 NA
ATOM     18  C   UNL     1      33.896 -11.188 -25.120  0.00  0.00    +0.184 C 
ENDBRANCH   9  18
ENDBRANCH   2   8
BRANCH   1  19
ATOM     19  C   UNL     1      34.580 -17.610 -22.257  0.00  0.00    -0.003 C 
ATOM     20  C   UNL     1      35.168 -17.663 -23.473  0.00  0.00    -0.026 C 
BRANCH  19  22
ATOM     21  N   UNL     1      33.323 -20.498 -20.204  0.00  0.00    -0.242 NA
ATOM     22  C   UNL     1      34.580 -18.803 -21.385  0.00  0.00    +0.019 C 
ATOM     23  C   UNL     1      35.770 -19.355 -20.924  0.00  0.00    +0.003 C 
ATOM     24  C   UNL     1      33.394 -19.407 -20.999  0.00  0.00    +0.099 C 
ATOM     25  C   UNL     1      35.739 -20.477 -20.103  0.00  0.00    +0.021 C 
ATOM     26  C   UNL     1      34.500 -21.005 -19.775  0.00  0.00    +0.099 C 
ENDBRANCH  19  22
BRANCH  20  27
ATOM     27  C   UNL     1      35.253 -16.567 -24.505  0.00  0.00    +0.027 C 
BRANCH  27  28
ATOM     28  C   UNL     1      34.503 -16.962 -25.781  0.00  0.00    +0.016 C 
BRANCH  28  29
ATOM     29  C   UNL     1      33.108 -16.338 -25.851  0.00  0.00    +0.110 C 
BRANCH  29  31
ATOM     30  O   UNL     1      33.755 -14.545 -27.369  0.00  0.00    -0.250 OA
ATOM     31  C   UNL     1      33.115 -14.928 -26.400  0.00  0.00    +0.314 C 
BRANCH  31  32
ATOM     32  O   UNL     1      32.292 -14.114 -25.687  0.00  0.00    -0.480 OA
ATOM     33  H   UNL     1      31.423 -14.394 -25.478  0.00  0.00    +0.295 HD
ENDBRANCH  31  32
ENDBRANCH  29  31
ENDBRANCH  28  29
ENDBRANCH  27  28
ENDBRANCH  20  27
ENDBRANCH   1  19
TORSDOF 10
ENDMDL
MODEL 7
REMARK VINA RESULT:      -8.2     10.826     15.032
REMARK  Name = 6449876
REMARK  10 active torsions:
REMARK  status: ('A' for Active; 'I' for Inactive)
REMARK    1  A    between atoms: C_1  and  C_19
REMARK    2  A    between atoms: C_2  and  N_8
REMARK    3  A    between atoms: N_7  and  C_13
REMARK    4  A    between atoms: N_9  and  C_18
REMARK    5  A    between atoms: C_19  and  C_22
REMARK    6  A    between atoms: C_20  and  C_27
REMARK    7  A    between atoms: C_27  and  C_28
REMARK    8  A    between atoms: C_28  and  C_29
REMARK    9  A    between atoms: C_29  and  C_31
REMARK   10  A    between atoms: C_31  and  O_32
REMARK                            x       y       z     vdW  Elec       q    Type
REMARK                         _______ _______ _______ _____ _____    ______ ____
ROOT
ATOM      1  C   UNL     1      35.631 -21.578 -18.182  0.00  0.00    +0.001 C 
ATOM      2  C   UNL     1      36.244 -22.570 -16.066  0.00  0.00    +0.059 C 
ATOM      3  C   UNL     1      35.317 -22.392 -17.093  0.00  0.00    +0.017 C 
ATOM      4  C   UNL     1      36.873 -20.944 -18.244  0.00  0.00    +0.000 C 
ATOM      5  C   UNL     1      37.484 -21.936 -16.128  0.00  0.00    +0.017 C 
ATOM      6  C   UNL     1      37.799 -21.123 -17.216  0.00  0.00    +0.001 C 
ENDROOT
BRANCH   2   8
ATOM      7  N   UNL     1      37.870 -24.775 -14.700  0.00  0.00    -0.243 NA
ATOM      8  N   UNL     1      35.928 -23.392 -14.965  0.00  0.00    -0.324 N 
ATOM      9  N   UNL     1      36.003 -25.084 -13.288  0.00  0.00    -0.263 N 
ATOM     10  C   UNL     1      36.679 -24.389 -14.359  0.00  0.00    +0.211 C 
ATOM     11  H   UNL     1      35.040 -23.237 -14.567  0.00  0.00    +0.169 HD
ATOM     12  H   UNL     1      36.426 -25.838 -12.818  0.00  0.00    +0.181 HD
BRANCH   7  13
ATOM     13  C   UNL     1      38.452 -25.895 -13.973  0.00  0.00    +0.088 C 
ATOM     14  C   UNL     1      37.653 -27.155 -14.308  0.00  0.00    +0.024 C 
ATOM     15  C   UNL     1      39.904 -26.043 -14.425  0.00  0.00    +0.024 C 
ATOM     16  C   UNL     1      38.383 -25.588 -12.477  0.00  0.00    +0.024 C 
ENDBRANCH   7  13
BRANCH   9  18
ATOM     17  N   UNL     1      33.713 -24.279 -12.679  0.00  0.00    -0.171 NA
ATOM     18  C   UNL     1      34.773 -24.657 -12.962  0.00  0.00    +0.184 C 
ENDBRANCH   9  18
ENDBRANCH   2   8
BRANCH   1  19
ATOM     19  C   UNL     1      34.646 -21.389 -19.276  0.00  0.00    -0.003 C 
ATOM     20  C   UNL     1      33.544 -22.172 -19.274  0.00  0.00    -0.026 C 
BRANCH  19  22
ATOM     21  N   UNL     1      36.359 -18.986 -21.607  0.00  0.00    -0.242 NA
ATOM     22  C   UNL     1      34.847 -20.401 -20.358  0.00  0.00    +0.019 C 
ATOM     23  C   UNL     1      33.780 -19.953 -21.128  0.00  0.00    +0.003 C 
ATOM     24  C   UNL     1      36.106 -19.891 -20.635  0.00  0.00    +0.099 C 
ATOM     25  C   UNL     1      34.000 -19.023 -22.138  0.00  0.00    +0.021 C 
ATOM     26  C   UNL     1      35.297 -18.574 -22.335  0.00  0.00    +0.099 C 
ENDBRANCH  19  22
BRANCH  20  27
ATOM     27  C   UNL     1      33.175 -23.242 -18.278  0.00  0.00    +0.027 C 
BRANCH  27  28
ATOM     28  C   UNL     1      32.034 -22.770 -17.372  0.00  0.00    +0.016 C 
BRANCH  28  29
ATOM     29  C   UNL     1      31.974 -23.553 -16.059  0.00  0.00    +0.110 C 
BRANCH  29  31
ATOM     30  O   UNL     1      30.003 -22.694 -14.912  0.00  0.00    -0.250 OA
ATOM     31  C   UNL     1      31.217 -22.826 -14.969  0.00  0.00    +0.314 C 
BRANCH  31  32
ATOM     32  O   UNL     1      32.060 -22.338 -14.021  0.00  0.00    -0.480 OA
ATOM     33  H   UNL     1      31.801 -22.333 -13.121  0.00  0.00    +0.295 HD
ENDBRANCH  31  32
ENDBRANCH  29  31
ENDBRANCH  28  29
ENDBRANCH  27  28
ENDBRANCH  20  27
ENDBRANCH   1  19
TORSDOF 10
ENDMDL
MODEL 8
REMARK VINA RESULT:      -8.2      2.942      5.187
REMARK  Name = 6449876
REMARK  10 active torsions:
REMARK  status: ('A' for Active; 'I' for Inactive)
REMARK    1  A    between atoms: C_1  and  C_19
REMARK    2  A    between atoms: C_2  and  N_8
REMARK    3  A    between atoms: N_7  and  C_13
REMARK    4  A    between atoms: N_9  and  C_18
REMARK    5  A    between atoms: C_19  and  C_22
REMARK    6  A    between atoms: C_20  and  C_27
REMARK    7  A    between atoms: C_27  and  C_28
REMARK    8  A    between atoms: C_28  and  C_29
REMARK    9  A    between atoms: C_29  and  C_31
REMARK   10  A    between atoms: C_31  and  O_32
REMARK                            x       y       z     vdW  Elec       q    Type
REMARK                         _______ _______ _______ _____ _____    ______ ____
ROOT
ATOM      1  C   UNL     1      32.753 -12.988 -22.032  0.00  0.00    +0.001 C 
ATOM      2  C   UNL     1      33.389 -15.310 -22.240  0.00  0.00    +0.059 C 
ATOM      3  C   UNL     1      33.274 -14.035 -22.793  0.00  0.00    +0.017 C 
ATOM      4  C   UNL     1      32.348 -13.217 -20.717  0.00  0.00    +0.000 C 
ATOM      5  C   UNL     1      32.984 -15.538 -20.925  0.00  0.00    +0.017 C 
ATOM      6  C   UNL     1      32.463 -14.493 -20.163  0.00  0.00    +0.001 C 
ENDROOT
BRANCH   2   8
ATOM      7  N   UNL     1      34.379 -18.080 -21.393  0.00  0.00    -0.243 NA
ATOM      8  N   UNL     1      33.916 -16.368 -23.008  0.00  0.00    -0.324 N 
ATOM      9  N   UNL     1      34.911 -18.431 -23.666  0.00  0.00    -0.263 N 
ATOM     10  C   UNL     1      34.361 -17.619 -22.606  0.00  0.00    +0.211 C 
ATOM     11  H   UNL     1      33.979 -16.193 -23.976  0.00  0.00    +0.169 HD
ATOM     12  H   UNL     1      35.295 -19.319 -23.486  0.00  0.00    +0.181 HD
BRANCH   7  13
ATOM     13  C   UNL     1      34.958 -19.400 -21.180  0.00  0.00    +0.088 C 
ATOM     14  C   UNL     1      34.090 -20.148 -20.168  0.00  0.00    +0.024 C 
ATOM     15  C   UNL     1      34.969 -20.130 -22.523  0.00  0.00    +0.024 C 
ATOM     16  C   UNL     1      36.381 -19.223 -20.652  0.00  0.00    +0.024 C 
ENDBRANCH   7  13
BRANCH   9  18
ATOM     17  N   UNL     1      34.838 -17.477 -25.979  0.00  0.00    -0.171 NA
ATOM     18  C   UNL     1      34.876 -17.922 -24.908  0.00  0.00    +0.184 C 
ENDBRANCH   9  18
ENDBRANCH   2   8
BRANCH   1  19
ATOM     19  C   UNL     1      32.632 -11.631 -22.621  0.00  0.00    -0.003 C 
ATOM     20  C   UNL     1      31.683 -10.809 -22.119  0.00  0.00    -0.026 C 
BRANCH  19  22
ATOM     21  N   UNL     1      34.417 -11.580 -25.930  0.00  0.00    -0.242 NA
ATOM     22  C   UNL     1      33.491 -11.173 -23.733  0.00  0.00    +0.019 C 
ATOM     23  C   UNL     1      34.170  -9.962 -23.664  0.00  0.00    +0.003 C 
ATOM     24  C   UNL     1      33.647 -11.939 -24.878  0.00  0.00    +0.099 C 
ATOM     25  C   UNL     1      34.972  -9.558 -24.726  0.00  0.00    +0.021 C 
ATOM     26  C   UNL     1      35.061 -10.397 -25.826  0.00  0.00    +0.099 C 
ENDBRANCH  19  22
BRANCH  20  27
ATOM     27  C   UNL     1      30.705 -11.099 -21.010  0.00  0.00    +0.027 C 
BRANCH  27  28
ATOM     28  C   UNL     1      30.934 -10.159 -19.822  0.00  0.00    +0.016 C 
BRANCH  28  29
ATOM     29  C   UNL     1      32.325  -9.523 -19.845  0.00  0.00    +0.110 C 
BRANCH  29  31
ATOM     30  O   UNL     1      31.681  -7.635 -21.245  0.00  0.00    -0.250 OA
ATOM     31  C   UNL     1      32.309  -8.077 -20.293  0.00  0.00    +0.314 C 
BRANCH  31  32
ATOM     32  O   UNL     1      33.077  -7.300 -19.486  0.00  0.00    -0.480 OA
ATOM     33  H   UNL     1      33.178  -6.387 -19.671  0.00  0.00    +0.295 HD
ENDBRANCH  31  32
ENDBRANCH  29  31
ENDBRANCH  28  29
ENDBRANCH  27  28
ENDBRANCH  20  27
ENDBRANCH   1  19
TORSDOF 10
ENDMDL
MODEL 9
REMARK VINA RESULT:      -8.2      2.804      5.324
REMARK  Name = 6449876
REMARK  10 active torsions:
REMARK  status: ('A' for Active; 'I' for Inactive)
REMARK    1  A    between atoms: C_1  and  C_19
REMARK    2  A    between atoms: C_2  and  N_8
REMARK    3  A    between atoms: N_7  and  C_13
REMARK    4  A    between atoms: N_9  and  C_18
REMARK    5  A    between atoms: C_19  and  C_22
REMARK    6  A    between atoms: C_20  and  C_27
REMARK    7  A    between atoms: C_27  and  C_28
REMARK    8  A    between atoms: C_28  and  C_29
REMARK    9  A    between atoms: C_29  and  C_31
REMARK   10  A    between atoms: C_31  and  O_32
REMARK                            x       y       z     vdW  Elec       q    Type
REMARK                         _______ _______ _______ _____ _____    ______ ____
ROOT
ATOM      1  C   UNL     1      33.351  -7.678 -23.165  0.00  0.00    +0.001 C 
ATOM      2  C   UNL     1      33.759 -10.012 -23.640  0.00  0.00    +0.059 C 
ATOM      3  C   UNL     1      32.955  -9.014 -23.090  0.00  0.00    +0.017 C 
ATOM      4  C   UNL     1      34.551  -7.341 -23.793  0.00  0.00    +0.000 C 
ATOM      5  C   UNL     1      34.958  -9.675 -24.267  0.00  0.00    +0.017 C 
ATOM      6  C   UNL     1      35.355  -8.340 -24.343  0.00  0.00    +0.001 C 
ENDROOT
BRANCH   2   8
ATOM      7  N   UNL     1      33.573 -12.155 -25.818  0.00  0.00    -0.243 NA
ATOM      8  N   UNL     1      33.359 -11.362 -23.564  0.00  0.00    -0.324 N 
ATOM      9  N   UNL     1      32.754 -13.595 -24.136  0.00  0.00    -0.263 N 
ATOM     10  C   UNL     1      33.281 -12.321 -24.565  0.00  0.00    +0.211 C 
ATOM     11  H   UNL     1      33.095 -11.672 -22.667  0.00  0.00    +0.169 HD
ATOM     12  H   UNL     1      32.615 -14.333 -24.772  0.00  0.00    +0.181 HD
BRANCH   7  13
ATOM     13  C   UNL     1      33.349 -13.278 -26.718  0.00  0.00    +0.088 C 
ATOM     14  C   UNL     1      33.397 -14.569 -25.899  0.00  0.00    +0.024 C 
ATOM     15  C   UNL     1      31.973 -13.098 -27.358  0.00  0.00    +0.024 C 
ATOM     16  C   UNL     1      34.444 -13.269 -27.784  0.00  0.00    +0.024 C 
ENDBRANCH   7  13
BRANCH   9  18
ATOM     17  N   UNL     1      32.214 -13.838 -21.704  0.00  0.00    -0.171 NA
ATOM     18  C   UNL     1      32.463 -13.730 -22.832  0.00  0.00    +0.184 C 
ENDBRANCH   9  18
ENDBRANCH   2   8
BRANCH   1  19
ATOM     19  C   UNL     1      32.495  -6.616 -22.581  0.00  0.00    -0.003 C 
ATOM     20  C   UNL     1      32.254  -6.660 -21.252  0.00  0.00    -0.026 C 
BRANCH  19  22
ATOM     21  N   UNL     1      30.529  -3.553 -23.525  0.00  0.00    -0.242 NA
ATOM     22  C   UNL     1      31.894  -5.545 -23.405  0.00  0.00    +0.019 C 
ATOM     23  C   UNL     1      32.098  -5.496 -24.779  0.00  0.00    +0.003 C 
ATOM     24  C   UNL     1      31.108  -4.558 -22.831  0.00  0.00    +0.099 C 
ATOM     25  C   UNL     1      31.519  -4.478 -25.527  0.00  0.00    +0.021 C 
ATOM     26  C   UNL     1      30.749  -3.539 -24.858  0.00  0.00    +0.099 C 
ENDBRANCH  19  22
BRANCH  20  27
ATOM     27  C   UNL     1      32.755  -7.676 -20.258  0.00  0.00    +0.027 C 
BRANCH  27  28
ATOM     28  C   UNL     1      31.603  -8.538 -19.732  0.00  0.00    +0.016 C 
BRANCH  28  29
ATOM     29  C   UNL     1      32.078  -9.905 -19.239  0.00  0.00    +0.110 C 
BRANCH  29  31
ATOM     30  O   UNL     1      30.594 -10.959 -20.860  0.00  0.00    -0.250 OA
ATOM     31  C   UNL     1      31.394 -11.059 -19.942  0.00  0.00    +0.314 C 
BRANCH  31  32
ATOM     32  O   UNL     1      31.796 -12.255 -19.435  0.00  0.00    -0.480 OA
ATOM     33  H   UNL     1      31.836 -12.381 -18.508  0.00  0.00    +0.295 HD
ENDBRANCH  31  32
ENDBRANCH  29  31
ENDBRANCH  28  29
ENDBRANCH  27  28
ENDBRANCH  20  27
ENDBRANCH   1  19
TORSDOF 10
ENDMDL
