MODEL 1
REMARK VINA RESULT:      -9.5      0.000      0.000
REMARK  Name = 4417
REMARK  11 active torsions:
REMARK  status: ('A' for Active; 'I' for Inactive)
REMARK    1  A    between atoms: C_1  and  C_3
REMARK    2  A    between atoms: C_1  and  C_13
REMARK    3  A    between atoms: C_1  and  C_19
REMARK    4  A    between atoms: C_3  and  O_4
REMARK    5  A    between atoms: O_4  and  C_5
REMARK    6  A    between atoms: C_5  and  C_6
REMARK    7  A    between atoms: C_6  and  N_7
REMARK    8  A    between atoms: N_7  and  C_9
REMARK    9  A    between atoms: N_7  and  C_11
REMARK   10  A    between atoms: C_13  and  C_15
REMARK   11  A    between atoms: C_19  and  C_20
REMARK                            x       y       z     vdW  Elec       q    Type
REMARK                         _______ _______ _______ _____ _____    ______ ____
ROOT
ATOM      1  C   UNL     1      33.240 -13.675 -21.987  0.00  0.00    +0.106 C 
ENDROOT
BRANCH   1   3
ATOM      2  O   UNL     1      31.897 -15.461 -21.025  0.00  0.00    -0.250 OA
ATOM      3  C   UNL     1      32.917 -15.113 -21.604  0.00  0.00    +0.317 C 
BRANCH   3   4
ATOM      4  O   UNL     1      33.923 -15.936 -22.022  0.00  0.00    -0.451 OA
BRANCH   4   5
ATOM      5  C   UNL     1      34.753 -16.468 -20.985  0.00  0.00    +0.186 C 
BRANCH   5   6
ATOM      6  C   UNL     1      35.451 -17.713 -21.507  0.00  0.00    -0.029 C 
BRANCH   6   7
ATOM      7  N   UNL     1      34.479 -18.703 -21.944  0.00  0.00    +0.389 N 
ATOM      8  H   UNL     1      33.589 -18.227 -22.092  0.00  0.00    -0.080 HD
BRANCH   7   9
ATOM      9  C   UNL     1      34.896 -19.317 -23.208  0.00  0.00    -0.077 C 
ATOM     10  C   UNL     1      34.661 -18.378 -24.378  0.00  0.00    -0.025 C 
ENDBRANCH   7   9
BRANCH   7  11
ATOM     11  C   UNL     1      34.293 -19.733 -20.919  0.00  0.00    -0.077 C 
ATOM     12  C   UNL     1      32.818 -19.971 -20.641  0.00  0.00    -0.025 C 
ENDBRANCH   7  11
ENDBRANCH   6   7
ENDBRANCH   5   6
ENDBRANCH   4   5
ENDBRANCH   3   4
ENDBRANCH   1   3
BRANCH   1  13
ATOM     13  C   UNL     1      34.055 -13.648 -23.292  0.00  0.00    +0.041 C 
BRANCH  13  15
ATOM     14  O   UNL     1      33.130 -14.879 -25.157  0.00  0.00    -0.356 OA
ATOM     15  C   UNL     1      33.176 -13.587 -24.527  0.00  0.00    +0.116 C 
ATOM     16  C   UNL     1      33.681 -12.619 -25.583  0.00  0.00    +0.032 C 
ATOM     17  C   UNL     1      33.088 -13.207 -26.838  0.00  0.00    +0.035 C 
ATOM     18  C   UNL     1      33.215 -14.694 -26.579  0.00  0.00    +0.142 C 
ENDBRANCH  13  15
ENDBRANCH   1  13
BRANCH   1  19
ATOM     19  C   UNL     1      31.931 -12.881 -22.153  0.00  0.00    +0.038 C 
BRANCH  19  20
ATOM     20  C   UNL     1      31.864 -11.662 -21.264  0.00  0.00    -0.022 C 
ATOM     21  C   UNL     1      32.069 -10.365 -21.762  0.00  0.00    -0.004 C 
ATOM     22  C   UNL     1      31.589 -11.871 -19.912  0.00  0.00    -0.004 C 
ATOM     23  C   UNL     1      31.992  -9.264 -20.876  0.00  0.00    -0.000 C 
ATOM     24  C   UNL     1      32.346 -10.136 -23.119  0.00  0.00    -0.000 C 
ATOM     25  C   UNL     1      31.514 -10.788 -19.041  0.00  0.00    -0.000 C 
ATOM     26  C   UNL     1      31.713  -9.492 -19.519  0.00  0.00    -0.000 C 
ATOM     27  C   UNL     1      32.195  -7.967 -21.374  0.00  0.00    -0.000 C 
ATOM     28  C   UNL     1      32.546  -8.840 -23.597  0.00  0.00    -0.000 C 
ATOM     29  C   UNL     1      32.471  -7.758 -22.726  0.00  0.00    -0.000 C 
ENDBRANCH  19  20
ENDBRANCH   1  19
TORSDOF 11
ENDMDL
MODEL 2
REMARK VINA RESULT:      -9.1      2.566      7.727
REMARK  Name = 4417
REMARK  11 active torsions:
REMARK  status: ('A' for Active; 'I' for Inactive)
REMARK    1  A    between atoms: C_1  and  C_3
REMARK    2  A    between atoms: C_1  and  C_13
REMARK    3  A    between atoms: C_1  and  C_19
REMARK    4  A    between atoms: C_3  and  O_4
REMARK    5  A    between atoms: O_4  and  C_5
REMARK    6  A    between atoms: C_5  and  C_6
REMARK    7  A    between atoms: C_6  and  N_7
REMARK    8  A    between atoms: N_7  and  C_9
REMARK    9  A    between atoms: N_7  and  C_11
REMARK   10  A    between atoms: C_13  and  C_15
REMARK   11  A    between atoms: C_19  and  C_20
REMARK                            x       y       z     vdW  Elec       q    Type
REMARK                         _______ _______ _______ _____ _____    ______ ____
ROOT
ATOM      1  C   UNL     1      32.722 -13.506 -22.953  0.00  0.00    +0.106 C 
ENDROOT
BRANCH   1   3
ATOM      2  O   UNL     1      32.566 -13.935 -20.563  0.00  0.00    -0.250 OA
ATOM      3  C   UNL     1      32.313 -13.212 -21.516  0.00  0.00    +0.317 C 
BRANCH   3   4
ATOM      4  O   UNL     1      31.646 -12.021 -21.464  0.00  0.00    -0.451 OA
BRANCH   4   5
ATOM      5  C   UNL     1      31.884 -11.234 -20.293  0.00  0.00    +0.186 C 
BRANCH   5   6
ATOM      6  C   UNL     1      31.468  -9.800 -20.575  0.00  0.00    -0.029 C 
BRANCH   6   7
ATOM      7  N   UNL     1      32.150  -9.289 -21.755  0.00  0.00    +0.389 N 
ATOM      8  H   UNL     1      32.807 -10.002 -22.072  0.00  0.00    -0.080 HD
BRANCH   7   9
ATOM      9  C   UNL     1      31.193  -9.023 -22.832  0.00  0.00    -0.077 C 
ATOM     10  C   UNL     1      31.689  -7.915 -23.745  0.00  0.00    -0.025 C 
ENDBRANCH   7   9
BRANCH   7  11
ATOM     11  C   UNL     1      32.900  -8.072 -21.433  0.00  0.00    -0.077 C 
ATOM     12  C   UNL     1      32.359  -7.409 -20.178  0.00  0.00    -0.025 C 
ENDBRANCH   7  11
ENDBRANCH   6   7
ENDBRANCH   5   6
ENDBRANCH   4   5
ENDBRANCH   3   4
ENDBRANCH   1   3
BRANCH   1  13
ATOM     13  C   UNL     1      32.664 -12.218 -23.791  0.00  0.00    +0.041 C 
BRANCH  13  15
ATOM     14  O   UNL     1      34.282 -10.434 -23.568  0.00  0.00    -0.356 OA
ATOM     15  C   UNL     1      34.040 -11.712 -24.180  0.00  0.00    +0.116 C 
ATOM     16  C   UNL     1      34.209 -11.504 -25.675  0.00  0.00    +0.032 C 
ATOM     17  C   UNL     1      35.293 -10.456 -25.712  0.00  0.00    +0.035 C 
ATOM     18  C   UNL     1      34.927  -9.585 -24.529  0.00  0.00    +0.142 C 
ENDBRANCH  13  15
ENDBRANCH   1  13
BRANCH   1  19
ATOM     19  C   UNL     1      34.144 -14.096 -22.970  0.00  0.00    +0.038 C 
BRANCH  19  20
ATOM     20  C   UNL     1      34.221 -15.429 -23.676  0.00  0.00    -0.022 C 
ATOM     21  C   UNL     1      34.616 -16.602 -23.013  0.00  0.00    -0.004 C 
ATOM     22  C   UNL     1      33.882 -15.456 -25.030  0.00  0.00    -0.004 C 
ATOM     23  C   UNL     1      34.667 -17.821 -23.732  0.00  0.00    -0.000 C 
ATOM     24  C   UNL     1      34.959 -16.594 -21.651  0.00  0.00    -0.000 C 
ATOM     25  C   UNL     1      33.933 -16.654 -25.737  0.00  0.00    -0.000 C 
ATOM     26  C   UNL     1      34.322 -17.829 -25.093  0.00  0.00    -0.000 C 
ATOM     27  C   UNL     1      35.060 -18.993 -23.068  0.00  0.00    -0.000 C 
ATOM     28  C   UNL     1      35.349 -17.769 -21.008  0.00  0.00    -0.000 C 
ATOM     29  C   UNL     1      35.399 -18.966 -21.715  0.00  0.00    -0.000 C 
ENDBRANCH  19  20
ENDBRANCH   1  19
TORSDOF 11
ENDMDL
MODEL 3
REMARK VINA RESULT:      -8.9      1.419      2.163
REMARK  Name = 4417
REMARK  11 active torsions:
REMARK  status: ('A' for Active; 'I' for Inactive)
REMARK    1  A    between atoms: C_1  and  C_3
REMARK    2  A    between atoms: C_1  and  C_13
REMARK    3  A    between atoms: C_1  and  C_19
REMARK    4  A    between atoms: C_3  and  O_4
REMARK    5  A    between atoms: O_4  and  C_5
REMARK    6  A    between atoms: C_5  and  C_6
REMARK    7  A    between atoms: C_6  and  N_7
REMARK    8  A    between atoms: N_7  and  C_9
REMARK    9  A    between atoms: N_7  and  C_11
REMARK   10  A    between atoms: C_13  and  C_15
REMARK   11  A    between atoms: C_19  and  C_20
REMARK                            x       y       z     vdW  Elec       q    Type
REMARK                         _______ _______ _______ _____ _____    ______ ____
ROOT
ATOM      1  C   UNL     1      33.153 -12.825 -22.936  0.00  0.00    +0.106 C 
ENDROOT
BRANCH   1   3
ATOM      2  O   UNL     1      32.206 -14.807 -21.890  0.00  0.00    -0.250 OA
ATOM      3  C   UNL     1      33.183 -14.228 -22.346  0.00  0.00    +0.317 C 
BRANCH   3   4
ATOM      4  O   UNL     1      34.449 -14.733 -22.425  0.00  0.00    -0.451 OA
BRANCH   4   5
ATOM      5  C   UNL     1      34.613 -16.063 -21.923  0.00  0.00    +0.186 C 
BRANCH   5   6
ATOM      6  C   UNL     1      35.351 -16.891 -22.963  0.00  0.00    -0.029 C 
BRANCH   6   7
ATOM      7  N   UNL     1      35.451 -18.279 -22.538  0.00  0.00    +0.389 N 
ATOM      8  H   UNL     1      36.436 -18.544 -22.555  0.00  0.00    -0.080 HD
BRANCH   7   9
ATOM      9  C   UNL     1      34.947 -18.441 -21.172  0.00  0.00    -0.077 C 
ATOM     10  C   UNL     1      34.003 -19.626 -21.072  0.00  0.00    -0.025 C 
ENDBRANCH   7   9
BRANCH   7  11
ATOM     11  C   UNL     1      34.717 -19.155 -23.455  0.00  0.00    -0.077 C 
ATOM     12  C   UNL     1      34.533 -18.498 -24.813  0.00  0.00    -0.025 C 
ENDBRANCH   7  11
ENDBRANCH   6   7
ENDBRANCH   5   6
ENDBRANCH   4   5
ENDBRANCH   3   4
ENDBRANCH   1   3
BRANCH   1  13
ATOM     13  C   UNL     1      33.453 -12.881 -24.443  0.00  0.00    +0.041 C 
BRANCH  13  15
ATOM     14  O   UNL     1      34.348 -11.666 -26.333  0.00  0.00    -0.356 OA
ATOM     15  C   UNL     1      33.767 -11.517 -25.027  0.00  0.00    +0.116 C 
ATOM     16  C   UNL     1      34.770 -10.723 -24.207  0.00  0.00    +0.032 C 
ATOM     17  C   UNL     1      35.364  -9.816 -25.254  0.00  0.00    +0.035 C 
ATOM     18  C   UNL     1      35.429 -10.730 -26.459  0.00  0.00    +0.142 C 
ENDBRANCH  13  15
ENDBRANCH   1  13
BRANCH   1  19
ATOM     19  C   UNL     1      31.773 -12.191 -22.684  0.00  0.00    +0.038 C 
BRANCH  19  20
ATOM     20  C   UNL     1      31.768 -11.234 -21.516  0.00  0.00    -0.022 C 
ATOM     21  C   UNL     1      31.940  -9.851 -21.685  0.00  0.00    -0.004 C 
ATOM     22  C   UNL     1      31.584 -11.778 -20.244  0.00  0.00    -0.004 C 
ATOM     23  C   UNL     1      31.925  -9.007 -20.548  0.00  0.00    -0.000 C 
ATOM     24  C   UNL     1      32.126  -9.286 -22.957  0.00  0.00    -0.000 C 
ATOM     25  C   UNL     1      31.569 -10.948 -19.126  0.00  0.00    -0.000 C 
ATOM     26  C   UNL     1      31.738  -9.571 -19.277  0.00  0.00    -0.000 C 
ATOM     27  C   UNL     1      32.096  -7.623 -20.719  0.00  0.00    -0.000 C 
ATOM     28  C   UNL     1      32.295  -7.908 -23.107  0.00  0.00    -0.000 C 
ATOM     29  C   UNL     1      32.280  -7.080 -21.990  0.00  0.00    -0.000 C 
ENDBRANCH  19  20
ENDBRANCH   1  19
TORSDOF 11
ENDMDL
MODEL 4
REMARK VINA RESULT:      -8.8      7.316     13.264
REMARK  Name = 4417
REMARK  11 active torsions:
REMARK  status: ('A' for Active; 'I' for Inactive)
REMARK    1  A    between atoms: C_1  and  C_3
REMARK    2  A    between atoms: C_1  and  C_13
REMARK    3  A    between atoms: C_1  and  C_19
REMARK    4  A    between atoms: C_3  and  O_4
REMARK    5  A    between atoms: O_4  and  C_5
REMARK    6  A    between atoms: C_5  and  C_6
REMARK    7  A    between atoms: C_6  and  N_7
REMARK    8  A    between atoms: N_7  and  C_9
REMARK    9  A    between atoms: N_7  and  C_11
REMARK   10  A    between atoms: C_13  and  C_15
REMARK   11  A    between atoms: C_19  and  C_20
REMARK                            x       y       z     vdW  Elec       q    Type
REMARK                         _______ _______ _______ _____ _____    ______ ____
ROOT
ATOM      1  C   UNL     1      34.407 -23.065 -15.951  0.00  0.00    +0.106 C 
ENDROOT
BRANCH   1   3
ATOM      2  O   UNL     1      36.619 -22.054 -16.031  0.00  0.00    -0.250 OA
ATOM      3  C   UNL     1      35.622 -22.442 -16.625  0.00  0.00    +0.317 C 
BRANCH   3   4
ATOM      4  O   UNL     1      35.429 -22.406 -17.977  0.00  0.00    -0.451 OA
BRANCH   4   5
ATOM      5  C   UNL     1      36.350 -21.591 -18.707  0.00  0.00    +0.186 C 
BRANCH   5   6
ATOM      6  C   UNL     1      35.770 -21.310 -20.084  0.00  0.00    -0.029 C 
BRANCH   6   7
ATOM      7  N   UNL     1      35.433 -19.901 -20.223  0.00  0.00    +0.389 N 
ATOM      8  H   UNL     1      35.366 -19.499 -19.288  0.00  0.00    -0.080 HD
BRANCH   7   9
ATOM      9  C   UNL     1      36.478 -19.190 -20.964  0.00  0.00    -0.077 C 
ATOM     10  C   UNL     1      35.881 -18.325 -22.060  0.00  0.00    -0.025 C 
ENDBRANCH   7   9
BRANCH   7  11
ATOM     11  C   UNL     1      34.141 -19.742 -20.894  0.00  0.00    -0.077 C 
ATOM     12  C   UNL     1      33.046 -20.505 -20.166  0.00  0.00    -0.025 C 
ENDBRANCH   7  11
ENDBRANCH   6   7
ENDBRANCH   5   6
ENDBRANCH   4   5
ENDBRANCH   3   4
ENDBRANCH   1   3
BRANCH   1  13
ATOM     13  C   UNL     1      33.225 -23.111 -16.935  0.00  0.00    +0.041 C 
BRANCH  13  15
ATOM     14  O   UNL     1      30.811 -23.108 -17.082  0.00  0.00    -0.356 OA
ATOM     15  C   UNL     1      31.924 -23.511 -16.266  0.00  0.00    +0.116 C 
ATOM     16  C   UNL     1      31.714 -22.858 -14.911  0.00  0.00    +0.032 C 
ATOM     17  C   UNL     1      30.211 -22.872 -14.801  0.00  0.00    +0.035 C 
ATOM     18  C   UNL     1      29.789 -22.577 -16.225  0.00  0.00    +0.142 C 
ENDBRANCH  13  15
ENDBRANCH   1  13
BRANCH   1  19
ATOM     19  C   UNL     1      34.760 -24.482 -15.466  0.00  0.00    +0.038 C 
BRANCH  19  20
ATOM     20  C   UNL     1      35.413 -24.495 -14.104  0.00  0.00    -0.022 C 
ATOM     21  C   UNL     1      36.751 -24.879 -13.923  0.00  0.00    -0.004 C 
ATOM     22  C   UNL     1      34.630 -24.105 -13.016  0.00  0.00    -0.004 C 
ATOM     23  C   UNL     1      37.304 -24.869 -12.620  0.00  0.00    -0.000 C 
ATOM     24  C   UNL     1      37.553 -25.273 -15.007  0.00  0.00    -0.000 C 
ATOM     25  C   UNL     1      35.174 -24.095 -11.735  0.00  0.00    -0.000 C 
ATOM     26  C   UNL     1      36.502 -24.474 -11.538  0.00  0.00    -0.000 C 
ATOM     27  C   UNL     1      38.643 -25.253 -12.440  0.00  0.00    -0.000 C 
ATOM     28  C   UNL     1      38.882 -25.652 -14.808  0.00  0.00    -0.000 C 
ATOM     29  C   UNL     1      39.425 -25.642 -13.528  0.00  0.00    -0.000 C 
ENDBRANCH  19  20
ENDBRANCH   1  19
TORSDOF 11
ENDMDL
MODEL 5
REMARK VINA RESULT:      -8.8      2.132      8.049
REMARK  Name = 4417
REMARK  11 active torsions:
REMARK  status: ('A' for Active; 'I' for Inactive)
REMARK    1  A    between atoms: C_1  and  C_3
REMARK    2  A    between atoms: C_1  and  C_13
REMARK    3  A    between atoms: C_1  and  C_19
REMARK    4  A    between atoms: C_3  and  O_4
REMARK    5  A    between atoms: O_4  and  C_5
REMARK    6  A    between atoms: C_5  and  C_6
REMARK    7  A    between atoms: C_6  and  N_7
REMARK    8  A    between atoms: N_7  and  C_9
REMARK    9  A    between atoms: N_7  and  C_11
REMARK   10  A    between atoms: C_13  and  C_15
REMARK   11  A    between atoms: C_19  and  C_20
REMARK                            x       y       z     vdW  Elec       q    Type
REMARK                         _______ _______ _______ _____ _____    ______ ____
ROOT
ATOM      1  C   UNL     1      34.363 -16.322 -22.232  0.00  0.00    +0.106 C 
ENDROOT
BRANCH   1   3
ATOM      2  O   UNL     1      34.979 -15.626 -19.983  0.00  0.00    -0.250 OA
ATOM      3  C   UNL     1      34.489 -15.347 -21.070  0.00  0.00    +0.317 C 
BRANCH   3   4
ATOM      4  O   UNL     1      33.994 -14.128 -21.437  0.00  0.00    -0.451 OA
BRANCH   4   5
ATOM      5  C   UNL     1      32.657 -13.854 -21.010  0.00  0.00    +0.186 C 
BRANCH   5   6
ATOM      6  C   UNL     1      32.009 -12.909 -22.008  0.00  0.00    -0.029 C 
BRANCH   6   7
ATOM      7  N   UNL     1      31.278 -11.856 -21.320  0.00  0.00    +0.389 N 
ATOM      8  H   UNL     1      30.283 -12.072 -21.378  0.00  0.00    -0.080 HD
BRANCH   7   9
ATOM      9  C   UNL     1      31.662 -11.797 -19.907  0.00  0.00    -0.077 C 
ATOM     10  C   UNL     1      31.155 -10.523 -19.253  0.00  0.00    -0.025 C 
ENDBRANCH   7   9
BRANCH   7  11
ATOM     11  C   UNL     1      31.512 -10.559 -21.961  0.00  0.00    -0.077 C 
ATOM     12  C   UNL     1      32.522 -10.679 -23.090  0.00  0.00    -0.025 C 
ENDBRANCH   7  11
ENDBRANCH   6   7
ENDBRANCH   5   6
ENDBRANCH   4   5
ENDBRANCH   3   4
ENDBRANCH   1   3
BRANCH   1  13
ATOM     13  C   UNL     1      34.759 -15.628 -23.547  0.00  0.00    +0.041 C 
BRANCH  13  15
ATOM     14  O   UNL     1      33.580 -16.098 -25.606  0.00  0.00    -0.356 OA
ATOM     15  C   UNL     1      33.560 -15.294 -24.414  0.00  0.00    +0.116 C 
ATOM     16  C   UNL     1      33.533 -13.848 -24.880  0.00  0.00    +0.032 C 
ATOM     17  C   UNL     1      32.721 -13.956 -26.145  0.00  0.00    +0.035 C 
ATOM     18  C   UNL     1      33.204 -15.272 -26.718  0.00  0.00    +0.142 C 
ENDBRANCH  13  15
ENDBRANCH   1  13
BRANCH   1  19
ATOM     19  C   UNL     1      35.262 -17.545 -21.976  0.00  0.00    +0.038 C 
BRANCH  19  20
ATOM     20  C   UNL     1      34.537 -18.676 -21.286  0.00  0.00    -0.022 C 
ATOM     21  C   UNL     1      35.222 -19.684 -20.588  0.00  0.00    -0.004 C 
ATOM     22  C   UNL     1      33.144 -18.687 -21.368  0.00  0.00    -0.004 C 
ATOM     23  C   UNL     1      34.483 -20.717 -19.962  0.00  0.00    -0.000 C 
ATOM     24  C   UNL     1      36.623 -19.688 -20.495  0.00  0.00    -0.000 C 
ATOM     25  C   UNL     1      32.418 -19.703 -20.753  0.00  0.00    -0.000 C 
ATOM     26  C   UNL     1      33.083 -20.711 -20.054  0.00  0.00    -0.000 C 
ATOM     27  C   UNL     1      35.169 -21.723 -19.263  0.00  0.00    -0.000 C 
ATOM     28  C   UNL     1      37.287 -20.698 -19.796  0.00  0.00    -0.000 C 
ATOM     29  C   UNL     1      36.561 -21.713 -19.182  0.00  0.00    -0.000 C 
ENDBRANCH  19  20
ENDBRANCH   1  19
TORSDOF 11
ENDMDL
MODEL 6
REMARK VINA RESULT:      -8.8      3.242      8.417
REMARK  Name = 4417
REMARK  11 active torsions:
REMARK  status: ('A' for Active; 'I' for Inactive)
REMARK    1  A    between atoms: C_1  and  C_3
REMARK    2  A    between atoms: C_1  and  C_13
REMARK    3  A    between atoms: C_1  and  C_19
REMARK    4  A    between atoms: C_3  and  O_4
REMARK    5  A    between atoms: O_4  and  C_5
REMARK    6  A    between atoms: C_5  and  C_6
REMARK    7  A    between atoms: C_6  and  N_7
REMARK    8  A    between atoms: N_7  and  C_9
REMARK    9  A    between atoms: N_7  and  C_11
REMARK   10  A    between atoms: C_13  and  C_15
REMARK   11  A    between atoms: C_19  and  C_20
REMARK                            x       y       z     vdW  Elec       q    Type
REMARK                         _______ _______ _______ _____ _____    ______ ____
ROOT
ATOM      1  C   UNL     1      32.480 -11.913 -22.649  0.00  0.00    +0.106 C 
ENDROOT
BRANCH   1   3
ATOM      2  O   UNL     1      34.244 -11.578 -24.291  0.00  0.00    -0.250 OA
ATOM      3  C   UNL     1      33.333 -11.110 -23.622  0.00  0.00    +0.317 C 
BRANCH   3   4
ATOM      4  O   UNL     1      32.909  -9.812 -23.641  0.00  0.00    -0.451 OA
BRANCH   4   5
ATOM      5  C   UNL     1      33.946  -8.827 -23.658  0.00  0.00    +0.186 C 
BRANCH   5   6
ATOM      6  C   UNL     1      33.444  -7.577 -22.954  0.00  0.00    -0.029 C 
BRANCH   6   7
ATOM      7  N   UNL     1      32.270  -7.044 -23.627  0.00  0.00    +0.389 N 
ATOM      8  H   UNL     1      31.816  -7.810 -24.124  0.00  0.00    -0.080 HD
BRANCH   7   9
ATOM      9  C   UNL     1      31.322  -6.491 -22.655  0.00  0.00    -0.077 C 
ATOM     10  C   UNL     1      32.012  -6.156 -21.345  0.00  0.00    -0.025 C 
ENDBRANCH   7   9
BRANCH   7  11
ATOM     11  C   UNL     1      32.652  -6.017 -24.599  0.00  0.00    -0.077 C 
ATOM     12  C   UNL     1      31.508  -5.050 -24.857  0.00  0.00    -0.025 C 
ENDBRANCH   7  11
ENDBRANCH   6   7
ENDBRANCH   5   6
ENDBRANCH   4   5
ENDBRANCH   3   4
ENDBRANCH   1   3
BRANCH   1  13
ATOM     13  C   UNL     1      31.120 -11.224 -22.448  0.00  0.00    +0.041 C 
BRANCH  13  15
ATOM     14  O   UNL     1      31.512  -9.484 -20.814  0.00  0.00    -0.356 OA
ATOM     15  C   UNL     1      30.901 -10.770 -21.017  0.00  0.00    +0.116 C 
ATOM     16  C   UNL     1      31.519 -11.699 -19.986  0.00  0.00    +0.032 C 
ATOM     17  C   UNL     1      31.739 -10.759 -18.828  0.00  0.00    +0.035 C 
ATOM     18  C   UNL     1      32.159  -9.487 -19.532  0.00  0.00    +0.142 C 
ENDBRANCH  13  15
ENDBRANCH   1  13
BRANCH   1  19
ATOM     19  C   UNL     1      32.286 -13.340 -23.193  0.00  0.00    +0.038 C 
BRANCH  19  20
ATOM     20  C   UNL     1      33.159 -14.360 -22.501  0.00  0.00    -0.022 C 
ATOM     21  C   UNL     1      33.783 -15.404 -23.201  0.00  0.00    -0.004 C 
ATOM     22  C   UNL     1      33.325 -14.227 -21.121  0.00  0.00    -0.004 C 
ATOM     23  C   UNL     1      34.589 -16.328 -22.493  0.00  0.00    -0.000 C 
ATOM     24  C   UNL     1      33.627 -15.552 -24.589  0.00  0.00    -0.000 C 
ATOM     25  C   UNL     1      34.118 -15.136 -20.425  0.00  0.00    -0.000 C 
ATOM     26  C   UNL     1      34.746 -16.179 -21.106  0.00  0.00    -0.000 C 
ATOM     27  C   UNL     1      35.215 -17.371 -23.194  0.00  0.00    -0.000 C 
ATOM     28  C   UNL     1      34.256 -16.597 -25.269  0.00  0.00    -0.000 C 
ATOM     29  C   UNL     1      35.047 -17.504 -24.572  0.00  0.00    -0.000 C 
ENDBRANCH  19  20
ENDBRANCH   1  19
TORSDOF 11
ENDMDL
MODEL 7
REMARK VINA RESULT:      -8.7      2.835      8.372
REMARK  Name = 4417
REMARK  11 active torsions:
REMARK  status: ('A' for Active; 'I' for Inactive)
REMARK    1  A    between atoms: C_1  and  C_3
REMARK    2  A    between atoms: C_1  and  C_13
REMARK    3  A    between atoms: C_1  and  C_19
REMARK    4  A    between atoms: C_3  and  O_4
REMARK    5  A    between atoms: O_4  and  C_5
REMARK    6  A    between atoms: C_5  and  C_6
REMARK    7  A    between atoms: C_6  and  N_7
REMARK    8  A    between atoms: N_7  and  C_9
REMARK    9  A    between atoms: N_7  and  C_11
REMARK   10  A    between atoms: C_13  and  C_15
REMARK   11  A    between atoms: C_19  and  C_20
REMARK                            x       y       z     vdW  Elec       q    Type
REMARK                         _______ _______ _______ _____ _____    ______ ____
ROOT
ATOM      1  C   UNL     1      35.099 -17.131 -23.417  0.00  0.00    +0.106 C 
ENDROOT
BRANCH   1   3
ATOM      2  O   UNL     1      34.537 -18.250 -25.504  0.00  0.00    -0.250 OA
ATOM      3  C   UNL     1      34.671 -17.208 -24.877  0.00  0.00    +0.317 C 
BRANCH   3   4
ATOM      4  O   UNL     1      34.447 -15.950 -25.356  0.00  0.00    -0.451 OA
BRANCH   4   5
ATOM      5  C   UNL     1      33.170 -15.743 -25.968  0.00  0.00    +0.186 C 
BRANCH   5   6
ATOM      6  C   UNL     1      32.675 -14.351 -25.610  0.00  0.00    -0.029 C 
BRANCH   6   7
ATOM      7  N   UNL     1      33.750 -13.378 -25.726  0.00  0.00    +0.389 N 
ATOM      8  H   UNL     1      34.637 -13.879 -25.678  0.00  0.00    -0.080 HD
BRANCH   7   9
ATOM      9  C   UNL     1      33.678 -12.676 -27.010  0.00  0.00    -0.077 C 
ATOM     10  C   UNL     1      32.272 -12.722 -27.582  0.00  0.00    -0.025 C 
ENDBRANCH   7   9
BRANCH   7  11
ATOM     11  C   UNL     1      33.698 -12.416 -24.621  0.00  0.00    -0.077 C 
ATOM     12  C   UNL     1      34.359 -11.102 -25.006  0.00  0.00    -0.025 C 
ENDBRANCH   7  11
ENDBRANCH   6   7
ENDBRANCH   5   6
ENDBRANCH   4   5
ENDBRANCH   3   4
ENDBRANCH   1   3
BRANCH   1  13
ATOM     13  C   UNL     1      34.875 -15.708 -22.878  0.00  0.00    +0.041 C 
BRANCH  13  15
ATOM     14  O   UNL     1      32.720 -14.708 -22.428  0.00  0.00    -0.356 OA
ATOM     15  C   UNL     1      33.702 -15.626 -21.919  0.00  0.00    +0.116 C 
ATOM     16  C   UNL     1      34.082 -15.117 -20.539  0.00  0.00    +0.032 C 
ATOM     17  C   UNL     1      32.776 -14.533 -20.064  0.00  0.00    +0.035 C 
ATOM     18  C   UNL     1      32.227 -13.919 -21.334  0.00  0.00    +0.142 C 
ENDBRANCH  13  15
ENDBRANCH   1  13
BRANCH   1  19
ATOM     19  C   UNL     1      34.295 -18.153 -22.593  0.00  0.00    +0.038 C 
BRANCH  19  20
ATOM     20  C   UNL     1      35.162 -18.986 -21.678  0.00  0.00    -0.022 C 
ATOM     21  C   UNL     1      34.621 -19.952 -20.815  0.00  0.00    -0.004 C 
ATOM     22  C   UNL     1      36.538 -18.759 -21.721  0.00  0.00    -0.004 C 
ATOM     23  C   UNL     1      35.489 -20.700 -19.983  0.00  0.00    -0.000 C 
ATOM     24  C   UNL     1      33.239 -20.194 -20.760  0.00  0.00    -0.000 C 
ATOM     25  C   UNL     1      37.391 -19.495 -20.902  0.00  0.00    -0.000 C 
ATOM     26  C   UNL     1      36.870 -20.459 -20.039  0.00  0.00    -0.000 C 
ATOM     27  C   UNL     1      34.947 -21.668 -19.121  0.00  0.00    -0.000 C 
ATOM     28  C   UNL     1      32.719 -21.160 -19.896  0.00  0.00    -0.000 C 
ATOM     29  C   UNL     1      33.571 -21.894 -19.079  0.00  0.00    -0.000 C 
ENDBRANCH  19  20
ENDBRANCH   1  19
TORSDOF 11
ENDMDL
MODEL 8
REMARK VINA RESULT:      -8.6      7.297     12.577
REMARK  Name = 4417
REMARK  11 active torsions:
REMARK  status: ('A' for Active; 'I' for Inactive)
REMARK    1  A    between atoms: C_1  and  C_3
REMARK    2  A    between atoms: C_1  and  C_13
REMARK    3  A    between atoms: C_1  and  C_19
REMARK    4  A    between atoms: C_3  and  O_4
REMARK    5  A    between atoms: O_4  and  C_5
REMARK    6  A    between atoms: C_5  and  C_6
REMARK    7  A    between atoms: C_6  and  N_7
REMARK    8  A    between atoms: N_7  and  C_9
REMARK    9  A    between atoms: N_7  and  C_11
REMARK   10  A    between atoms: C_13  and  C_15
REMARK   11  A    between atoms: C_19  and  C_20
REMARK                            x       y       z     vdW  Elec       q    Type
REMARK                         _______ _______ _______ _____ _____    ______ ____
ROOT
ATOM      1  C   UNL     1      34.330 -23.242 -16.405  0.00  0.00    +0.106 C 
ENDROOT
BRANCH   1   3
ATOM      2  O   UNL     1      33.112 -22.900 -18.483  0.00  0.00    -0.250 OA
ATOM      3  C   UNL     1      34.165 -22.836 -17.863  0.00  0.00    +0.317 C 
BRANCH   3   4
ATOM      4  O   UNL     1      35.356 -22.380 -18.350  0.00  0.00    -0.451 OA
BRANCH   4   5
ATOM      5  C   UNL     1      35.356 -22.018 -19.734  0.00  0.00    +0.186 C 
BRANCH   5   6
ATOM      6  C   UNL     1      36.119 -20.713 -19.898  0.00  0.00    -0.029 C 
BRANCH   6   7
ATOM      7  N   UNL     1      35.234 -19.656 -20.365  0.00  0.00    +0.389 N 
ATOM      8  H   UNL     1      34.874 -19.162 -19.549  0.00  0.00    -0.080 HD
BRANCH   7   9
ATOM      9  C   UNL     1      35.965 -18.702 -21.204  0.00  0.00    -0.077 C 
ATOM     10  C   UNL     1      35.414 -18.679 -22.618  0.00  0.00    -0.025 C 
ENDBRANCH   7   9
BRANCH   7  11
ATOM     11  C   UNL     1      34.104 -20.218 -21.108  0.00  0.00    -0.077 C 
ATOM     12  C   UNL     1      32.784 -19.894 -20.428  0.00  0.00    -0.025 C 
ENDBRANCH   7  11
ENDBRANCH   6   7
ENDBRANCH   5   6
ENDBRANCH   4   5
ENDBRANCH   3   4
ENDBRANCH   1   3
BRANCH   1  13
ATOM     13  C   UNL     1      35.743 -22.883 -15.915  0.00  0.00    +0.041 C 
BRANCH  13  15
ATOM     14  O   UNL     1      37.579 -23.491 -14.462  0.00  0.00    -0.356 OA
ATOM     15  C   UNL     1      36.193 -23.743 -14.749  0.00  0.00    +0.116 C 
ATOM     16  C   UNL     1      36.080 -25.234 -15.016  0.00  0.00    +0.032 C 
ATOM     17  C   UNL     1      37.125 -25.787 -14.081  0.00  0.00    +0.035 C 
ATOM     18  C   UNL     1      38.220 -24.745 -14.183  0.00  0.00    +0.142 C 
ENDBRANCH  13  15
ENDBRANCH   1  13
BRANCH   1  19
ATOM     19  C   UNL     1      33.267 -22.529 -15.550  0.00  0.00    +0.038 C 
BRANCH  19  20
ATOM     20  C   UNL     1      32.239 -23.475 -14.976  0.00  0.00    -0.022 C 
ATOM     21  C   UNL     1      30.912 -23.501 -15.433  0.00  0.00    -0.004 C 
ATOM     22  C   UNL     1      32.660 -24.336 -13.960  0.00  0.00    -0.004 C 
ATOM     23  C   UNL     1      29.997 -24.413 -14.853  0.00  0.00    -0.000 C 
ATOM     24  C   UNL     1      30.472 -22.643 -16.454  0.00  0.00    -0.000 C 
ATOM     25  C   UNL     1      31.760 -25.232 -13.390  0.00  0.00    -0.000 C 
ATOM     26  C   UNL     1      30.438 -25.271 -13.833  0.00  0.00    -0.000 C 
ATOM     27  C   UNL     1      28.670 -24.439 -15.311  0.00  0.00    -0.000 C 
ATOM     28  C   UNL     1      29.149 -22.683 -16.897  0.00  0.00    -0.000 C 
ATOM     29  C   UNL     1      28.251 -23.579 -16.326  0.00  0.00    -0.000 C 
ENDBRANCH  19  20
ENDBRANCH   1  19
TORSDOF 11
ENDMDL
MODEL 9
REMARK VINA RESULT:      -8.5      9.502     13.188
REMARK  Name = 4417
REMARK  11 active torsions:
REMARK  status: ('A' for Active; 'I' for Inactive)
REMARK    1  A    between atoms: C_1  and  C_3
REMARK    2  A    between atoms: C_1  and  C_13
REMARK    3  A    between atoms: C_1  and  C_19
REMARK    4  A    between atoms: C_3  and  O_4
REMARK    5  A    between atoms: O_4  and  C_5
REMARK    6  A    between atoms: C_5  and  C_6
REMARK    7  A    between atoms: C_6  and  N_7
REMARK    8  A    between atoms: N_7  and  C_9
REMARK    9  A    between atoms: N_7  and  C_11
REMARK   10  A    between atoms: C_13  and  C_15
REMARK   11  A    between atoms: C_19  and  C_20
REMARK                            x       y       z     vdW  Elec       q    Type
REMARK                         _______ _______ _______ _____ _____    ______ ____
ROOT
ATOM      1  C   UNL     1      34.096 -23.808 -14.340  0.00  0.00    +0.106 C 
ENDROOT
BRANCH   1   3
ATOM      2  O   UNL     1      32.129 -24.434 -13.051  0.00  0.00    -0.250 OA
ATOM      3  C   UNL     1      32.666 -23.664 -13.836  0.00  0.00    +0.317 C 
BRANCH   3   4
ATOM      4  O   UNL     1      32.099 -22.546 -14.377  0.00  0.00    -0.451 OA
BRANCH   4   5
ATOM      5  C   UNL     1      30.690 -22.625 -14.615  0.00  0.00    +0.186 C 
BRANCH   5   6
ATOM      6  C   UNL     1      30.454 -22.786 -16.108  0.00  0.00    -0.029 C 
BRANCH   6   7
ATOM      7  N   UNL     1      29.400 -23.757 -16.360  0.00  0.00    +0.389 N 
ATOM      8  H   UNL     1      29.765 -24.460 -17.002  0.00  0.00    -0.080 HD
BRANCH   7   9
ATOM      9  C   UNL     1      29.000 -24.423 -15.117  0.00  0.00    -0.077 C 
ATOM     10  C   UNL     1      29.601 -25.814 -15.022  0.00  0.00    -0.025 C 
ENDBRANCH   7   9
BRANCH   7  11
ATOM     11  C   UNL     1      28.241 -23.113 -16.983  0.00  0.00    -0.077 C 
ATOM     12  C   UNL     1      27.373 -22.421 -15.945  0.00  0.00    -0.025 C 
ENDBRANCH   7  11
ENDBRANCH   6   7
ENDBRANCH   5   6
ENDBRANCH   4   5
ENDBRANCH   3   4
ENDBRANCH   1   3
BRANCH   1  13
ATOM     13  C   UNL     1      34.747 -25.058 -13.724  0.00  0.00    +0.041 C 
BRANCH  13  15
ATOM     14  O   UNL     1      35.860 -23.300 -12.492  0.00  0.00    -0.356 OA
ATOM     15  C   UNL     1      35.684 -24.724 -12.580  0.00  0.00    +0.116 C 
ATOM     16  C   UNL     1      37.076 -25.312 -12.744  0.00  0.00    +0.032 C 
ATOM     17  C   UNL     1      37.904 -24.356 -11.924  0.00  0.00    +0.035 C 
ATOM     18  C   UNL     1      37.244 -23.028 -12.229  0.00  0.00    +0.142 C 
ENDBRANCH  13  15
ENDBRANCH   1  13
BRANCH   1  19
ATOM     19  C   UNL     1      34.091 -23.904 -15.876  0.00  0.00    +0.038 C 
BRANCH  19  20
ATOM     20  C   UNL     1      35.157 -23.053 -16.524  0.00  0.00    -0.022 C 
ATOM     21  C   UNL     1      34.943 -22.391 -17.744  0.00  0.00    -0.004 C 
ATOM     22  C   UNL     1      36.380 -22.945 -15.860  0.00  0.00    -0.004 C 
ATOM     23  C   UNL     1      35.984 -21.608 -18.298  0.00  0.00    -0.000 C 
ATOM     24  C   UNL     1      33.719 -22.488 -18.425  0.00  0.00    -0.000 C 
ATOM     25  C   UNL     1      37.403 -22.175 -16.406  0.00  0.00    -0.000 C 
ATOM     26  C   UNL     1      37.207 -21.510 -17.616  0.00  0.00    -0.000 C 
ATOM     27  C   UNL     1      35.769 -20.945 -19.518  0.00  0.00    -0.000 C 
ATOM     28  C   UNL     1      33.524 -21.823 -19.637  0.00  0.00    -0.000 C 
ATOM     29  C   UNL     1      34.547 -21.054 -20.181  0.00  0.00    -0.000 C 
ENDBRANCH  19  20
ENDBRANCH   1  19
TORSDOF 11
ENDMDL
