MODEL 1
REMARK VINA RESULT:     -11.5      0.000      0.000
REMARK  Name = 46213929
REMARK  4 active torsions:
REMARK  status: ('A' for Active; 'I' for Inactive)
REMARK    1  A    between atoms: C_7  and  C_20
REMARK    2  A    between atoms: C_9  and  C_28
REMARK    3  A    between atoms: C_20  and  N_22
REMARK    4  A    between atoms: C_28  and  C_31
REMARK                            x       y       z     vdW  Elec       q    Type
REMARK                         _______ _______ _______ _____ _____    ______ ____
ROOT
ATOM      1  N   UNL     1      34.578 -22.367 -17.479  0.00  0.00    -0.179 N 
ATOM      2  N   UNL     1      36.804 -22.379 -17.551  0.00  0.00    -0.393 NA
ATOM      3  N   UNL     1      33.309 -22.496 -17.019  0.00  0.00    -0.160 NA
ATOM      4  N   UNL     1      31.970 -23.061 -15.204  0.00  0.00    -0.281 N 
ATOM      5  N   UNL     1      30.550 -22.435 -17.073  0.00  0.00    -0.166 NA
ATOM      6  N   UNL     1      29.211 -22.380 -17.177  0.00  0.00    -0.239 N 
ATOM      7  C   UNL     1      35.653 -23.046 -15.440  0.00  0.00    +0.005 C 
ATOM      8  C   UNL     1      35.750 -22.609 -16.791  0.00  0.00    +0.196 C 
ATOM      9  C   UNL     1      34.926 -21.963 -18.741  0.00  0.00    +0.151 C 
ATOM     10  C   UNL     1      34.418 -23.191 -14.929  0.00  0.00    +0.034 C 
ATOM     11  C   UNL     1      36.300 -21.979 -18.760  0.00  0.00    +0.109 C 
ATOM     12  C   UNL     1      33.212 -22.897 -15.775  0.00  0.00    +0.151 C 
ATOM     13  C   UNL     1      37.205 -21.635 -19.868  0.00  0.00    +0.063 C 
ATOM     14  C   UNL     1      30.740 -22.843 -15.815  0.00  0.00    +0.152 C 
ATOM     15  C   UNL     1      29.532 -23.047 -15.122  0.00  0.00    +0.048 C 
ATOM     16  C   UNL     1      28.555 -22.737 -16.035  0.00  0.00    +0.046 C 
ATOM     17  C   UNL     1      27.085 -22.742 -15.944  0.00  0.00    +0.049 C 
ATOM     18  H   UNL     1      31.951 -23.365 -14.268  0.00  0.00    +0.155 HD
ATOM     19  H   UNL     1      28.747 -22.107 -18.000  0.00  0.00    +0.174 HD
ENDROOT
BRANCH   7  20
ATOM     20  C   UNL     1      36.856 -23.344 -14.584  0.00  0.00    -0.046 C 
BRANCH  20  22
ATOM     21  O   UNL     1      38.881 -27.020 -14.584  0.00  0.00    -0.358 OA
ATOM     22  N   UNL     1      37.558 -24.542 -15.040  0.00  0.00    +0.393 N 
ATOM     23  C   UNL     1      38.915 -24.597 -14.480  0.00  0.00    -0.044 C 
ATOM     24  C   UNL     1      36.813 -25.754 -14.676  0.00  0.00    -0.044 C 
ATOM     25  C   UNL     1      39.623 -25.860 -14.962  0.00  0.00    +0.119 C 
ATOM     26  C   UNL     1      37.569 -26.990 -15.151  0.00  0.00    +0.119 C 
ATOM     27  H   UNL     1      37.626 -24.495 -16.057  0.00  0.00    -0.079 HD
ENDBRANCH  20  22
ENDBRANCH   7  20
BRANCH   9  28
ATOM     28  C   UNL     1      33.938 -21.611 -19.777  0.00  0.00    +0.057 C 
BRANCH  28  31
ATOM     29 CL   UNL     1      34.922 -16.298 -22.459  0.00  0.00    -0.082 Cl
ATOM     30  F   UNL     1      31.939 -19.608 -20.053  0.00  0.00    -0.204 F 
ATOM     31  C   UNL     1      34.184 -20.270 -20.454  0.00  0.00    +0.007 C 
ATOM     32  C   UNL     1      33.152 -19.335 -20.552  0.00  0.00    +0.137 C 
ATOM     33  C   UNL     1      35.443 -19.975 -20.976  0.00  0.00    -0.001 C 
ATOM     34  C   UNL     1      33.381 -18.106 -21.172  0.00  0.00    +0.041 C 
ATOM     35  C   UNL     1      35.672 -18.747 -21.596  0.00  0.00    +0.011 C 
ATOM     36  C   UNL     1      34.641 -17.812 -21.694  0.00  0.00    +0.060 C 
ENDBRANCH  28  31
ENDBRANCH   9  28
TORSDOF 4
ENDMDL
MODEL 2
REMARK VINA RESULT:     -11.2      4.008      8.188
REMARK  Name = 46213929
REMARK  4 active torsions:
REMARK  status: ('A' for Active; 'I' for Inactive)
REMARK    1  A    between atoms: C_7  and  C_20
REMARK    2  A    between atoms: C_9  and  C_28
REMARK    3  A    between atoms: C_20  and  N_22
REMARK    4  A    between atoms: C_28  and  C_31
REMARK                            x       y       z     vdW  Elec       q    Type
REMARK                         _______ _______ _______ _____ _____    ______ ____
ROOT
ATOM      1  N   UNL     1      34.265 -23.525 -14.773  0.00  0.00    -0.179 N 
ATOM      2  N   UNL     1      33.296 -24.610 -13.086  0.00  0.00    -0.393 NA
ATOM      3  N   UNL     1      34.462 -22.961 -15.990  0.00  0.00    -0.160 NA
ATOM      4  N   UNL     1      33.545 -22.535 -18.083  0.00  0.00    -0.281 N 
ATOM      5  N   UNL     1      35.785 -21.598 -17.993  0.00  0.00    -0.166 NA
ATOM      6  N   UNL     1      36.492 -20.927 -18.918  0.00  0.00    -0.239 N 
ATOM      7  C   UNL     1      32.040 -24.317 -15.223  0.00  0.00    +0.005 C 
ATOM      8  C   UNL     1      33.139 -24.191 -14.327  0.00  0.00    +0.196 C 
ATOM      9  C   UNL     1      35.172 -23.534 -13.746  0.00  0.00    +0.151 C 
ATOM     10  C   UNL     1      32.179 -23.775 -16.445  0.00  0.00    +0.034 C 
ATOM     11  C   UNL     1      34.553 -24.207 -12.721  0.00  0.00    +0.109 C 
ATOM     12  C   UNL     1      33.454 -23.073 -16.819  0.00  0.00    +0.151 C 
ATOM     13  C   UNL     1      35.071 -24.510 -11.378  0.00  0.00    +0.063 C 
ATOM     14  C   UNL     1      34.632 -21.852 -18.618  0.00  0.00    +0.152 C 
ATOM     15  C   UNL     1      34.603 -21.346 -19.932  0.00  0.00    +0.048 C 
ATOM     16  C   UNL     1      35.829 -20.749 -20.097  0.00  0.00    +0.046 C 
ATOM     17  C   UNL     1      36.432 -20.038 -21.236  0.00  0.00    +0.049 C 
ATOM     18  H   UNL     1      32.761 -22.646 -18.668  0.00  0.00    +0.155 HD
ATOM     19  H   UNL     1      37.404 -20.594 -18.759  0.00  0.00    +0.174 HD
ENDROOT
BRANCH   7  20
ATOM     20  C   UNL     1      30.759 -25.019 -14.857  0.00  0.00    -0.046 C 
BRANCH  20  22
ATOM     21  O   UNL     1      28.280 -22.088 -16.554  0.00  0.00    -0.358 OA
ATOM     22  N   UNL     1      29.590 -24.197 -15.162  0.00  0.00    +0.393 N 
ATOM     23  C   UNL     1      29.841 -22.787 -14.835  0.00  0.00    -0.044 C 
ATOM     24  C   UNL     1      29.215 -24.326 -16.577  0.00  0.00    -0.044 C 
ATOM     25  C   UNL     1      28.612 -21.950 -15.172  0.00  0.00    +0.119 C 
ATOM     26  C   UNL     1      28.001 -23.452 -16.875  0.00  0.00    +0.119 C 
ATOM     27  H   UNL     1      28.815 -24.532 -14.589  0.00  0.00    -0.079 HD
ENDBRANCH  20  22
ENDBRANCH   7  20
BRANCH   9  28
ATOM     28  C   UNL     1      36.507 -22.915 -13.844  0.00  0.00    +0.057 C 
BRANCH  28  31
ATOM     29 CL   UNL     1      41.061 -26.845 -14.301  0.00  0.00    -0.082 Cl
ATOM     30  F   UNL     1      38.090 -23.203 -16.187  0.00  0.00    -0.204 F 
ATOM     31  C   UNL     1      37.656 -23.906 -13.962  0.00  0.00    +0.007 C 
ATOM     32  C   UNL     1      38.390 -23.991 -15.146  0.00  0.00    +0.137 C 
ATOM     33  C   UNL     1      37.977 -24.730 -12.883  0.00  0.00    -0.001 C 
ATOM     34  C   UNL     1      39.443 -24.900 -15.250  0.00  0.00    +0.041 C 
ATOM     35  C   UNL     1      39.029 -25.640 -12.987  0.00  0.00    +0.011 C 
ATOM     36  C   UNL     1      39.763 -25.724 -14.172  0.00  0.00    +0.060 C 
ENDBRANCH  28  31
ENDBRANCH   9  28
TORSDOF 4
ENDMDL
MODEL 3
REMARK VINA RESULT:     -10.2      2.755      6.664
REMARK  Name = 46213929
REMARK  4 active torsions:
REMARK  status: ('A' for Active; 'I' for Inactive)
REMARK    1  A    between atoms: C_7  and  C_20
REMARK    2  A    between atoms: C_9  and  C_28
REMARK    3  A    between atoms: C_20  and  N_22
REMARK    4  A    between atoms: C_28  and  C_31
REMARK                            x       y       z     vdW  Elec       q    Type
REMARK                         _______ _______ _______ _____ _____    ______ ____
ROOT
ATOM      1  N   UNL     1      34.062 -23.207 -16.755  0.00  0.00    -0.179 N 
ATOM      2  N   UNL     1      32.021 -22.477 -17.266  0.00  0.00    -0.393 NA
ATOM      3  N   UNL     1      35.084 -23.792 -16.083  0.00  0.00    -0.160 NA
ATOM      4  N   UNL     1      35.713 -24.944 -14.164  0.00  0.00    -0.281 N 
ATOM      5  N   UNL     1      37.663 -24.640 -15.581  0.00  0.00    -0.166 NA
ATOM      6  N   UNL     1      38.940 -25.019 -15.408  0.00  0.00    -0.239 N 
ATOM      7  C   UNL     1      32.375 -23.687 -15.112  0.00  0.00    +0.005 C 
ATOM      8  C   UNL     1      32.742 -23.114 -16.362  0.00  0.00    +0.196 C 
ATOM      9  C   UNL     1      34.166 -22.591 -17.975  0.00  0.00    +0.151 C 
ATOM     10  C   UNL     1      33.349 -24.282 -14.401  0.00  0.00    +0.034 C 
ATOM     11  C   UNL     1      32.897 -22.150 -18.266  0.00  0.00    +0.109 C 
ATOM     12  C   UNL     1      34.754 -24.323 -14.931  0.00  0.00    +0.151 C 
ATOM     13  C   UNL     1      32.431 -21.420 -19.455  0.00  0.00    +0.063 C 
ATOM     14  C   UNL     1      37.062 -25.086 -14.475  0.00  0.00    +0.152 C 
ATOM     15  C   UNL     1      37.948 -25.747 -13.603  0.00  0.00    +0.048 C 
ATOM     16  C   UNL     1      39.164 -25.687 -14.239  0.00  0.00    +0.046 C 
ATOM     17  C   UNL     1      40.496 -26.187 -13.864  0.00  0.00    +0.049 C 
ATOM     18  H   UNL     1      35.415 -25.326 -13.307  0.00  0.00    +0.155 HD
ATOM     19  H   UNL     1      39.650 -24.834 -16.064  0.00  0.00    +0.174 HD
ENDROOT
BRANCH   7  20
ATOM     20  C   UNL     1      30.970 -23.651 -14.572  0.00  0.00    -0.046 C 
BRANCH  20  22
ATOM     21  O   UNL     1      27.338 -23.342 -16.653  0.00  0.00    -0.358 OA
ATOM     22  N   UNL     1      29.994 -23.399 -15.630  0.00  0.00    +0.393 N 
ATOM     23  C   UNL     1      29.280 -24.633 -15.988  0.00  0.00    -0.044 C 
ATOM     24  C   UNL     1      29.035 -22.364 -15.220  0.00  0.00    -0.044 C 
ATOM     25  C   UNL     1      28.261 -24.342 -17.084  0.00  0.00    +0.119 C 
ATOM     26  C   UNL     1      28.019 -22.127 -16.333  0.00  0.00    +0.119 C 
ATOM     27  H   UNL     1      30.501 -23.066 -16.450  0.00  0.00    -0.079 HD
ENDBRANCH  20  22
ENDBRANCH   7  20
BRANCH   9  28
ATOM     28  C   UNL     1      35.433 -22.486 -18.721  0.00  0.00    +0.057 C 
BRANCH  28  31
ATOM     29 CL   UNL     1      35.800 -17.693 -22.366  0.00  0.00    -0.082 Cl
ATOM     30  F   UNL     1      37.426 -20.476 -18.459  0.00  0.00    -0.204 F 
ATOM     31  C   UNL     1      35.527 -21.276 -19.639  0.00  0.00    +0.007 C 
ATOM     32  C   UNL     1      36.535 -20.329 -19.449  0.00  0.00    +0.137 C 
ATOM     33  C   UNL     1      34.605 -21.114 -20.674  0.00  0.00    -0.001 C 
ATOM     34  C   UNL     1      36.618 -19.221 -20.293  0.00  0.00    +0.041 C 
ATOM     35  C   UNL     1      34.688 -20.006 -21.517  0.00  0.00    +0.011 C 
ATOM     36  C   UNL     1      35.696 -19.059 -21.326  0.00  0.00    +0.060 C 
ENDBRANCH  28  31
ENDBRANCH   9  28
TORSDOF 4
ENDMDL
MODEL 4
REMARK VINA RESULT:     -10.1      3.001      6.341
REMARK  Name = 46213929
REMARK  4 active torsions:
REMARK  status: ('A' for Active; 'I' for Inactive)
REMARK    1  A    between atoms: C_7  and  C_20
REMARK    2  A    between atoms: C_9  and  C_28
REMARK    3  A    between atoms: C_20  and  N_22
REMARK    4  A    between atoms: C_28  and  C_31
REMARK                            x       y       z     vdW  Elec       q    Type
REMARK                         _______ _______ _______ _____ _____    ______ ____
ROOT
ATOM      1  N   UNL     1      33.441 -23.601 -15.662  0.00  0.00    -0.179 N 
ATOM      2  N   UNL     1      33.031 -24.661 -13.746  0.00  0.00    -0.393 NA
ATOM      3  N   UNL     1      34.093 -22.925 -16.640  0.00  0.00    -0.160 NA
ATOM      4  N   UNL     1      36.112 -21.984 -17.308  0.00  0.00    -0.281 N 
ATOM      5  N   UNL     1      34.458 -21.637 -19.054  0.00  0.00    -0.166 NA
ATOM      6  N   UNL     1      34.556 -21.025 -20.246  0.00  0.00    -0.239 N 
ATOM      7  C   UNL     1      35.318 -23.755 -14.169  0.00  0.00    +0.005 C 
ATOM      8  C   UNL     1      33.951 -24.034 -14.454  0.00  0.00    +0.196 C 
ATOM      9  C   UNL     1      32.125 -23.983 -15.704  0.00  0.00    +0.151 C 
ATOM     10  C   UNL     1      36.016 -23.087 -15.103  0.00  0.00    +0.034 C 
ATOM     11  C   UNL     1      31.898 -24.632 -14.515  0.00  0.00    +0.109 C 
ATOM     12  C   UNL     1      35.352 -22.666 -16.384  0.00  0.00    +0.151 C 
ATOM     13  C   UNL     1      30.653 -25.248 -14.030  0.00  0.00    +0.063 C 
ATOM     14  C   UNL     1      35.686 -21.511 -18.545  0.00  0.00    +0.152 C 
ATOM     15  C   UNL     1      36.564 -20.825 -19.406  0.00  0.00    +0.048 C 
ATOM     16  C   UNL     1      35.798 -20.522 -20.506  0.00  0.00    +0.046 C 
ATOM     17  C   UNL     1      36.111 -19.816 -21.759  0.00  0.00    +0.049 C 
ATOM     18  H   UNL     1      37.051 -21.814 -17.068  0.00  0.00    +0.155 HD
ATOM     19  H   UNL     1      33.803 -20.947 -20.874  0.00  0.00    +0.174 HD
ENDROOT
BRANCH   7  20
ATOM     20  C   UNL     1      35.991 -24.172 -12.888  0.00  0.00    -0.046 C 
BRANCH  20  22
ATOM     21  O   UNL     1      39.009 -26.485 -14.666  0.00  0.00    -0.358 OA
ATOM     22  N   UNL     1      36.981 -25.223 -13.119  0.00  0.00    +0.393 N 
ATOM     23  C   UNL     1      36.659 -25.987 -14.332  0.00  0.00    -0.044 C 
ATOM     24  C   UNL     1      38.331 -24.654 -13.225  0.00  0.00    -0.044 C 
ATOM     25  C   UNL     1      37.711 -27.069 -14.556  0.00  0.00    +0.119 C 
ATOM     26  C   UNL     1      39.344 -25.767 -13.477  0.00  0.00    +0.119 C 
ATOM     27  H   UNL     1      36.956 -25.856 -12.318  0.00  0.00    -0.079 HD
ENDBRANCH  20  22
ENDBRANCH   7  20
BRANCH   9  28
ATOM     28  C   UNL     1      31.239 -23.697 -16.848  0.00  0.00    +0.057 C 
BRANCH  28  31
ATOM     29 CL   UNL     1      25.696 -21.863 -15.328  0.00  0.00    -0.082 Cl
ATOM     30  F   UNL     1      30.722 -21.902 -14.705  0.00  0.00    -0.204 F 
ATOM     31  C   UNL     1      29.841 -23.233 -16.462  0.00  0.00    +0.007 C 
ATOM     32  C   UNL     1      29.665 -22.349 -15.397  0.00  0.00    +0.137 C 
ATOM     33  C   UNL     1      28.734 -23.692 -17.177  0.00  0.00    -0.001 C 
ATOM     34  C   UNL     1      28.383 -21.926 -15.046  0.00  0.00    +0.041 C 
ATOM     35  C   UNL     1      27.452 -23.269 -16.826  0.00  0.00    +0.011 C 
ATOM     36  C   UNL     1      27.277 -22.385 -15.761  0.00  0.00    +0.060 C 
ENDBRANCH  28  31
ENDBRANCH   9  28
TORSDOF 4
ENDMDL
MODEL 5
REMARK VINA RESULT:      -9.8      3.323      6.524
REMARK  Name = 46213929
REMARK  4 active torsions:
REMARK  status: ('A' for Active; 'I' for Inactive)
REMARK    1  A    between atoms: C_7  and  C_20
REMARK    2  A    between atoms: C_9  and  C_28
REMARK    3  A    between atoms: C_20  and  N_22
REMARK    4  A    between atoms: C_28  and  C_31
REMARK                            x       y       z     vdW  Elec       q    Type
REMARK                         _______ _______ _______ _____ _____    ______ ____
ROOT
ATOM      1  N   UNL     1      34.265 -23.243 -16.345  0.00  0.00    -0.179 N 
ATOM      2  N   UNL     1      34.177 -24.459 -14.482  0.00  0.00    -0.393 NA
ATOM      3  N   UNL     1      34.744 -22.471 -17.351  0.00  0.00    -0.160 NA
ATOM      4  N   UNL     1      36.613 -21.404 -18.233  0.00  0.00    -0.281 N 
ATOM      5  N   UNL     1      34.707 -20.991 -19.681  0.00  0.00    -0.166 NA
ATOM      6  N   UNL     1      34.609 -20.287 -20.822  0.00  0.00    -0.239 N 
ATOM      7  C   UNL     1      36.348 -23.435 -15.163  0.00  0.00    +0.005 C 
ATOM      8  C   UNL     1      34.963 -23.745 -15.265  0.00  0.00    +0.196 C 
ATOM      9  C   UNL     1      32.969 -23.671 -16.224  0.00  0.00    +0.151 C 
ATOM     10  C   UNL     1      36.880 -22.672 -16.133  0.00  0.00    +0.034 C 
ATOM     11  C   UNL     1      32.941 -24.416 -15.070  0.00  0.00    +0.109 C 
ATOM     12  C   UNL     1      36.020 -22.182 -17.264  0.00  0.00    +0.151 C 
ATOM     13  C   UNL     1      31.800 -25.115 -14.458  0.00  0.00    +0.063 C 
ATOM     14  C   UNL     1      35.994 -20.856 -19.352  0.00  0.00    +0.152 C 
ATOM     15  C   UNL     1      36.713 -20.074 -20.275  0.00  0.00    +0.048 C 
ATOM     16  C   UNL     1      35.783 -19.718 -21.221  0.00  0.00    +0.046 C 
ATOM     17  C   UNL     1      35.885 -18.909 -22.446  0.00  0.00    +0.049 C 
ATOM     18  H   UNL     1      37.573 -21.215 -18.121  0.00  0.00    +0.155 HD
ATOM     19  H   UNL     1      33.768 -20.192 -21.324  0.00  0.00    +0.174 HD
ENDROOT
BRANCH   7  20
ATOM     20  C   UNL     1      37.218 -23.921 -14.033  0.00  0.00    -0.046 C 
BRANCH  20  22
ATOM     21  O   UNL     1      36.450 -24.034  -9.908  0.00  0.00    -0.358 OA
ATOM     22  N   UNL     1      36.568 -23.739 -12.737  0.00  0.00    +0.393 N 
ATOM     23  C   UNL     1      36.279 -25.037 -12.111  0.00  0.00    -0.044 C 
ATOM     24  C   UNL     1      37.402 -22.924 -11.844  0.00  0.00    -0.044 C 
ATOM     25  C   UNL     1      35.611 -24.820 -10.756  0.00  0.00    +0.119 C 
ATOM     26  C   UNL     1      36.710 -22.758 -10.495  0.00  0.00    +0.119 C 
ATOM     27  H   UNL     1      35.687 -23.250 -12.896  0.00  0.00    -0.079 HD
ENDBRANCH  20  22
ENDBRANCH   7  20
BRANCH   9  28
ATOM     28  C   UNL     1      31.913 -23.335 -17.197  0.00  0.00    +0.057 C 
BRANCH  28  31
ATOM     29 CL   UNL     1      26.516 -22.200 -14.753  0.00  0.00    -0.082 Cl
ATOM     30  F   UNL     1      31.569 -21.860 -14.792  0.00  0.00    -0.204 F 
ATOM     31  C   UNL     1      30.552 -23.048 -16.578  0.00  0.00    +0.007 C 
ATOM     32  C   UNL     1      30.462 -22.315 -15.394  0.00  0.00    +0.137 C 
ATOM     33  C   UNL     1      29.394 -23.517 -17.198  0.00  0.00    -0.001 C 
ATOM     34  C   UNL     1      29.213 -22.053 -14.830  0.00  0.00    +0.041 C 
ATOM     35  C   UNL     1      28.146 -23.255 -16.634  0.00  0.00    +0.011 C 
ATOM     36  C   UNL     1      28.055 -22.523 -15.449  0.00  0.00    +0.060 C 
ENDBRANCH  28  31
ENDBRANCH   9  28
TORSDOF 4
ENDMDL
MODEL 6
REMARK VINA RESULT:      -8.9      6.488      9.348
REMARK  Name = 46213929
REMARK  4 active torsions:
REMARK  status: ('A' for Active; 'I' for Inactive)
REMARK    1  A    between atoms: C_7  and  C_20
REMARK    2  A    between atoms: C_9  and  C_28
REMARK    3  A    between atoms: C_20  and  N_22
REMARK    4  A    between atoms: C_28  and  C_31
REMARK                            x       y       z     vdW  Elec       q    Type
REMARK                         _______ _______ _______ _____ _____    ______ ____
ROOT
ATOM      1  N   UNL     1      33.861 -15.807 -23.191  0.00  0.00    -0.179 N 
ATOM      2  N   UNL     1      34.977 -17.582 -23.940  0.00  0.00    -0.393 NA
ATOM      3  N   UNL     1      33.349 -14.875 -22.349  0.00  0.00    -0.160 NA
ATOM      4  N   UNL     1      33.204 -14.147 -20.146  0.00  0.00    -0.281 N 
ATOM      5  N   UNL     1      31.922 -12.646 -21.563  0.00  0.00    -0.166 NA
ATOM      6  N   UNL     1      31.207 -11.551 -21.258  0.00  0.00    -0.239 N 
ATOM      7  C   UNL     1      35.015 -17.064 -21.499  0.00  0.00    +0.005 C 
ATOM      8  C   UNL     1      34.664 -16.882 -22.866  0.00  0.00    +0.196 C 
ATOM      9  C   UNL     1      33.664 -15.844 -24.546  0.00  0.00    +0.151 C 
ATOM     10  C   UNL     1      34.536 -16.169 -20.618  0.00  0.00    +0.034 C 
ATOM     11  C   UNL     1      34.361 -16.945 -24.983  0.00  0.00    +0.109 C 
ATOM     12  C   UNL     1      33.669 -15.036 -21.089  0.00  0.00    +0.151 C 
ATOM     13  C   UNL     1      34.495 -17.460 -26.355  0.00  0.00    +0.063 C 
ATOM     14  C   UNL     1      32.394 -13.040 -20.377  0.00  0.00    +0.152 C 
ATOM     15  C   UNL     1      31.984 -12.202 -19.323  0.00  0.00    +0.048 C 
ATOM     16  C   UNL     1      31.212 -11.241 -19.930  0.00  0.00    +0.046 C 
ATOM     17  C   UNL     1      30.489 -10.076 -19.393  0.00  0.00    +0.049 C 
ATOM     18  H   UNL     1      33.472 -14.312 -19.213  0.00  0.00    +0.155 HD
ATOM     19  H   UNL     1      30.724 -11.020 -21.931  0.00  0.00    +0.174 HD
ENDROOT
BRANCH   7  20
ATOM     20  C   UNL     1      35.883 -18.197 -21.017  0.00  0.00    -0.046 C 
BRANCH  20  22
ATOM     21  O   UNL     1      33.794 -21.718 -20.093  0.00  0.00    -0.358 OA
ATOM     22  N   UNL     1      35.106 -19.200 -20.292  0.00  0.00    +0.393 N 
ATOM     23  C   UNL     1      33.824 -19.454 -20.963  0.00  0.00    -0.044 C 
ATOM     24  C   UNL     1      35.864 -20.452 -20.161  0.00  0.00    -0.044 C 
ATOM     25  C   UNL     1      33.038 -20.511 -20.194  0.00  0.00    +0.119 C 
ATOM     26  C   UNL     1      35.029 -21.487 -19.412  0.00  0.00    +0.119 C 
ATOM     27  H   UNL     1      34.919 -18.834 -19.358  0.00  0.00    -0.079 HD
ENDBRANCH  20  22
ENDBRANCH   7  20
BRANCH   9  28
ATOM     28  C   UNL     1      32.852 -14.849 -25.271  0.00  0.00    +0.057 C 
BRANCH  28  31
ATOM     29 CL   UNL     1      35.448  -9.433 -25.833  0.00  0.00    -0.082 Cl
ATOM     30  F   UNL     1      33.682 -13.768 -27.766  0.00  0.00    -0.204 F 
ATOM     31  C   UNL     1      33.508 -13.483 -25.415  0.00  0.00    +0.007 C 
ATOM     32  C   UNL     1      33.889 -13.018 -26.675  0.00  0.00    +0.137 C 
ATOM     33  C   UNL     1      33.726 -12.694 -24.286  0.00  0.00    -0.001 C 
ATOM     34  C   UNL     1      34.489 -11.765 -26.803  0.00  0.00    +0.041 C 
ATOM     35  C   UNL     1      34.326 -11.442 -24.414  0.00  0.00    +0.011 C 
ATOM     36  C   UNL     1      34.707 -10.977 -25.674  0.00  0.00    +0.060 C 
ENDBRANCH  28  31
ENDBRANCH   9  28
TORSDOF 4
ENDMDL
