MODEL 1
REMARK VINA RESULT:      -9.3      0.000      0.000
REMARK  Name = 2377
REMARK  8 active torsions:
REMARK  status: ('A' for Active; 'I' for Inactive)
REMARK    1  A    between atoms: C_1  and  C_16
REMARK    2  A    between atoms: C_2  and  O_7
REMARK    3  A    between atoms: O_7  and  C_8
REMARK    4  A    between atoms: C_8  and  C_9
REMARK    5  A    between atoms: C_9  and  C_10
REMARK    6  A    between atoms: C_10  and  C_11
REMARK    7  A    between atoms: C_11  and  N_12
REMARK    8  A    between atoms: C_16  and  C_17
REMARK                            x       y       z     vdW  Elec       q    Type
REMARK                         _______ _______ _______ _____ _____    ______ ____
ROOT
ATOM      1  C   UNL     1      35.334 -18.063 -22.813  0.00  0.00    +0.016 C 
ATOM      2  C   UNL     1      34.934 -16.731 -22.848  0.00  0.00    +0.135 C 
ATOM      3  C   UNL     1      35.155 -18.868 -23.939  0.00  0.00    -0.001 C 
ATOM      4  C   UNL     1      34.358 -16.196 -23.996  0.00  0.00    +0.037 C 
ATOM      5  C   UNL     1      34.578 -18.338 -25.092  0.00  0.00    -0.000 C 
ATOM      6  C   UNL     1      34.179 -17.001 -25.121  0.00  0.00    +0.003 C 
ENDROOT
BRANCH   2   7
ATOM      7  O   UNL     1      35.101 -15.927 -21.753  0.00  0.00    -0.476 OA
BRANCH   7   8
ATOM      8  C   UNL     1      34.348 -14.722 -21.720  0.00  0.00    +0.205 C 
BRANCH   8   9
ATOM      9  C   UNL     1      33.206 -14.853 -20.719  0.00  0.00    +0.045 C 
BRANCH   9  10
ATOM     10  C   UNL     1      32.359 -13.584 -20.662  0.00  0.00    -0.020 C 
BRANCH  10  11
ATOM     11  C   UNL     1      32.216 -12.954 -22.047  0.00  0.00    -0.082 C 
BRANCH  11  12
ATOM     12  N   UNL     1      31.108 -12.006 -22.059  0.00  0.00    +0.382 N 
ATOM     13  C   UNL     1      31.054 -11.254 -20.814  0.00  0.00    -0.106 C 
ATOM     14  H   UNL     1      30.232 -12.517 -22.178  0.00  0.00    -0.085 HD
ATOM     15  H   UNL     1      31.246 -11.352 -22.829  0.00  0.00    -0.085 HD
ENDBRANCH  11  12
ENDBRANCH  10  11
ENDBRANCH   9  10
ENDBRANCH   8   9
ENDBRANCH   7   8
ENDBRANCH   2   7
BRANCH   1  16
ATOM     16  C   UNL     1      35.954 -18.648 -21.588  0.00  0.00    +0.056 C 
BRANCH  16  17
ATOM     17  C   UNL     1      35.067 -19.642 -20.866  0.00  0.00    -0.018 C 
ATOM     18  C   UNL     1      35.650 -20.704 -20.198  0.00  0.00    -0.004 C 
ATOM     19  C   UNL     1      33.696 -19.463 -20.890  0.00  0.00    -0.004 C 
ATOM     20  C   UNL     1      34.833 -21.619 -19.533  0.00  0.00    -0.000 C 
ATOM     21  C   UNL     1      32.879 -20.378 -20.226  0.00  0.00    -0.000 C 
ATOM     22  C   UNL     1      33.448 -21.456 -19.548  0.00  0.00    -0.000 C 
ENDBRANCH  16  17
ENDBRANCH   1  16
TORSDOF 8
ENDMDL
MODEL 2
REMARK VINA RESULT:      -9.2      1.131      1.375
REMARK  Name = 2377
REMARK  8 active torsions:
REMARK  status: ('A' for Active; 'I' for Inactive)
REMARK    1  A    between atoms: C_1  and  C_16
REMARK    2  A    between atoms: C_2  and  O_7
REMARK    3  A    between atoms: O_7  and  C_8
REMARK    4  A    between atoms: C_8  and  C_9
REMARK    5  A    between atoms: C_9  and  C_10
REMARK    6  A    between atoms: C_10  and  C_11
REMARK    7  A    between atoms: C_11  and  N_12
REMARK    8  A    between atoms: C_16  and  C_17
REMARK                            x       y       z     vdW  Elec       q    Type
REMARK                         _______ _______ _______ _____ _____    ______ ____
ROOT
ATOM      1  C   UNL     1      35.263 -18.098 -22.857  0.00  0.00    +0.016 C 
ATOM      2  C   UNL     1      34.974 -16.758 -23.092  0.00  0.00    +0.135 C 
ATOM      3  C   UNL     1      34.994 -19.046 -23.845  0.00  0.00    -0.001 C 
ATOM      4  C   UNL     1      34.418 -16.356 -24.302  0.00  0.00    +0.037 C 
ATOM      5  C   UNL     1      34.436 -18.649 -25.060  0.00  0.00    -0.000 C 
ATOM      6  C   UNL     1      34.149 -17.303 -25.289  0.00  0.00    +0.003 C 
ENDROOT
BRANCH   2   7
ATOM      7  O   UNL     1      35.232 -15.814 -22.133  0.00  0.00    -0.476 OA
BRANCH   7   8
ATOM      8  C   UNL     1      34.459 -15.880 -20.942  0.00  0.00    +0.205 C 
BRANCH   8   9
ATOM      9  C   UNL     1      33.010 -15.520 -21.246  0.00  0.00    +0.045 C 
BRANCH   9  10
ATOM     10  C   UNL     1      32.787 -14.009 -21.214  0.00  0.00    -0.020 C 
BRANCH  10  11
ATOM     11  C   UNL     1      32.617 -13.446 -22.624  0.00  0.00    -0.082 C 
BRANCH  11  12
ATOM     12  N   UNL     1      33.911 -13.054 -23.171  0.00  0.00    +0.382 N 
ATOM     13  C   UNL     1      33.766 -12.536 -24.524  0.00  0.00    -0.106 C 
ATOM     14  H   UNL     1      34.526 -13.868 -23.190  0.00  0.00    -0.085 HD
ATOM     15  H   UNL     1      34.306 -12.322 -22.583  0.00  0.00    -0.085 HD
ENDBRANCH  11  12
ENDBRANCH  10  11
ENDBRANCH   9  10
ENDBRANCH   8   9
ENDBRANCH   7   8
ENDBRANCH   2   7
BRANCH   1  16
ATOM     16  C   UNL     1      35.861 -18.541 -21.563  0.00  0.00    +0.056 C 
BRANCH  16  17
ATOM     17  C   UNL     1      35.048 -19.596 -20.841  0.00  0.00    -0.018 C 
ATOM     18  C   UNL     1      35.704 -20.635 -20.206  0.00  0.00    -0.004 C 
ATOM     19  C   UNL     1      33.668 -19.495 -20.833  0.00  0.00    -0.004 C 
ATOM     20  C   UNL     1      34.955 -21.607 -19.541  0.00  0.00    -0.000 C 
ATOM     21  C   UNL     1      32.920 -20.467 -20.169  0.00  0.00    -0.000 C 
ATOM     22  C   UNL     1      33.563 -21.523 -19.524  0.00  0.00    -0.000 C 
ENDBRANCH  16  17
ENDBRANCH   1  16
TORSDOF 8
ENDMDL
MODEL 3
REMARK VINA RESULT:      -8.5      5.938      9.979
REMARK  Name = 2377
REMARK  8 active torsions:
REMARK  status: ('A' for Active; 'I' for Inactive)
REMARK    1  A    between atoms: C_1  and  C_16
REMARK    2  A    between atoms: C_2  and  O_7
REMARK    3  A    between atoms: O_7  and  C_8
REMARK    4  A    between atoms: C_8  and  C_9
REMARK    5  A    between atoms: C_9  and  C_10
REMARK    6  A    between atoms: C_10  and  C_11
REMARK    7  A    between atoms: C_11  and  N_12
REMARK    8  A    between atoms: C_16  and  C_17
REMARK                            x       y       z     vdW  Elec       q    Type
REMARK                         _______ _______ _______ _____ _____    ______ ____
ROOT
ATOM      1  C   UNL     1      33.268 -23.273 -17.337  0.00  0.00    +0.016 C 
ATOM      2  C   UNL     1      34.143 -23.363 -16.260  0.00  0.00    +0.135 C 
ATOM      3  C   UNL     1      31.911 -23.040 -17.109  0.00  0.00    -0.001 C 
ATOM      4  C   UNL     1      33.676 -23.224 -14.956  0.00  0.00    +0.037 C 
ATOM      5  C   UNL     1      31.437 -22.900 -15.804  0.00  0.00    -0.000 C 
ATOM      6  C   UNL     1      32.320 -22.992 -14.728  0.00  0.00    +0.003 C 
ENDROOT
BRANCH   2   7
ATOM      7  O   UNL     1      35.478 -23.591 -16.466  0.00  0.00    -0.476 OA
BRANCH   7   8
ATOM      8  C   UNL     1      36.372 -22.551 -16.092  0.00  0.00    +0.205 C 
BRANCH   8   9
ATOM      9  C   UNL     1      37.564 -23.137 -15.346  0.00  0.00    +0.045 C 
BRANCH   9  10
ATOM     10  C   UNL     1      37.192 -23.541 -13.920  0.00  0.00    -0.020 C 
BRANCH  10  11
ATOM     11  C   UNL     1      37.352 -25.046 -13.714  0.00  0.00    -0.082 C 
BRANCH  11  12
ATOM     12  N   UNL     1      36.253 -25.764 -14.348  0.00  0.00    +0.382 N 
ATOM     13  C   UNL     1      36.755 -26.791 -15.250  0.00  0.00    -0.106 C 
ATOM     14  H   UNL     1      35.685 -25.103 -14.879  0.00  0.00    -0.085 HD
ATOM     15  H   UNL     1      35.695 -26.212 -13.623  0.00  0.00    -0.085 HD
ENDBRANCH  11  12
ENDBRANCH  10  11
ENDBRANCH   9  10
ENDBRANCH   8   9
ENDBRANCH   7   8
ENDBRANCH   2   7
BRANCH   1  16
ATOM     16  C   UNL     1      33.757 -23.419 -18.740  0.00  0.00    +0.056 C 
BRANCH  16  17
ATOM     17  C   UNL     1      34.088 -22.104 -19.415  0.00  0.00    -0.018 C 
ATOM     18  C   UNL     1      33.056 -21.284 -19.834  0.00  0.00    -0.004 C 
ATOM     19  C   UNL     1      35.413 -21.754 -19.596  0.00  0.00    -0.004 C 
ATOM     20  C   UNL     1      33.360 -20.072 -20.455  0.00  0.00    -0.000 C 
ATOM     21  C   UNL     1      35.718 -20.543 -20.218  0.00  0.00    -0.000 C 
ATOM     22  C   UNL     1      34.691 -19.703 -20.648  0.00  0.00    -0.000 C 
ENDBRANCH  16  17
ENDBRANCH   1  16
TORSDOF 8
ENDMDL
MODEL 4
REMARK VINA RESULT:      -8.2      7.032     10.159
REMARK  Name = 2377
REMARK  8 active torsions:
REMARK  status: ('A' for Active; 'I' for Inactive)
REMARK    1  A    between atoms: C_1  and  C_16
REMARK    2  A    between atoms: C_2  and  O_7
REMARK    3  A    between atoms: O_7  and  C_8
REMARK    4  A    between atoms: C_8  and  C_9
REMARK    5  A    between atoms: C_9  and  C_10
REMARK    6  A    between atoms: C_10  and  C_11
REMARK    7  A    between atoms: C_11  and  N_12
REMARK    8  A    between atoms: C_16  and  C_17
REMARK                            x       y       z     vdW  Elec       q    Type
REMARK                         _______ _______ _______ _____ _____    ______ ____
ROOT
ATOM      1  C   UNL     1      34.413  -9.236 -24.061  0.00  0.00    +0.016 C 
ATOM      2  C   UNL     1      33.505 -10.150 -23.537  0.00  0.00    +0.135 C 
ATOM      3  C   UNL     1      35.201  -9.594 -25.155  0.00  0.00    -0.001 C 
ATOM      4  C   UNL     1      33.378 -11.418 -24.094  0.00  0.00    +0.037 C 
ATOM      5  C   UNL     1      35.079 -10.864 -25.717  0.00  0.00    -0.000 C 
ATOM      6  C   UNL     1      34.166 -11.777 -25.187  0.00  0.00    +0.003 C 
ENDROOT
BRANCH   2   7
ATOM      7  O   UNL     1      32.723  -9.815 -22.463  0.00  0.00    -0.476 OA
BRANCH   7   8
ATOM      8  C   UNL     1      31.330 -10.076 -22.577  0.00  0.00    +0.205 C 
BRANCH   8   9
ATOM      9  C   UNL     1      30.885 -11.008 -21.458  0.00  0.00    +0.045 C 
BRANCH   9  10
ATOM     10  C   UNL     1      31.811 -10.914 -20.246  0.00  0.00    -0.020 C 
BRANCH  10  11
ATOM     11  C   UNL     1      31.539  -9.644 -19.441  0.00  0.00    -0.082 C 
BRANCH  11  12
ATOM     12  N   UNL     1      32.676  -8.736 -19.530  0.00  0.00    +0.382 N 
ATOM     13  C   UNL     1      32.272  -7.451 -20.084  0.00  0.00    -0.106 C 
ATOM     14  H   UNL     1      33.388  -9.149 -20.132  0.00  0.00    -0.085 HD
ATOM     15  H   UNL     1      33.046  -8.584 -18.592  0.00  0.00    -0.085 HD
ENDBRANCH  11  12
ENDBRANCH  10  11
ENDBRANCH   9  10
ENDBRANCH   8   9
ENDBRANCH   7   8
ENDBRANCH   2   7
BRANCH   1  16
ATOM     16  C   UNL     1      34.557  -7.871 -23.472  0.00  0.00    +0.056 C 
BRANCH  16  17
ATOM     17  C   UNL     1      33.792  -6.797 -24.217  0.00  0.00    -0.018 C 
ATOM     18  C   UNL     1      34.337  -6.257 -25.368  0.00  0.00    -0.004 C 
ATOM     19  C   UNL     1      32.565  -6.383 -23.731  0.00  0.00    -0.004 C 
ATOM     20  C   UNL     1      33.633  -5.267 -26.054  0.00  0.00    -0.000 C 
ATOM     21  C   UNL     1      31.861  -5.394 -24.416  0.00  0.00    -0.000 C 
ATOM     22  C   UNL     1      32.395  -4.836 -25.578  0.00  0.00    -0.000 C 
ENDBRANCH  16  17
ENDBRANCH   1  16
TORSDOF 8
ENDMDL
MODEL 5
REMARK VINA RESULT:      -8.2      5.026      8.587
REMARK  Name = 2377
REMARK  8 active torsions:
REMARK  status: ('A' for Active; 'I' for Inactive)
REMARK    1  A    between atoms: C_1  and  C_16
REMARK    2  A    between atoms: C_2  and  O_7
REMARK    3  A    between atoms: O_7  and  C_8
REMARK    4  A    between atoms: C_8  and  C_9
REMARK    5  A    between atoms: C_9  and  C_10
REMARK    6  A    between atoms: C_10  and  C_11
REMARK    7  A    between atoms: C_11  and  N_12
REMARK    8  A    between atoms: C_16  and  C_17
REMARK                            x       y       z     vdW  Elec       q    Type
REMARK                         _______ _______ _______ _____ _____    ______ ____
ROOT
ATOM      1  C   UNL     1      35.143 -22.529 -17.582  0.00  0.00    +0.016 C 
ATOM      2  C   UNL     1      34.816 -23.015 -16.320  0.00  0.00    +0.135 C 
ATOM      3  C   UNL     1      36.384 -21.927 -17.791  0.00  0.00    -0.001 C 
ATOM      4  C   UNL     1      35.717 -22.904 -15.265  0.00  0.00    +0.037 C 
ATOM      5  C   UNL     1      37.291 -21.814 -16.737  0.00  0.00    -0.000 C 
ATOM      6  C   UNL     1      36.957 -22.303 -15.474  0.00  0.00    +0.003 C 
ENDROOT
BRANCH   2   7
ATOM      7  O   UNL     1      33.602 -23.608 -16.097  0.00  0.00    -0.476 OA
BRANCH   7   8
ATOM      8  C   UNL     1      33.057 -23.484 -14.790  0.00  0.00    +0.205 C 
BRANCH   8   9
ATOM      9  C   UNL     1      31.649 -22.907 -14.870  0.00  0.00    +0.045 C 
BRANCH   9  10
ATOM     10  C   UNL     1      31.075 -23.017 -16.281  0.00  0.00    -0.020 C 
BRANCH  10  11
ATOM     11  C   UNL     1      29.638 -23.536 -16.253  0.00  0.00    -0.082 C 
BRANCH  11  12
ATOM     12  N   UNL     1      28.759 -22.631 -16.984  0.00  0.00    +0.382 N 
ATOM     13  C   UNL     1      27.497 -22.453 -16.280  0.00  0.00    -0.106 C 
ATOM     14  H   UNL     1      28.574 -23.019 -17.909  0.00  0.00    -0.085 HD
ATOM     15  H   UNL     1      29.218 -21.724 -17.063  0.00  0.00    -0.085 HD
ENDBRANCH  11  12
ENDBRANCH  10  11
ENDBRANCH   9  10
ENDBRANCH   8   9
ENDBRANCH   7   8
ENDBRANCH   2   7
BRANCH   1  16
ATOM     16  C   UNL     1      34.185 -22.642 -18.722  0.00  0.00    +0.056 C 
BRANCH  16  17
ATOM     17  C   UNL     1      34.121 -21.405 -19.594  0.00  0.00    -0.018 C 
ATOM     18  C   UNL     1      32.906 -20.768 -19.771  0.00  0.00    -0.004 C 
ATOM     19  C   UNL     1      35.279 -20.942 -20.192  0.00  0.00    -0.004 C 
ATOM     20  C   UNL     1      32.847 -19.629 -20.574  0.00  0.00    -0.000 C 
ATOM     21  C   UNL     1      35.219 -19.803 -20.996  0.00  0.00    -0.000 C 
ATOM     22  C   UNL     1      34.003 -19.148 -21.187  0.00  0.00    -0.000 C 
ENDBRANCH  16  17
ENDBRANCH   1  16
TORSDOF 8
ENDMDL
MODEL 6
REMARK VINA RESULT:      -8.2      4.119      7.867
REMARK  Name = 2377
REMARK  8 active torsions:
REMARK  status: ('A' for Active; 'I' for Inactive)
REMARK    1  A    between atoms: C_1  and  C_16
REMARK    2  A    between atoms: C_2  and  O_7
REMARK    3  A    between atoms: O_7  and  C_8
REMARK    4  A    between atoms: C_8  and  C_9
REMARK    5  A    between atoms: C_9  and  C_10
REMARK    6  A    between atoms: C_10  and  C_11
REMARK    7  A    between atoms: C_11  and  N_12
REMARK    8  A    between atoms: C_16  and  C_17
REMARK                            x       y       z     vdW  Elec       q    Type
REMARK                         _______ _______ _______ _____ _____    ______ ____
ROOT
ATOM      1  C   UNL     1      34.911 -19.549 -20.755  0.00  0.00    +0.016 C 
ATOM      2  C   UNL     1      35.244 -20.565 -19.866  0.00  0.00    +0.135 C 
ATOM      3  C   UNL     1      33.595 -19.422 -21.199  0.00  0.00    -0.001 C 
ATOM      4  C   UNL     1      34.276 -21.457 -19.418  0.00  0.00    +0.037 C 
ATOM      5  C   UNL     1      32.619 -20.314 -20.753  0.00  0.00    -0.000 C 
ATOM      6  C   UNL     1      32.960 -21.331 -19.862  0.00  0.00    +0.003 C 
ENDROOT
BRANCH   2   7
ATOM      7  O   UNL     1      36.532 -20.704 -19.420  0.00  0.00    -0.476 OA
BRANCH   7   8
ATOM      8  C   UNL     1      36.794 -21.793 -18.545  0.00  0.00    +0.205 C 
BRANCH   8   9
ATOM      9  C   UNL     1      37.082 -21.272 -17.143  0.00  0.00    +0.045 C 
BRANCH   9  10
ATOM     10  C   UNL     1      37.113 -22.403 -16.117  0.00  0.00    -0.020 C 
BRANCH  10  11
ATOM     11  C   UNL     1      35.702 -22.773 -15.661  0.00  0.00    -0.082 C 
BRANCH  11  12
ATOM     12  N   UNL     1      35.651 -24.175 -15.265  0.00  0.00    +0.382 N 
ATOM     13  C   UNL     1      36.989 -24.694 -15.015  0.00  0.00    -0.106 C 
ATOM     14  H   UNL     1      35.217 -24.718 -16.011  0.00  0.00    -0.085 HD
ATOM     15  H   UNL     1      35.107 -24.252 -14.406  0.00  0.00    -0.085 HD
ENDBRANCH  11  12
ENDBRANCH  10  11
ENDBRANCH   9  10
ENDBRANCH   8   9
ENDBRANCH   7   8
ENDBRANCH   2   7
BRANCH   1  16
ATOM     16  C   UNL     1      35.942 -18.585 -21.243  0.00  0.00    +0.056 C 
BRANCH  16  17
ATOM     17  C   UNL     1      35.371 -17.263 -21.715  0.00  0.00    -0.018 C 
ATOM     18  C   UNL     1      35.348 -16.986 -23.070  0.00  0.00    -0.004 C 
ATOM     19  C   UNL     1      34.886 -16.366 -20.781  0.00  0.00    -0.004 C 
ATOM     20  C   UNL     1      34.822 -15.768 -23.505  0.00  0.00    -0.000 C 
ATOM     21  C   UNL     1      34.362 -15.150 -21.216  0.00  0.00    -0.000 C 
ATOM     22  C   UNL     1      34.330 -14.850 -22.578  0.00  0.00    -0.000 C 
ENDBRANCH  16  17
ENDBRANCH   1  16
TORSDOF 8
ENDMDL
MODEL 7
REMARK VINA RESULT:      -8.1      1.515      2.160
REMARK  Name = 2377
REMARK  8 active torsions:
REMARK  status: ('A' for Active; 'I' for Inactive)
REMARK    1  A    between atoms: C_1  and  C_16
REMARK    2  A    between atoms: C_2  and  O_7
REMARK    3  A    between atoms: O_7  and  C_8
REMARK    4  A    between atoms: C_8  and  C_9
REMARK    5  A    between atoms: C_9  and  C_10
REMARK    6  A    between atoms: C_10  and  C_11
REMARK    7  A    between atoms: C_11  and  N_12
REMARK    8  A    between atoms: C_16  and  C_17
REMARK                            x       y       z     vdW  Elec       q    Type
REMARK                         _______ _______ _______ _____ _____    ______ ____
ROOT
ATOM      1  C   UNL     1      34.560 -16.291 -22.933  0.00  0.00    +0.016 C 
ATOM      2  C   UNL     1      33.804 -15.160 -23.222  0.00  0.00    +0.135 C 
ATOM      3  C   UNL     1      34.905 -17.172 -23.958  0.00  0.00    -0.001 C 
ATOM      4  C   UNL     1      33.389 -14.900 -24.524  0.00  0.00    +0.037 C 
ATOM      5  C   UNL     1      34.491 -16.918 -25.266  0.00  0.00    -0.000 C 
ATOM      6  C   UNL     1      33.733 -15.781 -25.549  0.00  0.00    +0.003 C 
ENDROOT
BRANCH   2   7
ATOM      7  O   UNL     1      33.456 -14.284 -22.227  0.00  0.00    -0.476 OA
BRANCH   7   8
ATOM      8  C   UNL     1      32.337 -13.443 -22.475  0.00  0.00    +0.205 C 
BRANCH   8   9
ATOM      9  C   UNL     1      32.013 -12.634 -21.225  0.00  0.00    +0.045 C 
BRANCH   9  10
ATOM     10  C   UNL     1      31.008 -11.522 -21.520  0.00  0.00    -0.020 C 
BRANCH  10  11
ATOM     11  C   UNL     1      31.704 -10.166 -21.634  0.00  0.00    -0.082 C 
BRANCH  11  12
ATOM     12  N   UNL     1      32.009  -9.871 -23.029  0.00  0.00    +0.382 N 
ATOM     13  C   UNL     1      33.225  -9.077 -23.137  0.00  0.00    -0.106 C 
ATOM     14  H   UNL     1      31.233  -9.349 -23.438  0.00  0.00    -0.085 HD
ATOM     15  H   UNL     1      32.149 -10.749 -23.526  0.00  0.00    -0.085 HD
ENDBRANCH  11  12
ENDBRANCH  10  11
ENDBRANCH   9  10
ENDBRANCH   8   9
ENDBRANCH   7   8
ENDBRANCH   2   7
BRANCH   1  16
ATOM     16  C   UNL     1      35.012 -16.580 -21.539  0.00  0.00    +0.056 C 
BRANCH  16  17
ATOM     17  C   UNL     1      34.894 -18.038 -21.146  0.00  0.00    -0.018 C 
ATOM     18  C   UNL     1      36.047 -18.772 -20.930  0.00  0.00    -0.004 C 
ATOM     19  C   UNL     1      33.638 -18.601 -21.012  0.00  0.00    -0.004 C 
ATOM     20  C   UNL     1      35.939 -20.115 -20.567  0.00  0.00    -0.000 C 
ATOM     21  C   UNL     1      33.530 -19.944 -20.651  0.00  0.00    -0.000 C 
ATOM     22  C   UNL     1      34.681 -20.701 -20.429  0.00  0.00    -0.000 C 
ENDBRANCH  16  17
ENDBRANCH   1  16
TORSDOF 8
ENDMDL
MODEL 8
REMARK VINA RESULT:      -8.1      2.753      6.633
REMARK  Name = 2377
REMARK  8 active torsions:
REMARK  status: ('A' for Active; 'I' for Inactive)
REMARK    1  A    between atoms: C_1  and  C_16
REMARK    2  A    between atoms: C_2  and  O_7
REMARK    3  A    between atoms: O_7  and  C_8
REMARK    4  A    between atoms: C_8  and  C_9
REMARK    5  A    between atoms: C_9  and  C_10
REMARK    6  A    between atoms: C_10  and  C_11
REMARK    7  A    between atoms: C_11  and  N_12
REMARK    8  A    between atoms: C_16  and  C_17
REMARK                            x       y       z     vdW  Elec       q    Type
REMARK                         _______ _______ _______ _____ _____    ______ ____
ROOT
ATOM      1  C   UNL     1      34.796 -17.019 -22.805  0.00  0.00    +0.016 C 
ATOM      2  C   UNL     1      34.886 -18.365 -22.466  0.00  0.00    +0.135 C 
ATOM      3  C   UNL     1      34.583 -16.653 -24.134  0.00  0.00    -0.001 C 
ATOM      4  C   UNL     1      34.768 -19.349 -23.442  0.00  0.00    +0.037 C 
ATOM      5  C   UNL     1      34.464 -17.636 -25.118  0.00  0.00    -0.000 C 
ATOM      6  C   UNL     1      34.556 -18.984 -24.772  0.00  0.00    +0.003 C 
ENDROOT
BRANCH   2   7
ATOM      7  O   UNL     1      35.094 -18.742 -21.166  0.00  0.00    -0.476 OA
BRANCH   7   8
ATOM      8  C   UNL     1      36.337 -19.366 -20.870  0.00  0.00    +0.205 C 
BRANCH   8   9
ATOM      9  C   UNL     1      36.095 -20.654 -20.091  0.00  0.00    +0.045 C 
BRANCH   9  10
ATOM     10  C   UNL     1      34.603 -20.944 -19.932  0.00  0.00    -0.020 C 
BRANCH  10  11
ATOM     11  C   UNL     1      34.374 -22.254 -19.180  0.00  0.00    -0.082 C 
BRANCH  11  12
ATOM     12  N   UNL     1      32.990 -22.343 -18.731  0.00  0.00    +0.382 N 
ATOM     13  C   UNL     1      32.898 -23.075 -17.475  0.00  0.00    -0.106 C 
ATOM     14  H   UNL     1      32.439 -22.827 -19.440  0.00  0.00    -0.085 HD
ATOM     15  H   UNL     1      32.633 -21.400 -18.583  0.00  0.00    -0.085 HD
ENDBRANCH  11  12
ENDBRANCH  10  11
ENDBRANCH   9  10
ENDBRANCH   8   9
ENDBRANCH   7   8
ENDBRANCH   2   7
BRANCH   1  16
ATOM     16  C   UNL     1      34.920 -15.954 -21.766  0.00  0.00    +0.056 C 
BRANCH  16  17
ATOM     17  C   UNL     1      33.975 -14.787 -21.967  0.00  0.00    -0.018 C 
ATOM     18  C   UNL     1      32.963 -14.574 -21.049  0.00  0.00    -0.004 C 
ATOM     19  C   UNL     1      34.148 -13.962 -23.064  0.00  0.00    -0.004 C 
ATOM     20  C   UNL     1      32.093 -13.499 -21.235  0.00  0.00    -0.000 C 
ATOM     21  C   UNL     1      33.278 -12.888 -23.250  0.00  0.00    -0.000 C 
ATOM     22  C   UNL     1      32.250 -12.657 -22.335  0.00  0.00    -0.000 C 
ENDBRANCH  16  17
ENDBRANCH   1  16
TORSDOF 8
ENDMDL
MODEL 9
REMARK VINA RESULT:      -8.1      2.511      3.988
REMARK  Name = 2377
REMARK  8 active torsions:
REMARK  status: ('A' for Active; 'I' for Inactive)
REMARK    1  A    between atoms: C_1  and  C_16
REMARK    2  A    between atoms: C_2  and  O_7
REMARK    3  A    between atoms: O_7  and  C_8
REMARK    4  A    between atoms: C_8  and  C_9
REMARK    5  A    between atoms: C_9  and  C_10
REMARK    6  A    between atoms: C_10  and  C_11
REMARK    7  A    between atoms: C_11  and  N_12
REMARK    8  A    between atoms: C_16  and  C_17
REMARK                            x       y       z     vdW  Elec       q    Type
REMARK                         _______ _______ _______ _____ _____    ______ ____
ROOT
ATOM      1  C   UNL     1      34.099 -15.914 -22.258  0.00  0.00    +0.016 C 
ATOM      2  C   UNL     1      33.444 -14.998 -23.075  0.00  0.00    +0.135 C 
ATOM      3  C   UNL     1      33.987 -15.807 -20.871  0.00  0.00    -0.001 C 
ATOM      4  C   UNL     1      32.679 -13.977 -22.520  0.00  0.00    +0.037 C 
ATOM      5  C   UNL     1      33.222 -14.786 -20.309  0.00  0.00    -0.000 C 
ATOM      6  C   UNL     1      32.567 -13.870 -21.134  0.00  0.00    +0.003 C 
ENDROOT
BRANCH   2   7
ATOM      7  O   UNL     1      33.543 -15.087 -24.438  0.00  0.00    -0.476 OA
BRANCH   7   8
ATOM      8  C   UNL     1      32.724 -14.210 -25.200  0.00  0.00    +0.205 C 
BRANCH   8   9
ATOM      9  C   UNL     1      33.457 -13.792 -26.469  0.00  0.00    +0.045 C 
BRANCH   9  10
ATOM     10  C   UNL     1      33.735 -12.289 -26.488  0.00  0.00    -0.020 C 
BRANCH  10  11
ATOM     11  C   UNL     1      33.892 -11.739 -25.071  0.00  0.00    -0.082 C 
BRANCH  11  12
ATOM     12  N   UNL     1      35.036 -10.838 -25.003  0.00  0.00    +0.382 N 
ATOM     13  C   UNL     1      34.714  -9.649 -24.226  0.00  0.00    -0.106 C 
ATOM     14  H   UNL     1      35.297 -10.557 -25.949  0.00  0.00    -0.085 HD
ATOM     15  H   UNL     1      35.808 -11.324 -24.549  0.00  0.00    -0.085 HD
ENDBRANCH  11  12
ENDBRANCH  10  11
ENDBRANCH   9  10
ENDBRANCH   8   9
ENDBRANCH   7   8
ENDBRANCH   2   7
BRANCH   1  16
ATOM     16  C   UNL     1      34.923 -17.014 -22.842  0.00  0.00    +0.056 C 
BRANCH  16  17
ATOM     17  C   UNL     1      35.043 -18.230 -21.947  0.00  0.00    -0.018 C 
ATOM     18  C   UNL     1      33.907 -18.957 -21.641  0.00  0.00    -0.004 C 
ATOM     19  C   UNL     1      36.287 -18.587 -21.458  0.00  0.00    -0.004 C 
ATOM     20  C   UNL     1      34.018 -20.077 -20.817  0.00  0.00    -0.000 C 
ATOM     21  C   UNL     1      36.398 -19.706 -20.634  0.00  0.00    -0.000 C 
ATOM     22  C   UNL     1      35.263 -20.451 -20.313  0.00  0.00    -0.000 C 
ENDBRANCH  16  17
ENDBRANCH   1  16
TORSDOF 8
ENDMDL
