MODEL 1
REMARK VINA RESULT:      -8.6      0.000      0.000
REMARK  Name = 216305
REMARK  3 active torsions:
REMARK  status: ('A' for Active; 'I' for Inactive)
REMARK    1  A    between atoms: C_1  and  N_3
REMARK    2  A    between atoms: C_1  and  C_10
REMARK    3  A    between atoms: C_10  and  C_11
REMARK                            x       y       z     vdW  Elec       q    Type
REMARK                         _______ _______ _______ _____ _____    ______ ____
ROOT
ATOM      1  C   UNL     1      34.887 -18.397 -22.704  0.00  0.00    +0.161 C 
ENDROOT
BRANCH   1   3
ATOM      2  S   UNL     1      34.269 -14.860 -21.182  0.00  0.00    -0.095 S 
ATOM      3  N   UNL     1      34.633 -16.986 -22.429  0.00  0.00    -0.294 N 
ATOM      4  C   UNL     1      34.439 -16.059 -23.417  0.00  0.00    +0.028 C 
ATOM      5  C   UNL     1      34.218 -14.805 -22.899  0.00  0.00    +0.014 C 
ATOM      6  C   UNL     1      34.579 -16.543 -21.200  0.00  0.00    +0.154 C 
ATOM      7  C   UNL     1      34.486 -16.495 -24.820  0.00  0.00    +0.047 C 
ATOM      8  C   UNL     1      33.965 -13.526 -23.593  0.00  0.00    +0.039 C 
ENDBRANCH   1   3
BRANCH   1  10
ATOM      9  O   UNL     1      36.863 -18.739 -21.379  0.00  0.00    -0.290 OA
ATOM     10  C   UNL     1      35.672 -19.058 -21.564  0.00  0.00    +0.193 C 
BRANCH  10  11
ATOM     11  C   UNL     1      35.022 -20.043 -20.714  0.00  0.00    +0.036 C 
ATOM     12  C   UNL     1      33.632 -20.060 -20.603  0.00  0.00    +0.003 C 
ATOM     13  C   UNL     1      35.790 -20.971 -20.011  0.00  0.00    +0.003 C 
ATOM     14  C   UNL     1      33.009 -21.005 -19.788  0.00  0.00    +0.000 C 
ATOM     15  C   UNL     1      35.167 -21.916 -19.195  0.00  0.00    +0.000 C 
ATOM     16  C   UNL     1      33.776 -21.934 -19.084  0.00  0.00    +0.000 C 
ENDBRANCH  10  11
ENDBRANCH   1  10
TORSDOF 3
ENDMDL
MODEL 2
REMARK VINA RESULT:      -8.5      1.517      2.066
REMARK  Name = 216305
REMARK  3 active torsions:
REMARK  status: ('A' for Active; 'I' for Inactive)
REMARK    1  A    between atoms: C_1  and  N_3
REMARK    2  A    between atoms: C_1  and  C_10
REMARK    3  A    between atoms: C_10  and  C_11
REMARK                            x       y       z     vdW  Elec       q    Type
REMARK                         _______ _______ _______ _____ _____    ______ ____
ROOT
ATOM      1  C   UNL     1      35.622 -17.383 -22.530  0.00  0.00    +0.161 C 
ENDROOT
BRANCH   1   3
ATOM      2  S   UNL     1      33.378 -14.626 -24.134  0.00  0.00    -0.095 S 
ATOM      3  N   UNL     1      34.720 -16.277 -22.837  0.00  0.00    -0.294 N 
ATOM      4  C   UNL     1      34.102 -15.530 -21.871  0.00  0.00    +0.028 C 
ATOM      5  C   UNL     1      33.307 -14.551 -22.418  0.00  0.00    +0.014 C 
ATOM      6  C   UNL     1      34.460 -15.950 -24.076  0.00  0.00    +0.154 C 
ATOM      7  C   UNL     1      34.354 -15.847 -20.458  0.00  0.00    +0.047 C 
ATOM      8  C   UNL     1      32.469 -13.532 -21.755  0.00  0.00    +0.039 C 
ENDBRANCH   1   3
BRANCH   1  10
ATOM      9  O   UNL     1      34.696 -19.109 -23.923  0.00  0.00    -0.290 OA
ATOM     10  C   UNL     1      34.944 -18.740 -22.758  0.00  0.00    +0.193 C 
BRANCH  10  11
ATOM     11  C   UNL     1      34.602 -19.578 -21.620  0.00  0.00    +0.036 C 
ATOM     12  C   UNL     1      33.276 -19.675 -21.199  0.00  0.00    +0.003 C 
ATOM     13  C   UNL     1      35.600 -20.286 -20.951  0.00  0.00    +0.003 C 
ATOM     14  C   UNL     1      32.949 -20.481 -20.108  0.00  0.00    +0.000 C 
ATOM     15  C   UNL     1      35.273 -21.091 -19.860  0.00  0.00    +0.000 C 
ATOM     16  C   UNL     1      33.947 -21.189 -19.438  0.00  0.00    +0.000 C 
ENDBRANCH  10  11
ENDBRANCH   1  10
TORSDOF 3
ENDMDL
MODEL 3
REMARK VINA RESULT:      -8.5      1.397      1.815
REMARK  Name = 216305
REMARK  3 active torsions:
REMARK  status: ('A' for Active; 'I' for Inactive)
REMARK    1  A    between atoms: C_1  and  N_3
REMARK    2  A    between atoms: C_1  and  C_10
REMARK    3  A    between atoms: C_10  and  C_11
REMARK                            x       y       z     vdW  Elec       q    Type
REMARK                         _______ _______ _______ _____ _____    ______ ____
ROOT
ATOM      1  C   UNL     1      35.267 -17.283 -21.303  0.00  0.00    +0.161 C 
ENDROOT
BRANCH   1   3
ATOM      2  S   UNL     1      34.493 -17.267 -25.125  0.00  0.00    -0.095 S 
ATOM      3  N   UNL     1      34.863 -16.996 -22.676  0.00  0.00    -0.294 N 
ATOM      4  C   UNL     1      34.262 -15.824 -23.045  0.00  0.00    +0.028 C 
ATOM      5  C   UNL     1      33.982 -15.798 -24.391  0.00  0.00    +0.014 C 
ATOM      6  C   UNL     1      35.064 -17.869 -23.629  0.00  0.00    +0.154 C 
ATOM      7  C   UNL     1      34.010 -14.800 -22.020  0.00  0.00    +0.047 C 
ATOM      8  C   UNL     1      33.346 -14.745 -25.206  0.00  0.00    +0.039 C 
ENDBRANCH   1   3
BRANCH   1  10
ATOM      9  O   UNL     1      37.090 -18.823 -21.592  0.00  0.00    -0.290 OA
ATOM     10  C   UNL     1      35.921 -18.665 -21.187  0.00  0.00    +0.193 C 
BRANCH  10  11
ATOM     11  C   UNL     1      35.177 -19.772 -20.608  0.00  0.00    +0.036 C 
ATOM     12  C   UNL     1      33.785 -19.792 -20.687  0.00  0.00    +0.003 C 
ATOM     13  C   UNL     1      35.855 -20.813 -19.976  0.00  0.00    +0.003 C 
ATOM     14  C   UNL     1      33.070 -20.855 -20.132  0.00  0.00    +0.000 C 
ATOM     15  C   UNL     1      35.141 -21.875 -19.420  0.00  0.00    +0.000 C 
ATOM     16  C   UNL     1      33.748 -21.896 -19.499  0.00  0.00    +0.000 C 
ENDBRANCH  10  11
ENDBRANCH   1  10
TORSDOF 3
ENDMDL
MODEL 4
REMARK VINA RESULT:      -8.3      1.535      2.161
REMARK  Name = 216305
REMARK  3 active torsions:
REMARK  status: ('A' for Active; 'I' for Inactive)
REMARK    1  A    between atoms: C_1  and  N_3
REMARK    2  A    between atoms: C_1  and  C_10
REMARK    3  A    between atoms: C_10  and  C_11
REMARK                            x       y       z     vdW  Elec       q    Type
REMARK                         _______ _______ _______ _____ _____    ______ ____
ROOT
ATOM      1  C   UNL     1      35.346 -17.609 -22.449  0.00  0.00    +0.161 C 
ENDROOT
BRANCH   1   3
ATOM      2  S   UNL     1      33.907 -14.238 -23.783  0.00  0.00    -0.095 S 
ATOM      3  N   UNL     1      34.745 -16.512 -23.202  0.00  0.00    -0.294 N 
ATOM      4  C   UNL     1      34.257 -16.661 -24.471  0.00  0.00    +0.028 C 
ATOM      5  C   UNL     1      33.743 -15.482 -24.959  0.00  0.00    +0.014 C 
ATOM      6  C   UNL     1      34.648 -15.317 -22.680  0.00  0.00    +0.154 C 
ATOM      7  C   UNL     1      34.335 -17.981 -25.113  0.00  0.00    +0.047 C 
ATOM      8  C   UNL     1      33.123 -15.189 -26.266  0.00  0.00    +0.039 C 
ENDBRANCH   1   3
BRANCH   1  10
ATOM      9  O   UNL     1      33.348 -17.526 -21.116  0.00  0.00    -0.290 OA
ATOM     10  C   UNL     1      34.373 -18.174 -21.407  0.00  0.00    +0.193 C 
BRANCH  10  11
ATOM     11  C   UNL     1      34.654 -19.453 -20.774  0.00  0.00    +0.036 C 
ATOM     12  C   UNL     1      35.972 -19.881 -20.621  0.00  0.00    +0.003 C 
ATOM     13  C   UNL     1      33.604 -20.249 -20.319  0.00  0.00    +0.003 C 
ATOM     14  C   UNL     1      36.240 -21.108 -20.013  0.00  0.00    +0.000 C 
ATOM     15  C   UNL     1      33.872 -21.476 -19.711  0.00  0.00    +0.000 C 
ATOM     16  C   UNL     1      35.191 -21.905 -19.557  0.00  0.00    +0.000 C 
ENDBRANCH  10  11
ENDBRANCH   1  10
TORSDOF 3
ENDMDL
MODEL 5
REMARK VINA RESULT:      -8.2      2.105      6.041
REMARK  Name = 216305
REMARK  3 active torsions:
REMARK  status: ('A' for Active; 'I' for Inactive)
REMARK    1  A    between atoms: C_1  and  N_3
REMARK    2  A    between atoms: C_1  and  C_10
REMARK    3  A    between atoms: C_10  and  C_11
REMARK                            x       y       z     vdW  Elec       q    Type
REMARK                         _______ _______ _______ _____ _____    ______ ____
ROOT
ATOM      1  C   UNL     1      35.899 -18.893 -21.341  0.00  0.00    +0.161 C 
ENDROOT
BRANCH   1   3
ATOM      2  S   UNL     1      32.733 -20.781 -20.067  0.00  0.00    -0.095 S 
ATOM      3  N   UNL     1      34.920 -19.784 -20.727  0.00  0.00    -0.294 N 
ATOM      4  C   UNL     1      35.272 -20.856 -19.954  0.00  0.00    +0.028 C 
ATOM      5  C   UNL     1      34.168 -21.535 -19.493  0.00  0.00    +0.014 C 
ATOM      6  C   UNL     1      33.638 -19.589 -20.897  0.00  0.00    +0.154 C 
ATOM      7  C   UNL     1      36.698 -21.129 -19.723  0.00  0.00    +0.047 C 
ATOM      8  C   UNL     1      34.083 -22.735 -18.638  0.00  0.00    +0.039 C 
ENDBRANCH   1   3
BRANCH   1  10
ATOM      9  O   UNL     1      35.282 -16.725 -20.506  0.00  0.00    -0.290 OA
ATOM     10  C   UNL     1      35.342 -17.473 -21.502  0.00  0.00    +0.193 C 
BRANCH  10  11
ATOM     11  C   UNL     1      34.895 -17.015 -22.808  0.00  0.00    +0.036 C 
ATOM     12  C   UNL     1      35.027 -17.845 -23.921  0.00  0.00    +0.003 C 
ATOM     13  C   UNL     1      34.335 -15.746 -22.946  0.00  0.00    +0.003 C 
ATOM     14  C   UNL     1      34.597 -17.405 -25.173  0.00  0.00    +0.000 C 
ATOM     15  C   UNL     1      33.906 -15.305 -24.199  0.00  0.00    +0.000 C 
ATOM     16  C   UNL     1      34.036 -16.136 -25.312  0.00  0.00    +0.000 C 
ENDBRANCH  10  11
ENDBRANCH   1  10
TORSDOF 3
ENDMDL
MODEL 6
REMARK VINA RESULT:      -8.2      2.112      6.105
REMARK  Name = 216305
REMARK  3 active torsions:
REMARK  status: ('A' for Active; 'I' for Inactive)
REMARK    1  A    between atoms: C_1  and  N_3
REMARK    2  A    between atoms: C_1  and  C_10
REMARK    3  A    between atoms: C_10  and  C_11
REMARK                            x       y       z     vdW  Elec       q    Type
REMARK                         _______ _______ _______ _____ _____    ______ ____
ROOT
ATOM      1  C   UNL     1      34.893 -17.925 -22.066  0.00  0.00    +0.161 C 
ENDROOT
BRANCH   1   3
ATOM      2  S   UNL     1      33.289 -20.821 -20.006  0.00  0.00    -0.095 S 
ATOM      3  N   UNL     1      34.585 -19.077 -21.225  0.00  0.00    -0.294 N 
ATOM      4  C   UNL     1      35.549 -19.825 -20.606  0.00  0.00    +0.028 C 
ATOM      5  C   UNL     1      35.003 -20.851 -19.872  0.00  0.00    +0.014 C 
ATOM      6  C   UNL     1      33.348 -19.449 -21.026  0.00  0.00    +0.154 C 
ATOM      7  C   UNL     1      36.961 -19.457 -20.788  0.00  0.00    +0.047 C 
ATOM      8  C   UNL     1      35.664 -21.888 -19.055  0.00  0.00    +0.039 C 
ENDBRANCH   1   3
BRANCH   1  10
ATOM      9  O   UNL     1      35.239 -16.525 -20.143  0.00  0.00    -0.290 OA
ATOM     10  C   UNL     1      34.755 -16.609 -21.290  0.00  0.00    +0.193 C 
BRANCH  10  11
ATOM     11  C   UNL     1      34.068 -15.480 -21.895  0.00  0.00    +0.036 C 
ATOM     12  C   UNL     1      32.975 -14.903 -21.251  0.00  0.00    +0.003 C 
ATOM     13  C   UNL     1      34.504 -14.974 -23.119  0.00  0.00    +0.003 C 
ATOM     14  C   UNL     1      32.316 -13.818 -21.831  0.00  0.00    +0.000 C 
ATOM     15  C   UNL     1      33.845 -13.890 -23.700  0.00  0.00    +0.000 C 
ATOM     16  C   UNL     1      32.751 -13.311 -23.056  0.00  0.00    +0.000 C 
ENDBRANCH  10  11
ENDBRANCH   1  10
TORSDOF 3
ENDMDL
MODEL 7
REMARK VINA RESULT:      -8.2      4.780      8.322
REMARK  Name = 216305
REMARK  3 active torsions:
REMARK  status: ('A' for Active; 'I' for Inactive)
REMARK    1  A    between atoms: C_1  and  N_3
REMARK    2  A    between atoms: C_1  and  C_10
REMARK    3  A    between atoms: C_10  and  C_11
REMARK                            x       y       z     vdW  Elec       q    Type
REMARK                         _______ _______ _______ _____ _____    ______ ____
ROOT
ATOM      1  C   UNL     1      34.294 -22.805 -17.184  0.00  0.00    +0.161 C 
ENDROOT
BRANCH   1   3
ATOM      2  S   UNL     1      30.689 -23.488 -15.861  0.00  0.00    -0.095 S 
ATOM      3  N   UNL     1      33.092 -23.205 -16.460  0.00  0.00    -0.294 N 
ATOM      4  C   UNL     1      33.129 -23.918 -15.292  0.00  0.00    +0.028 C 
ATOM      5  C   UNL     1      31.867 -24.168 -14.809  0.00  0.00    +0.014 C 
ATOM      6  C   UNL     1      31.904 -22.891 -16.908  0.00  0.00    +0.154 C 
ATOM      7  C   UNL     1      34.435 -24.301 -14.735  0.00  0.00    +0.047 C 
ATOM      8  C   UNL     1      31.444 -24.893 -13.595  0.00  0.00    +0.039 C 
ENDBRANCH   1   3
BRANCH   1  10
ATOM      9  O   UNL     1      33.843 -23.975 -19.235  0.00  0.00    -0.290 OA
ATOM     10  C   UNL     1      34.083 -22.873 -18.702  0.00  0.00    +0.193 C 
BRANCH  10  11
ATOM     11  C   UNL     1      34.164 -21.660 -19.499  0.00  0.00    +0.036 C 
ATOM     12  C   UNL     1      35.406 -21.173 -19.903  0.00  0.00    +0.003 C 
ATOM     13  C   UNL     1      32.999 -20.985 -19.861  0.00  0.00    +0.003 C 
ATOM     14  C   UNL     1      35.483 -20.009 -20.670  0.00  0.00    +0.000 C 
ATOM     15  C   UNL     1      33.075 -19.821 -20.626  0.00  0.00    +0.000 C 
ATOM     16  C   UNL     1      34.318 -19.333 -21.031  0.00  0.00    +0.000 C 
ENDBRANCH  10  11
ENDBRANCH   1  10
TORSDOF 3
ENDMDL
MODEL 8
REMARK VINA RESULT:      -8.1      2.173      6.136
REMARK  Name = 216305
REMARK  3 active torsions:
REMARK  status: ('A' for Active; 'I' for Inactive)
REMARK    1  A    between atoms: C_1  and  N_3
REMARK    2  A    between atoms: C_1  and  C_10
REMARK    3  A    between atoms: C_10  and  C_11
REMARK                            x       y       z     vdW  Elec       q    Type
REMARK                         _______ _______ _______ _____ _____    ______ ____
ROOT
ATOM      1  C   UNL     1      34.705 -18.136 -22.035  0.00  0.00    +0.161 C 
ENDROOT
BRANCH   1   3
ATOM      2  S   UNL     1      36.428 -20.880 -19.864  0.00  0.00    -0.095 S 
ATOM      3  N   UNL     1      35.060 -19.253 -21.165  0.00  0.00    -0.294 N 
ATOM      4  C   UNL     1      34.128 -20.067 -20.581  0.00  0.00    +0.028 C 
ATOM      5  C   UNL     1      34.717 -21.043 -19.811  0.00  0.00    +0.014 C 
ATOM      6  C   UNL     1      36.312 -19.527 -20.905  0.00  0.00    +0.154 C 
ATOM      7  C   UNL     1      32.703 -19.813 -20.835  0.00  0.00    +0.047 C 
ATOM      8  C   UNL     1      34.100 -22.120 -19.012  0.00  0.00    +0.039 C 
ENDBRANCH   1   3
BRANCH   1  10
ATOM      9  O   UNL     1      35.286 -16.742 -20.165  0.00  0.00    -0.290 OA
ATOM     10  C   UNL     1      34.715 -16.806 -21.272  0.00  0.00    +0.193 C 
BRANCH  10  11
ATOM     11  C   UNL     1      34.063 -15.639 -21.844  0.00  0.00    +0.036 C 
ATOM     12  C   UNL     1      34.512 -15.113 -23.055  0.00  0.00    +0.003 C 
ATOM     13  C   UNL     1      32.989 -15.046 -21.182  0.00  0.00    +0.003 C 
ATOM     14  C   UNL     1      33.886 -13.994 -23.604  0.00  0.00    +0.000 C 
ATOM     15  C   UNL     1      32.364 -13.925 -21.730  0.00  0.00    +0.000 C 
ATOM     16  C   UNL     1      32.812 -13.400 -22.942  0.00  0.00    +0.000 C 
ENDBRANCH  10  11
ENDBRANCH   1  10
TORSDOF 3
ENDMDL
MODEL 9
REMARK VINA RESULT:      -8.1      4.598      8.099
REMARK  Name = 216305
REMARK  3 active torsions:
REMARK  status: ('A' for Active; 'I' for Inactive)
REMARK    1  A    between atoms: C_1  and  N_3
REMARK    2  A    between atoms: C_1  and  C_10
REMARK    3  A    between atoms: C_10  and  C_11
REMARK                            x       y       z     vdW  Elec       q    Type
REMARK                         _______ _______ _______ _____ _____    ______ ____
ROOT
ATOM      1  C   UNL     1      33.076 -22.724 -17.645  0.00  0.00    +0.161 C 
ENDROOT
BRANCH   1   3
ATOM      2  S   UNL     1      36.096 -23.284 -15.242  0.00  0.00    -0.095 S 
ATOM      3  N   UNL     1      33.989 -23.027 -16.547  0.00  0.00    -0.294 N 
ATOM      4  C   UNL     1      33.564 -23.500 -15.336  0.00  0.00    +0.028 C 
ATOM      5  C   UNL     1      34.616 -23.705 -14.474  0.00  0.00    +0.014 C 
ATOM      6  C   UNL     1      35.278 -22.852 -16.681  0.00  0.00    +0.154 C 
ATOM      7  C   UNL     1      32.126 -23.719 -15.122  0.00  0.00    +0.047 C 
ATOM      8  C   UNL     1      34.618 -24.202 -13.084  0.00  0.00    +0.039 C 
ENDBRANCH   1   3
BRANCH   1  10
ATOM      9  O   UNL     1      34.064 -23.904 -19.492  0.00  0.00    -0.290 OA
ATOM     10  C   UNL     1      33.788 -22.791 -19.002  0.00  0.00    +0.193 C 
BRANCH  10  11
ATOM     11  C   UNL     1      34.130 -21.562 -19.700  0.00  0.00    +0.036 C 
ATOM     12  C   UNL     1      35.468 -21.235 -19.920  0.00  0.00    +0.003 C 
ATOM     13  C   UNL     1      33.121 -20.712 -20.151  0.00  0.00    +0.003 C 
ATOM     14  C   UNL     1      35.796 -20.056 -20.591  0.00  0.00    +0.000 C 
ATOM     15  C   UNL     1      33.449 -19.533 -20.821  0.00  0.00    +0.000 C 
ATOM     16  C   UNL     1      34.787 -19.206 -21.042  0.00  0.00    +0.000 C 
ENDBRANCH  10  11
ENDBRANCH   1  10
TORSDOF 3
ENDMDL
