MODEL 1
REMARK VINA RESULT:      -9.4      0.000      0.000
REMARK  Name = 44557636
REMARK  4 active torsions:
REMARK  status: ('A' for Active; 'I' for Inactive)
REMARK    1  A    between atoms: C_4  and  C_11
REMARK    2  A    between atoms: C_11  and  C_12
REMARK    3  A    between atoms: C_12  and  C_13
REMARK    4  A    between atoms: C_14  and  C_16
REMARK                            x       y       z     vdW  Elec       q    Type
REMARK                         _______ _______ _______ _____ _____    ______ ____
ROOT
ATOM      1  F   UNL     1      31.565  -8.606 -21.709  0.00  0.00    -0.203 F 
ATOM      2  N   UNL     1      32.581 -11.895 -22.757  0.00  0.00    -0.253 N 
ATOM      3  N   UNL     1      32.398 -13.983 -21.972  0.00  0.00    -0.394 NA
ATOM      4  C   UNL     1      33.078 -13.982 -23.163  0.00  0.00    +0.110 C 
ATOM      5  C   UNL     1      32.104 -12.719 -21.739  0.00  0.00    +0.187 C 
ATOM      6  C   UNL     1      33.204 -12.709 -23.667  0.00  0.00    +0.152 C 
ATOM      7  C   UNL     1      32.413 -10.513 -22.770  0.00  0.00    +0.098 C 
ATOM      8  C   UNL     1      31.409 -12.089 -20.662  0.00  0.00    +0.050 C 
ATOM      9  C   UNL     1      31.758  -9.938 -21.751  0.00  0.00    +0.155 C 
ATOM     10  C   UNL     1      31.243 -10.753 -20.667  0.00  0.00    +0.035 C 
ENDROOT
BRANCH   4  11
ATOM     11  C   UNL     1      33.569 -15.241 -23.743  0.00  0.00    +0.070 C 
BRANCH  11  12
ATOM     12  C   UNL     1      34.907 -15.746 -23.152  0.00  0.00    +0.084 C 
BRANCH  12  13
ATOM     13  C   UNL     1      34.727 -16.994 -22.396  0.00  0.00    -0.085 C 
ATOM     14  C   UNL     1      34.598 -18.008 -21.766  0.00  0.00    -0.045 C 
BRANCH  14  16
ATOM     15  N   UNL     1      35.627 -19.759 -20.597  0.00  0.00    -0.236 NA
ATOM     16  C   UNL     1      34.461 -19.213 -21.006  0.00  0.00    +0.123 C 
ATOM     17  C   UNL     1      33.214 -19.750 -20.732  0.00  0.00    +0.028 C 
ATOM     18  C   UNL     1      33.160 -20.922 -19.988  0.00  0.00    +0.004 C 
ATOM     19  C   UNL     1      34.339 -21.515 -19.548  0.00  0.00    +0.021 C 
ATOM     20  C   UNL     1      35.536 -20.898 -19.876  0.00  0.00    +0.100 C 
ENDBRANCH  14  16
ENDBRANCH  12  13
ENDBRANCH  11  12
ENDBRANCH   4  11
TORSDOF 4
ENDMDL
MODEL 2
REMARK VINA RESULT:      -9.4      3.773      8.704
REMARK  Name = 44557636
REMARK  4 active torsions:
REMARK  status: ('A' for Active; 'I' for Inactive)
REMARK    1  A    between atoms: C_4  and  C_11
REMARK    2  A    between atoms: C_11  and  C_12
REMARK    3  A    between atoms: C_12  and  C_13
REMARK    4  A    between atoms: C_14  and  C_16
REMARK                            x       y       z     vdW  Elec       q    Type
REMARK                         _______ _______ _______ _____ _____    ______ ____
ROOT
ATOM      1  F   UNL     1      35.851 -18.494 -21.335  0.00  0.00    -0.203 F 
ATOM      2  N   UNL     1      34.355 -16.278 -23.745  0.00  0.00    -0.253 N 
ATOM      3  N   UNL     1      33.697 -16.401 -25.880  0.00  0.00    -0.394 NA
ATOM      4  C   UNL     1      33.458 -15.145 -25.381  0.00  0.00    +0.110 C 
ATOM      5  C   UNL     1      34.237 -17.073 -24.883  0.00  0.00    +0.187 C 
ATOM      6  C   UNL     1      33.855 -15.044 -24.069  0.00  0.00    +0.152 C 
ATOM      7  C   UNL     1      34.892 -16.731 -22.543  0.00  0.00    +0.098 C 
ATOM      8  C   UNL     1      34.699 -18.421 -24.788  0.00  0.00    +0.050 C 
ATOM      9  C   UNL     1      35.322 -18.000 -22.471  0.00  0.00    +0.155 C 
ATOM     10  C   UNL     1      35.221 -18.867 -23.629  0.00  0.00    +0.035 C 
ENDROOT
BRANCH   4  11
ATOM     11  C   UNL     1      32.849 -14.109 -26.228  0.00  0.00    +0.070 C 
BRANCH  11  12
ATOM     12  C   UNL     1      33.820 -12.990 -26.678  0.00  0.00    +0.084 C 
BRANCH  12  13
ATOM     13  C   UNL     1      33.803 -11.854 -25.745  0.00  0.00    -0.085 C 
ATOM     14  C   UNL     1      33.804 -10.915 -24.996  0.00  0.00    -0.045 C 
BRANCH  14  16
ATOM     15  N   UNL     1      32.836  -9.780 -23.189  0.00  0.00    -0.236 NA
ATOM     16  C   UNL     1      33.819  -9.787 -24.116  0.00  0.00    +0.123 C 
ATOM     17  C   UNL     1      34.781  -8.797 -24.235  0.00  0.00    +0.028 C 
ATOM     18  C   UNL     1      34.732  -7.732 -23.343  0.00  0.00    +0.004 C 
ATOM     19  C   UNL     1      33.735  -7.689 -22.374  0.00  0.00    +0.021 C 
ATOM     20  C   UNL     1      32.819  -8.729 -22.340  0.00  0.00    +0.100 C 
ENDBRANCH  14  16
ENDBRANCH  12  13
ENDBRANCH  11  12
ENDBRANCH   4  11
TORSDOF 4
ENDMDL
MODEL 3
REMARK VINA RESULT:      -9.4      5.611     10.018
REMARK  Name = 44557636
REMARK  4 active torsions:
REMARK  status: ('A' for Active; 'I' for Inactive)
REMARK    1  A    between atoms: C_4  and  C_11
REMARK    2  A    between atoms: C_11  and  C_12
REMARK    3  A    between atoms: C_12  and  C_13
REMARK    4  A    between atoms: C_14  and  C_16
REMARK                            x       y       z     vdW  Elec       q    Type
REMARK                         _______ _______ _______ _____ _____    ______ ____
ROOT
ATOM      1  F   UNL     1      31.185 -23.665 -12.891  0.00  0.00    -0.203 F 
ATOM      2  N   UNL     1      32.824 -23.194 -16.060  0.00  0.00    -0.253 N 
ATOM      3  N   UNL     1      32.224 -22.589 -18.129  0.00  0.00    -0.394 NA
ATOM      4  C   UNL     1      33.572 -22.841 -18.081  0.00  0.00    +0.110 C 
ATOM      5  C   UNL     1      31.787 -22.805 -16.906  0.00  0.00    +0.187 C 
ATOM      6  C   UNL     1      33.966 -23.216 -16.819  0.00  0.00    +0.152 C 
ATOM      7  C   UNL     1      32.649 -23.488 -14.711  0.00  0.00    +0.098 C 
ATOM      8  C   UNL     1      30.482 -22.710 -16.334  0.00  0.00    +0.050 C 
ATOM      9  C   UNL     1      31.417 -23.393 -14.190  0.00  0.00    +0.155 C 
ATOM     10  C   UNL     1      30.303 -22.993 -15.029  0.00  0.00    +0.035 C 
ENDROOT
BRANCH   4  11
ATOM     11  C   UNL     1      34.402 -22.698 -19.287  0.00  0.00    +0.070 C 
BRANCH  11  12
ATOM     12  C   UNL     1      35.485 -21.596 -19.198  0.00  0.00    +0.084 C 
BRANCH  12  13
ATOM     13  C   UNL     1      35.313 -20.584 -20.251  0.00  0.00    -0.085 C 
ATOM     14  C   UNL     1      35.194 -19.761 -21.117  0.00  0.00    -0.045 C 
BRANCH  14  16
ATOM     15  N   UNL     1      35.143 -17.500 -21.732  0.00  0.00    -0.236 NA
ATOM     16  C   UNL     1      35.072 -18.782 -22.153  0.00  0.00    +0.123 C 
ATOM     17  C   UNL     1      34.893 -19.156 -23.475  0.00  0.00    +0.028 C 
ATOM     18  C   UNL     1      34.782 -18.148 -24.426  0.00  0.00    +0.004 C 
ATOM     19  C   UNL     1      34.851 -16.817 -24.032  0.00  0.00    +0.021 C 
ATOM     20  C   UNL     1      35.031 -16.548 -22.684  0.00  0.00    +0.100 C 
ENDBRANCH  14  16
ENDBRANCH  12  13
ENDBRANCH  11  12
ENDBRANCH   4  11
TORSDOF 4
ENDMDL
MODEL 4
REMARK VINA RESULT:      -9.3      6.230      9.531
REMARK  Name = 44557636
REMARK  4 active torsions:
REMARK  status: ('A' for Active; 'I' for Inactive)
REMARK    1  A    between atoms: C_4  and  C_11
REMARK    2  A    between atoms: C_11  and  C_12
REMARK    3  A    between atoms: C_12  and  C_13
REMARK    4  A    between atoms: C_14  and  C_16
REMARK                            x       y       z     vdW  Elec       q    Type
REMARK                         _______ _______ _______ _____ _____    ______ ____
ROOT
ATOM      1  F   UNL     1      36.506 -18.741 -21.746  0.00  0.00    -0.203 F 
ATOM      2  N   UNL     1      34.867 -21.164 -19.651  0.00  0.00    -0.253 N 
ATOM      3  N   UNL     1      32.758 -21.740 -19.170  0.00  0.00    -0.394 NA
ATOM      4  C   UNL     1      33.636 -22.530 -18.473  0.00  0.00    +0.110 C 
ATOM      5  C   UNL     1      33.513 -20.922 -19.876  0.00  0.00    +0.187 C 
ATOM      6  C   UNL     1      34.940 -22.196 -18.751  0.00  0.00    +0.152 C 
ATOM      7  C   UNL     1      35.889 -20.448 -20.265  0.00  0.00    +0.098 C 
ATOM      8  C   UNL     1      33.182 -19.876 -20.790  0.00  0.00    +0.050 C 
ATOM      9  C   UNL     1      35.560 -19.469 -21.121  0.00  0.00    +0.155 C 
ATOM     10  C   UNL     1      34.165 -19.177 -21.388  0.00  0.00    +0.035 C 
ENDROOT
BRANCH   4  11
ATOM     11  C   UNL     1      33.141 -23.577 -17.566  0.00  0.00    +0.070 C 
BRANCH  11  12
ATOM     12  C   UNL     1      33.173 -23.200 -16.066  0.00  0.00    +0.084 C 
BRANCH  12  13
ATOM     13  C   UNL     1      34.397 -23.689 -15.412  0.00  0.00    -0.085 C 
ATOM     14  C   UNL     1      35.390 -24.108 -14.885  0.00  0.00    -0.045 C 
BRANCH  14  16
ATOM     15  N   UNL     1      37.641 -24.734 -15.077  0.00  0.00    -0.236 NA
ATOM     16  C   UNL     1      36.568 -24.627 -14.262  0.00  0.00    +0.123 C 
ATOM     17  C   UNL     1      36.573 -24.985 -12.923  0.00  0.00    +0.028 C 
ATOM     18  C   UNL     1      37.756 -25.482 -12.387  0.00  0.00    +0.004 C 
ATOM     19  C   UNL     1      38.881 -25.606 -13.194  0.00  0.00    +0.021 C 
ATOM     20  C   UNL     1      38.772 -25.221 -14.521  0.00  0.00    +0.100 C 
ENDBRANCH  14  16
ENDBRANCH  12  13
ENDBRANCH  11  12
ENDBRANCH   4  11
TORSDOF 4
ENDMDL
MODEL 5
REMARK VINA RESULT:      -9.1      5.868     10.968
REMARK  Name = 44557636
REMARK  4 active torsions:
REMARK  status: ('A' for Active; 'I' for Inactive)
REMARK    1  A    between atoms: C_4  and  C_11
REMARK    2  A    between atoms: C_11  and  C_12
REMARK    3  A    between atoms: C_12  and  C_13
REMARK    4  A    between atoms: C_14  and  C_16
REMARK                            x       y       z     vdW  Elec       q    Type
REMARK                         _______ _______ _______ _____ _____    ______ ____
ROOT
ATOM      1  F   UNL     1      36.783 -24.307 -11.701  0.00  0.00    -0.203 F 
ATOM      2  N   UNL     1      36.690 -22.957 -15.036  0.00  0.00    -0.253 N 
ATOM      3  N   UNL     1      35.216 -22.873 -16.717  0.00  0.00    -0.394 NA
ATOM      4  C   UNL     1      36.379 -22.239 -17.074  0.00  0.00    +0.110 C 
ATOM      5  C   UNL     1      35.417 -23.300 -15.488  0.00  0.00    +0.187 C 
ATOM      6  C   UNL     1      37.303 -22.277 -16.056  0.00  0.00    +0.152 C 
ATOM      7  C   UNL     1      37.172 -23.283 -13.771  0.00  0.00    +0.098 C 
ATOM      8  C   UNL     1      34.580 -24.026 -14.586  0.00  0.00    +0.050 C 
ATOM      9  C   UNL     1      36.372 -23.964 -12.937  0.00  0.00    +0.155 C 
ATOM     10  C   UNL     1      35.039 -24.346 -13.361  0.00  0.00    +0.035 C 
ENDROOT
BRANCH   4  11
ATOM     11  C   UNL     1      36.518 -21.626 -18.404  0.00  0.00    +0.070 C 
BRANCH  11  12
ATOM     12  C   UNL     1      35.269 -21.756 -19.308  0.00  0.00    +0.084 C 
BRANCH  12  13
ATOM     13  C   UNL     1      35.164 -20.631 -20.250  0.00  0.00    -0.085 C 
ATOM     14  C   UNL     1      35.100 -19.708 -21.015  0.00  0.00    -0.045 C 
BRANCH  14  16
ATOM     15  N   UNL     1      34.944 -17.391 -21.332  0.00  0.00    -0.236 NA
ATOM     16  C   UNL     1      35.042 -18.603 -21.921  0.00  0.00    +0.123 C 
ATOM     17  C   UNL     1      35.085 -18.798 -23.293  0.00  0.00    +0.028 C 
ATOM     18  C   UNL     1      35.024 -17.676 -24.111  0.00  0.00    +0.004 C 
ATOM     19  C   UNL     1      34.923 -16.411 -23.542  0.00  0.00    +0.021 C 
ATOM     20  C   UNL     1      34.887 -16.324 -22.159  0.00  0.00    +0.100 C 
ENDBRANCH  14  16
ENDBRANCH  12  13
ENDBRANCH  11  12
ENDBRANCH   4  11
TORSDOF 4
ENDMDL
MODEL 6
REMARK VINA RESULT:      -9.1      3.192      5.206
REMARK  Name = 44557636
REMARK  4 active torsions:
REMARK  status: ('A' for Active; 'I' for Inactive)
REMARK    1  A    between atoms: C_4  and  C_11
REMARK    2  A    between atoms: C_11  and  C_12
REMARK    3  A    between atoms: C_12  and  C_13
REMARK    4  A    between atoms: C_14  and  C_16
REMARK                            x       y       z     vdW  Elec       q    Type
REMARK                         _______ _______ _______ _____ _____    ______ ____
ROOT
ATOM      1  F   UNL     1      33.008 -13.762 -24.446  0.00  0.00    -0.203 F 
ATOM      2  N   UNL     1      34.679 -16.453 -22.739  0.00  0.00    -0.253 N 
ATOM      3  N   UNL     1      35.182 -16.976 -20.622  0.00  0.00    -0.394 NA
ATOM      4  C   UNL     1      35.640 -17.950 -21.473  0.00  0.00    +0.110 C 
ATOM      5  C   UNL     1      34.605 -16.081 -21.398  0.00  0.00    +0.187 C 
ATOM      6  C   UNL     1      35.344 -17.652 -22.782  0.00  0.00    +0.152 C 
ATOM      7  C   UNL     1      34.152 -15.693 -23.779  0.00  0.00    +0.098 C 
ATOM      8  C   UNL     1      33.947 -14.849 -21.100  0.00  0.00    +0.050 C 
ATOM      9  C   UNL     1      33.538 -14.539 -23.482  0.00  0.00    +0.155 C 
ATOM     10  C   UNL     1      33.435 -14.107 -22.101  0.00  0.00    +0.035 C 
ENDROOT
BRANCH   4  11
ATOM     11  C   UNL     1      36.349 -19.126 -20.948  0.00  0.00    +0.070 C 
BRANCH  11  12
ATOM     12  C   UNL     1      35.489 -20.411 -20.859  0.00  0.00    +0.084 C 
BRANCH  12  13
ATOM     13  C   UNL     1      35.690 -21.108 -19.580  0.00  0.00    -0.085 C 
ATOM     14  C   UNL     1      35.864 -21.660 -18.528  0.00  0.00    -0.045 C 
BRANCH  14  16
ATOM     15  N   UNL     1      35.067 -23.086 -16.848  0.00  0.00    -0.236 NA
ATOM     16  C   UNL     1      36.084 -22.301 -17.268  0.00  0.00    +0.123 C 
ATOM     17  C   UNL     1      37.260 -22.109 -16.561  0.00  0.00    +0.028 C 
ATOM     18  C   UNL     1      37.401 -22.766 -15.344  0.00  0.00    +0.004 C 
ATOM     19  C   UNL     1      36.376 -23.582 -14.877  0.00  0.00    +0.021 C 
ATOM     20  C   UNL     1      35.240 -23.708 -15.661  0.00  0.00    +0.100 C 
ENDBRANCH  14  16
ENDBRANCH  12  13
ENDBRANCH  11  12
ENDBRANCH   4  11
TORSDOF 4
ENDMDL
MODEL 7
REMARK VINA RESULT:      -9.1      7.048     12.123
REMARK  Name = 44557636
REMARK  4 active torsions:
REMARK  status: ('A' for Active; 'I' for Inactive)
REMARK    1  A    between atoms: C_4  and  C_11
REMARK    2  A    between atoms: C_11  and  C_12
REMARK    3  A    between atoms: C_12  and  C_13
REMARK    4  A    between atoms: C_14  and  C_16
REMARK                            x       y       z     vdW  Elec       q    Type
REMARK                         _______ _______ _______ _____ _____    ______ ____
ROOT
ATOM      1  F   UNL     1      40.351 -25.419 -14.154  0.00  0.00    -0.203 F 
ATOM      2  N   UNL     1      37.113 -24.268 -15.222  0.00  0.00    -0.253 N 
ATOM      3  N   UNL     1      35.059 -25.135 -15.413  0.00  0.00    -0.394 NA
ATOM      4  C   UNL     1      35.059 -23.823 -15.814  0.00  0.00    +0.110 C 
ATOM      5  C   UNL     1      36.302 -25.390 -15.059  0.00  0.00    +0.187 C 
ATOM      6  C   UNL     1      36.312 -23.267 -15.706  0.00  0.00    +0.152 C 
ATOM      7  C   UNL     1      38.473 -24.253 -14.926  0.00  0.00    +0.098 C 
ATOM      8  C   UNL     1      36.922 -26.575 -14.560  0.00  0.00    +0.050 C 
ATOM      9  C   UNL     1      39.040 -25.374 -14.458  0.00  0.00    +0.155 C 
ATOM     10  C   UNL     1      38.238 -26.569 -14.271  0.00  0.00    +0.035 C 
ENDROOT
BRANCH   4  11
ATOM     11  C   UNL     1      33.820 -23.185 -16.282  0.00  0.00    +0.070 C 
BRANCH  11  12
ATOM     12  C   UNL     1      33.461 -23.479 -17.759  0.00  0.00    +0.084 C 
BRANCH  12  13
ATOM     13  C   UNL     1      33.937 -22.413 -18.653  0.00  0.00    -0.085 C 
ATOM     14  C   UNL     1      34.318 -21.528 -19.369  0.00  0.00    -0.045 C 
BRANCH  14  16
ATOM     15  N   UNL     1      36.081 -20.171 -20.107  0.00  0.00    -0.236 NA
ATOM     16  C   UNL     1      34.765 -20.459 -20.209  0.00  0.00    +0.123 C 
ATOM     17  C   UNL     1      33.887 -19.793 -21.049  0.00  0.00    +0.028 C 
ATOM     18  C   UNL     1      34.394 -18.765 -21.835  0.00  0.00    +0.004 C 
ATOM     19  C   UNL     1      35.743 -18.439 -21.759  0.00  0.00    +0.021 C 
ATOM     20  C   UNL     1      36.538 -19.167 -20.887  0.00  0.00    +0.100 C 
ENDBRANCH  14  16
ENDBRANCH  12  13
ENDBRANCH  11  12
ENDBRANCH   4  11
TORSDOF 4
ENDMDL
MODEL 8
REMARK VINA RESULT:      -9.0      3.890      6.476
REMARK  Name = 44557636
REMARK  4 active torsions:
REMARK  status: ('A' for Active; 'I' for Inactive)
REMARK    1  A    between atoms: C_4  and  C_11
REMARK    2  A    between atoms: C_11  and  C_12
REMARK    3  A    between atoms: C_12  and  C_13
REMARK    4  A    between atoms: C_14  and  C_16
REMARK                            x       y       z     vdW  Elec       q    Type
REMARK                         _______ _______ _______ _____ _____    ______ ____
ROOT
ATOM      1  F   UNL     1      34.529 -14.326 -24.063  0.00  0.00    -0.203 F 
ATOM      2  N   UNL     1      34.802 -17.394 -22.201  0.00  0.00    -0.253 N 
ATOM      3  N   UNL     1      34.884 -19.581 -22.669  0.00  0.00    -0.394 NA
ATOM      4  C   UNL     1      34.959 -19.382 -21.313  0.00  0.00    +0.110 C 
ATOM      5  C   UNL     1      34.790 -18.375 -23.191  0.00  0.00    +0.187 C 
ATOM      6  C   UNL     1      34.911 -18.045 -20.999  0.00  0.00    +0.152 C 
ATOM      7  C   UNL     1      34.716 -16.030 -22.467  0.00  0.00    +0.098 C 
ATOM      8  C   UNL     1      34.682 -17.932 -24.544  0.00  0.00    +0.050 C 
ATOM      9  C   UNL     1      34.616 -15.632 -23.744  0.00  0.00    +0.155 C 
ATOM     10  C   UNL     1      34.598 -16.614 -24.811  0.00  0.00    +0.035 C 
ENDROOT
BRANCH   4  11
ATOM     11  C   UNL     1      35.075 -20.526 -20.397  0.00  0.00    +0.070 C 
BRANCH  11  12
ATOM     12  C   UNL     1      36.512 -20.809 -19.896  0.00  0.00    +0.084 C 
BRANCH  12  13
ATOM     13  C   UNL     1      36.506 -21.471 -18.582  0.00  0.00    -0.085 C 
ATOM     14  C   UNL     1      36.483 -22.000 -17.505  0.00  0.00    -0.045 C 
BRANCH  14  16
ATOM     15  N   UNL     1      37.647 -22.875 -15.669  0.00  0.00    -0.236 NA
ATOM     16  C   UNL     1      36.438 -22.620 -16.217  0.00  0.00    +0.123 C 
ATOM     17  C   UNL     1      35.231 -22.922 -15.608  0.00  0.00    +0.028 C 
ATOM     18  C   UNL     1      35.267 -23.524 -14.355  0.00  0.00    +0.004 C 
ATOM     19  C   UNL     1      36.492 -23.802 -13.758  0.00  0.00    +0.021 C 
ATOM     20  C   UNL     1      37.643 -23.460 -14.451  0.00  0.00    +0.100 C 
ENDBRANCH  14  16
ENDBRANCH  12  13
ENDBRANCH  11  12
ENDBRANCH   4  11
TORSDOF 4
ENDMDL
MODEL 9
REMARK VINA RESULT:      -9.0      3.378      8.824
REMARK  Name = 44557636
REMARK  4 active torsions:
REMARK  status: ('A' for Active; 'I' for Inactive)
REMARK    1  A    between atoms: C_4  and  C_11
REMARK    2  A    between atoms: C_11  and  C_12
REMARK    3  A    between atoms: C_12  and  C_13
REMARK    4  A    between atoms: C_14  and  C_16
REMARK                            x       y       z     vdW  Elec       q    Type
REMARK                         _______ _______ _______ _____ _____    ______ ____
ROOT
ATOM      1  F   UNL     1      32.954 -22.527 -18.626  0.00  0.00    -0.203 F 
ATOM      2  N   UNL     1      34.215 -19.816 -20.629  0.00  0.00    -0.253 N 
ATOM      3  N   UNL     1      36.223 -19.048 -21.250  0.00  0.00    -0.394 NA
ATOM      4  C   UNL     1      35.230 -18.266 -21.784  0.00  0.00    +0.110 C 
ATOM      5  C   UNL     1      35.597 -19.978 -20.558  0.00  0.00    +0.187 C 
ATOM      6  C   UNL     1      33.985 -18.718 -21.416  0.00  0.00    +0.152 C 
ATOM      7  C   UNL     1      33.308 -20.657 -19.991  0.00  0.00    +0.098 C 
ATOM      8  C   UNL     1      36.085 -21.072 -19.781  0.00  0.00    +0.050 C 
ATOM      9  C   UNL     1      33.783 -21.680 -19.266  0.00  0.00    +0.155 C 
ATOM     10  C   UNL     1      35.214 -21.891 -19.160  0.00  0.00    +0.035 C 
ENDROOT
BRANCH   4  11
ATOM     11  C   UNL     1      35.563 -17.111 -22.631  0.00  0.00    +0.070 C 
BRANCH  11  12
ATOM     12  C   UNL     1      34.474 -16.732 -23.663  0.00  0.00    +0.084 C 
BRANCH  12  13
ATOM     13  C   UNL     1      34.091 -15.316 -23.548  0.00  0.00    -0.085 C 
ATOM     14  C   UNL     1      33.763 -14.164 -23.470  0.00  0.00    -0.045 C 
BRANCH  14  16
ATOM     15  N   UNL     1      32.406 -12.536 -22.470  0.00  0.00    -0.236 NA
ATOM     16  C   UNL     1      33.359 -12.794 -23.393  0.00  0.00    +0.123 C 
ATOM     17  C   UNL     1      33.922 -11.833 -24.217  0.00  0.00    +0.028 C 
ATOM     18  C   UNL     1      33.479 -10.522 -24.084  0.00  0.00    +0.004 C 
ATOM     19  C   UNL     1      32.499 -10.217 -23.145  0.00  0.00    +0.021 C 
ATOM     20  C   UNL     1      32.000 -11.251 -22.370  0.00  0.00    +0.100 C 
ENDBRANCH  14  16
ENDBRANCH  12  13
ENDBRANCH  11  12
ENDBRANCH   4  11
TORSDOF 4
ENDMDL
