MODEL 1
REMARK VINA RESULT:      -7.0      0.000      0.000
REMARK  Name = 2374
REMARK  4 active torsions:
REMARK  status: ('A' for Active; 'I' for Inactive)
REMARK    1  A    between atoms: C_1  and  C_7
REMARK    2  A    between atoms: C_2  and  C_11
REMARK    3  A    between atoms: C_3  and  O_15
REMARK    4  A    between atoms: C_4  and  O_17
REMARK                            x       y       z     vdW  Elec       q    Type
REMARK                         _______ _______ _______ _____ _____    ______ ____
ROOT
ATOM      1  C   UNL     1      31.089 -23.763 -15.291  0.00  0.00    +0.014 C 
ATOM      2  C   UNL     1      33.816 -23.827 -14.990  0.00  0.00    +0.014 C 
ATOM      3  C   UNL     1      31.867 -23.191 -16.267  0.00  0.00    +0.129 C 
ATOM      4  C   UNL     1      32.994 -24.399 -14.019  0.00  0.00    +0.129 C 
ATOM      5  C   UNL     1      31.608 -24.366 -14.172  0.00  0.00    +0.035 C 
ATOM      6  C   UNL     1      33.252 -23.223 -16.113  0.00  0.00    +0.035 C 
ENDROOT
BRANCH   1   7
ATOM      7  C   UNL     1      29.559 -23.739 -15.444  0.00  0.00    +0.022 C 
ATOM      8  C   UNL     1      29.020 -22.343 -15.064  0.00  0.00    +0.004 C 
ATOM      9  C   UNL     1      28.928 -24.798 -14.515  0.00  0.00    +0.004 C 
ATOM     10  C   UNL     1      29.069 -24.042 -16.879  0.00  0.00    +0.004 C 
ENDBRANCH   1   7
BRANCH   2  11
ATOM     11  C   UNL     1      35.302 -23.853 -14.843  0.00  0.00    +0.022 C 
ATOM     12  C   UNL     1      35.989 -22.926 -15.891  0.00  0.00    +0.004 C 
ATOM     13  C   UNL     1      35.865 -25.293 -15.046  0.00  0.00    +0.004 C 
ATOM     14  C   UNL     1      35.845 -23.384 -13.452  0.00  0.00    +0.004 C 
ENDBRANCH   2  11
BRANCH   3  15
ATOM     15  O   UNL     1      31.332 -22.597 -17.370  0.00  0.00    -0.506 OA
ATOM     16  H   UNL     1      31.889 -22.151 -17.978  0.00  0.00    +0.292 HD
ENDBRANCH   3  15
BRANCH   4  17
ATOM     17  O   UNL     1      33.529 -24.994 -12.916  0.00  0.00    -0.506 OA
ATOM     18  H   UNL     1      32.968 -25.301 -12.231  0.00  0.00    +0.292 HD
ENDBRANCH   4  17
TORSDOF 4
ENDMDL
MODEL 2
REMARK VINA RESULT:      -7.0      0.054      5.513
REMARK  Name = 2374
REMARK  4 active torsions:
REMARK  status: ('A' for Active; 'I' for Inactive)
REMARK    1  A    between atoms: C_1  and  C_7
REMARK    2  A    between atoms: C_2  and  C_11
REMARK    3  A    between atoms: C_3  and  O_15
REMARK    4  A    between atoms: C_4  and  O_17
REMARK                            x       y       z     vdW  Elec       q    Type
REMARK                         _______ _______ _______ _____ _____    ______ ____
ROOT
ATOM      1  C   UNL     1      33.804 -23.809 -15.020  0.00  0.00    +0.014 C 
ATOM      2  C   UNL     1      31.078 -23.736 -15.332  0.00  0.00    +0.014 C 
ATOM      3  C   UNL     1      33.020 -24.378 -14.048  0.00  0.00    +0.129 C 
ATOM      4  C   UNL     1      31.905 -23.169 -16.301  0.00  0.00    +0.129 C 
ATOM      5  C   UNL     1      33.291 -23.206 -16.142  0.00  0.00    +0.035 C 
ATOM      6  C   UNL     1      31.635 -24.341 -14.206  0.00  0.00    +0.035 C 
ENDROOT
BRANCH   1   7
ATOM      7  C   UNL     1      35.333 -23.843 -14.865  0.00  0.00    +0.022 C 
ATOM      8  C   UNL     1      35.984 -22.922 -15.919  0.00  0.00    +0.004 C 
ATOM      9  C   UNL     1      35.845 -25.285 -15.064  0.00  0.00    +0.004 C 
ATOM     10  C   UNL     1      35.830 -23.370 -13.479  0.00  0.00    +0.004 C 
ENDBRANCH   1   7
BRANCH   2  11
ATOM     11  C   UNL     1      29.593 -23.706 -15.485  0.00  0.00    +0.022 C 
ATOM     12  C   UNL     1      29.010 -22.323 -15.064  0.00  0.00    +0.004 C 
ATOM     13  C   UNL     1      28.911 -24.794 -14.600  0.00  0.00    +0.004 C 
ATOM     14  C   UNL     1      29.065 -23.957 -16.937  0.00  0.00    +0.004 C 
ENDBRANCH   2  11
BRANCH   3  15
ATOM     15  O   UNL     1      33.549 -24.973 -12.942  0.00  0.00    -0.506 OA
ATOM     16  H   UNL     1      34.242 -25.596 -13.031  0.00  0.00    +0.292 HD
ENDBRANCH   3  15
BRANCH   4  17
ATOM     17  O   UNL     1      31.377 -22.575 -17.408  0.00  0.00    -0.506 OA
ATOM     18  H   UNL     1      30.717 -21.917 -17.316  0.00  0.00    +0.292 HD
ENDBRANCH   4  17
TORSDOF 4
ENDMDL
MODEL 3
REMARK VINA RESULT:      -6.9      5.088      7.076
REMARK  Name = 2374
REMARK  4 active torsions:
REMARK  status: ('A' for Active; 'I' for Inactive)
REMARK    1  A    between atoms: C_1  and  C_7
REMARK    2  A    between atoms: C_2  and  C_11
REMARK    3  A    between atoms: C_3  and  O_15
REMARK    4  A    between atoms: C_4  and  O_17
REMARK                            x       y       z     vdW  Elec       q    Type
REMARK                         _______ _______ _______ _____ _____    ______ ____
ROOT
ATOM      1  C   UNL     1      34.135 -21.907 -18.825  0.00  0.00    +0.014 C 
ATOM      2  C   UNL     1      34.787 -19.983 -20.670  0.00  0.00    +0.014 C 
ATOM      3  C   UNL     1      35.462 -21.620 -19.027  0.00  0.00    +0.129 C 
ATOM      4  C   UNL     1      33.448 -20.300 -20.437  0.00  0.00    +0.129 C 
ATOM      5  C   UNL     1      33.118 -21.278 -19.499  0.00  0.00    +0.035 C 
ATOM      6  C   UNL     1      35.793 -20.642 -19.965  0.00  0.00    +0.035 C 
ENDROOT
BRANCH   1   7
ATOM      7  C   UNL     1      33.750 -22.980 -17.793  0.00  0.00    +0.022 C 
ATOM      8  C   UNL     1      33.855 -24.380 -18.435  0.00  0.00    +0.004 C 
ATOM      9  C   UNL     1      32.301 -22.746 -17.316  0.00  0.00    +0.004 C 
ATOM     10  C   UNL     1      34.649 -22.987 -16.534  0.00  0.00    +0.004 C 
ENDBRANCH   1   7
BRANCH   2  11
ATOM     11  C   UNL     1      35.160 -18.938 -21.670  0.00  0.00    +0.022 C 
ATOM     12  C   UNL     1      36.702 -18.715 -21.704  0.00  0.00    +0.004 C 
ATOM     13  C   UNL     1      34.493 -17.570 -21.333  0.00  0.00    +0.004 C 
ATOM     14  C   UNL     1      34.750 -19.250 -23.148  0.00  0.00    +0.004 C 
ENDBRANCH   2  11
BRANCH   3  15
ATOM     15  O   UNL     1      36.457 -22.255 -18.347  0.00  0.00    -0.506 OA
ATOM     16  H   UNL     1      36.646 -22.015 -17.461  0.00  0.00    +0.292 HD
ENDBRANCH   3  15
BRANCH   4  17
ATOM     17  O   UNL     1      32.453 -19.664 -21.117  0.00  0.00    -0.506 OA
ATOM     18  H   UNL     1      32.477 -19.622 -22.052  0.00  0.00    +0.292 HD
ENDBRANCH   4  17
TORSDOF 4
ENDMDL
MODEL 4
REMARK VINA RESULT:      -6.9      5.123      7.076
REMARK  Name = 2374
REMARK  4 active torsions:
REMARK  status: ('A' for Active; 'I' for Inactive)
REMARK    1  A    between atoms: C_1  and  C_7
REMARK    2  A    between atoms: C_2  and  C_11
REMARK    3  A    between atoms: C_3  and  O_15
REMARK    4  A    between atoms: C_4  and  O_17
REMARK                            x       y       z     vdW  Elec       q    Type
REMARK                         _______ _______ _______ _____ _____    ______ ____
ROOT
ATOM      1  C   UNL     1      34.773 -19.951 -20.675  0.00  0.00    +0.014 C 
ATOM      2  C   UNL     1      34.131 -21.889 -18.842  0.00  0.00    +0.014 C 
ATOM      3  C   UNL     1      33.447 -20.226 -20.454  0.00  0.00    +0.129 C 
ATOM      4  C   UNL     1      35.468 -21.582 -19.091  0.00  0.00    +0.129 C 
ATOM      5  C   UNL     1      35.794 -20.597 -20.024  0.00  0.00    +0.035 C 
ATOM      6  C   UNL     1      33.121 -21.212 -19.523  0.00  0.00    +0.035 C 
ENDROOT
BRANCH   1   7
ATOM      7  C   UNL     1      35.152 -18.866 -21.697  0.00  0.00    +0.022 C 
ATOM      8  C   UNL     1      34.703 -19.301 -23.108  0.00  0.00    +0.004 C 
ATOM      9  C   UNL     1      36.682 -18.659 -21.691  0.00  0.00    +0.004 C 
ATOM     10  C   UNL     1      34.505 -17.490 -21.417  0.00  0.00    +0.004 C 
ENDBRANCH   1   7
BRANCH   2  11
ATOM     11  C   UNL     1      33.763 -22.941 -17.847  0.00  0.00    +0.022 C 
ATOM     12  C   UNL     1      33.856 -24.366 -18.473  0.00  0.00    +0.004 C 
ATOM     13  C   UNL     1      32.304 -22.746 -17.333  0.00  0.00    +0.004 C 
ATOM     14  C   UNL     1      34.656 -22.990 -16.564  0.00  0.00    +0.004 C 
ENDBRANCH   2  11
BRANCH   3  15
ATOM     15  O   UNL     1      32.447 -19.574 -21.111  0.00  0.00    -0.506 OA
ATOM     16  H   UNL     1      32.379 -18.641 -21.052  0.00  0.00    +0.292 HD
ENDBRANCH   3  15
BRANCH   4  17
ATOM     17  O   UNL     1      36.468 -22.234 -18.433  0.00  0.00    -0.506 OA
ATOM     18  H   UNL     1      37.158 -21.747 -18.029  0.00  0.00    +0.292 HD
ENDBRANCH   4  17
TORSDOF 4
ENDMDL
MODEL 5
REMARK VINA RESULT:      -6.9      1.624      2.802
REMARK  Name = 2374
REMARK  4 active torsions:
REMARK  status: ('A' for Active; 'I' for Inactive)
REMARK    1  A    between atoms: C_1  and  C_7
REMARK    2  A    between atoms: C_2  and  C_11
REMARK    3  A    between atoms: C_3  and  O_15
REMARK    4  A    between atoms: C_4  and  O_17
REMARK                            x       y       z     vdW  Elec       q    Type
REMARK                         _______ _______ _______ _____ _____    ______ ____
ROOT
ATOM      1  C   UNL     1      32.247 -23.783 -15.116  0.00  0.00    +0.014 C 
ATOM      2  C   UNL     1      34.858 -24.261 -14.416  0.00  0.00    +0.014 C 
ATOM      3  C   UNL     1      32.499 -24.387 -13.909  0.00  0.00    +0.129 C 
ATOM      4  C   UNL     1      34.564 -23.648 -15.634  0.00  0.00    +0.129 C 
ATOM      5  C   UNL     1      33.237 -23.406 -15.990  0.00  0.00    +0.035 C 
ATOM      6  C   UNL     1      33.826 -24.630 -13.554  0.00  0.00    +0.035 C 
ENDROOT
BRANCH   1   7
ATOM      7  C   UNL     1      30.791 -23.505 -15.524  0.00  0.00    +0.022 C 
ATOM      8  C   UNL     1      30.037 -24.839 -15.704  0.00  0.00    +0.004 C 
ATOM      9  C   UNL     1      30.765 -22.722 -16.855  0.00  0.00    +0.004 C 
ATOM     10  C   UNL     1      30.000 -22.671 -14.489  0.00  0.00    +0.004 C 
ENDBRANCH   1   7
BRANCH   2  11
ATOM     11  C   UNL     1      36.272 -24.528 -14.019  0.00  0.00    +0.022 C 
ATOM     12  C   UNL     1      36.920 -25.611 -14.935  0.00  0.00    +0.004 C 
ATOM     13  C   UNL     1      36.359 -25.041 -12.549  0.00  0.00    +0.004 C 
ATOM     14  C   UNL     1      37.231 -23.294 -14.088  0.00  0.00    +0.004 C 
ENDBRANCH   2  11
BRANCH   3  15
ATOM     15  O   UNL     1      31.503 -24.754 -13.056  0.00  0.00    -0.506 OA
ATOM     16  H   UNL     1      31.507 -25.608 -12.670  0.00  0.00    +0.292 HD
ENDBRANCH   3  15
BRANCH   4  17
ATOM     17  O   UNL     1      35.560 -23.280 -16.487  0.00  0.00    -0.506 OA
ATOM     18  H   UNL     1      35.406 -23.270 -17.412  0.00  0.00    +0.292 HD
ENDBRANCH   4  17
TORSDOF 4
ENDMDL
MODEL 6
REMARK VINA RESULT:      -6.8      1.558      5.274
REMARK  Name = 2374
REMARK  4 active torsions:
REMARK  status: ('A' for Active; 'I' for Inactive)
REMARK    1  A    between atoms: C_1  and  C_7
REMARK    2  A    between atoms: C_2  and  C_11
REMARK    3  A    between atoms: C_3  and  O_15
REMARK    4  A    between atoms: C_4  and  O_17
REMARK                            x       y       z     vdW  Elec       q    Type
REMARK                         _______ _______ _______ _____ _____    ______ ____
ROOT
ATOM      1  C   UNL     1      35.092 -23.797 -14.935  0.00  0.00    +0.014 C 
ATOM      2  C   UNL     1      32.366 -23.698 -15.234  0.00  0.00    +0.014 C 
ATOM      3  C   UNL     1      34.582 -23.323 -16.117  0.00  0.00    +0.129 C 
ATOM      4  C   UNL     1      32.919 -24.174 -14.045  0.00  0.00    +0.129 C 
ATOM      5  C   UNL     1      34.305 -24.225 -13.893  0.00  0.00    +0.035 C 
ATOM      6  C   UNL     1      33.197 -23.273 -16.269  0.00  0.00    +0.035 C 
ENDROOT
BRANCH   1   7
ATOM      7  C   UNL     1      36.617 -23.858 -14.747  0.00  0.00    +0.022 C 
ATOM      8  C   UNL     1      37.123 -25.282 -15.059  0.00  0.00    +0.004 C 
ATOM      9  C   UNL     1      36.976 -23.498 -13.289  0.00  0.00    +0.004 C 
ATOM     10  C   UNL     1      37.398 -22.886 -15.662  0.00  0.00    +0.004 C 
ENDBRANCH   1   7
BRANCH   2  11
ATOM     11  C   UNL     1      30.884 -23.637 -15.414  0.00  0.00    +0.022 C 
ATOM     12  C   UNL     1      30.507 -22.897 -16.733  0.00  0.00    +0.004 C 
ATOM     13  C   UNL     1      30.203 -22.878 -14.236  0.00  0.00    +0.004 C 
ATOM     14  C   UNL     1      30.162 -25.023 -15.492  0.00  0.00    +0.004 C 
ENDBRANCH   2  11
BRANCH   3  15
ATOM     15  O   UNL     1      35.380 -22.903 -17.138  0.00  0.00    -0.506 OA
ATOM     16  H   UNL     1      36.309 -22.864 -17.022  0.00  0.00    +0.292 HD
ENDBRANCH   3  15
BRANCH   4  17
ATOM     17  O   UNL     1      32.121 -24.593 -13.023  0.00  0.00    -0.506 OA
ATOM     18  H   UNL     1      32.099 -25.500 -12.787  0.00  0.00    +0.292 HD
ENDBRANCH   4  17
TORSDOF 4
ENDMDL
MODEL 7
REMARK VINA RESULT:      -6.7      1.716      2.647
REMARK  Name = 2374
REMARK  4 active torsions:
REMARK  status: ('A' for Active; 'I' for Inactive)
REMARK    1  A    between atoms: C_1  and  C_7
REMARK    2  A    between atoms: C_2  and  C_11
REMARK    3  A    between atoms: C_3  and  O_15
REMARK    4  A    between atoms: C_4  and  O_17
REMARK                            x       y       z     vdW  Elec       q    Type
REMARK                         _______ _______ _______ _____ _____    ______ ____
ROOT
ATOM      1  C   UNL     1      33.333 -23.885 -14.777  0.00  0.00    +0.014 C 
ATOM      2  C   UNL     1      35.849 -24.465 -13.845  0.00  0.00    +0.014 C 
ATOM      3  C   UNL     1      34.388 -23.804 -15.652  0.00  0.00    +0.129 C 
ATOM      4  C   UNL     1      34.753 -24.538 -12.985  0.00  0.00    +0.129 C 
ATOM      5  C   UNL     1      33.474 -24.242 -13.459  0.00  0.00    +0.035 C 
ATOM      6  C   UNL     1      35.666 -24.098 -15.178  0.00  0.00    +0.035 C 
ENDROOT
BRANCH   1   7
ATOM      7  C   UNL     1      31.916 -23.566 -15.282  0.00  0.00    +0.022 C 
ATOM      8  C   UNL     1      31.287 -22.464 -14.403  0.00  0.00    +0.004 C 
ATOM      9  C   UNL     1      31.041 -24.836 -15.210  0.00  0.00    +0.004 C 
ATOM     10  C   UNL     1      31.871 -23.064 -16.743  0.00  0.00    +0.004 C 
ENDBRANCH   1   7
BRANCH   2  11
ATOM     11  C   UNL     1      37.224 -24.777 -13.355  0.00  0.00    +0.022 C 
ATOM     12  C   UNL     1      37.687 -23.747 -12.280  0.00  0.00    +0.004 C 
ATOM     13  C   UNL     1      38.260 -24.742 -14.520  0.00  0.00    +0.004 C 
ATOM     14  C   UNL     1      37.394 -26.182 -12.688  0.00  0.00    +0.004 C 
ENDBRANCH   2  11
BRANCH   3  15
ATOM     15  O   UNL     1      34.227 -23.448 -16.957  0.00  0.00    -0.506 OA
ATOM     16  H   UNL     1      34.930 -23.037 -17.420  0.00  0.00    +0.292 HD
ENDBRANCH   3  15
BRANCH   4  17
ATOM     17  O   UNL     1      34.914 -24.895 -11.680  0.00  0.00    -0.506 OA
ATOM     18  H   UNL     1      34.185 -24.863 -11.092  0.00  0.00    +0.292 HD
ENDBRANCH   4  17
TORSDOF 4
ENDMDL
MODEL 8
REMARK VINA RESULT:      -6.5     14.288     15.713
REMARK  Name = 2374
REMARK  4 active torsions:
REMARK  status: ('A' for Active; 'I' for Inactive)
REMARK    1  A    between atoms: C_1  and  C_7
REMARK    2  A    between atoms: C_2  and  C_11
REMARK    3  A    between atoms: C_3  and  O_15
REMARK    4  A    between atoms: C_4  and  O_17
REMARK                            x       y       z     vdW  Elec       q    Type
REMARK                         _______ _______ _______ _____ _____    ______ ____
ROOT
ATOM      1  C   UNL     1      32.999 -12.180 -23.139  0.00  0.00    +0.014 C 
ATOM      2  C   UNL     1      32.770  -9.450 -22.967  0.00  0.00    +0.014 C 
ATOM      3  C   UNL     1      33.717 -11.408 -24.018  0.00  0.00    +0.129 C 
ATOM      4  C   UNL     1      32.056 -10.266 -22.089  0.00  0.00    +0.129 C 
ATOM      5  C   UNL     1      32.172 -11.654 -22.177  0.00  0.00    +0.035 C 
ATOM      6  C   UNL     1      33.600 -10.021 -23.931  0.00  0.00    +0.035 C 
ENDROOT
BRANCH   1   7
ATOM      7  C   UNL     1      33.117 -13.711 -23.218  0.00  0.00    +0.022 C 
ATOM      8  C   UNL     1      32.608 -14.202 -24.590  0.00  0.00    +0.004 C 
ATOM      9  C   UNL     1      32.269 -14.355 -22.101  0.00  0.00    +0.004 C 
ATOM     10  C   UNL     1      34.562 -14.236 -23.054  0.00  0.00    +0.004 C 
ENDBRANCH   1   7
BRANCH   2  11
ATOM     11  C   UNL     1      32.657  -7.963 -22.888  0.00  0.00    +0.022 C 
ATOM     12  C   UNL     1      31.282  -7.472 -23.434  0.00  0.00    +0.004 C 
ATOM     13  C   UNL     1      33.773  -7.267 -23.725  0.00  0.00    +0.004 C 
ATOM     14  C   UNL     1      32.776  -7.359 -21.450  0.00  0.00    +0.004 C 
ENDBRANCH   2  11
BRANCH   3  15
ATOM     15  O   UNL     1      34.532 -11.949 -24.965  0.00  0.00    -0.506 OA
ATOM     16  H   UNL     1      34.182 -12.539 -25.604  0.00  0.00    +0.292 HD
ENDBRANCH   3  15
BRANCH   4  17
ATOM     17  O   UNL     1      31.241  -9.724 -21.141  0.00  0.00    -0.506 OA
ATOM     18  H   UNL     1      31.459  -9.807 -20.233  0.00  0.00    +0.292 HD
ENDBRANCH   4  17
TORSDOF 4
ENDMDL
MODEL 9
REMARK VINA RESULT:      -6.5     14.272     15.699
REMARK  Name = 2374
REMARK  4 active torsions:
REMARK  status: ('A' for Active; 'I' for Inactive)
REMARK    1  A    between atoms: C_1  and  C_7
REMARK    2  A    between atoms: C_2  and  C_11
REMARK    3  A    between atoms: C_3  and  O_15
REMARK    4  A    between atoms: C_4  and  O_17
REMARK                            x       y       z     vdW  Elec       q    Type
REMARK                         _______ _______ _______ _____ _____    ______ ____
ROOT
ATOM      1  C   UNL     1      32.750  -9.470 -22.924  0.00  0.00    +0.014 C 
ATOM      2  C   UNL     1      32.994 -12.197 -23.107  0.00  0.00    +0.014 C 
ATOM      3  C   UNL     1      32.041 -10.249 -22.044  0.00  0.00    +0.129 C 
ATOM      4  C   UNL     1      33.700 -11.374 -23.984  0.00  0.00    +0.129 C 
ATOM      5  C   UNL     1      33.576  -9.987 -23.891  0.00  0.00    +0.035 C 
ATOM      6  C   UNL     1      32.164 -11.634 -22.138  0.00  0.00    +0.035 C 
ENDROOT
BRANCH   1   7
ATOM      7  C   UNL     1      32.628  -7.940 -22.835  0.00  0.00    +0.022 C 
ATOM      8  C   UNL     1      31.255  -7.494 -23.384  0.00  0.00    +0.004 C 
ATOM      9  C   UNL     1      33.747  -7.280 -23.669  0.00  0.00    +0.004 C 
ATOM     10  C   UNL     1      32.744  -7.386 -21.396  0.00  0.00    +0.004 C 
ENDBRANCH   1   7
BRANCH   2  11
ATOM     11  C   UNL     1      33.115 -13.683 -23.191  0.00  0.00    +0.022 C 
ATOM     12  C   UNL     1      32.604 -14.213 -24.566  0.00  0.00    +0.004 C 
ATOM     13  C   UNL     1      32.279 -14.382 -22.076  0.00  0.00    +0.004 C 
ATOM     14  C   UNL     1      34.567 -14.246 -23.041  0.00  0.00    +0.004 C 
ENDBRANCH   2  11
BRANCH   3  15
ATOM     15  O   UNL     1      31.226  -9.715 -21.091  0.00  0.00    -0.506 OA
ATOM     16  H   UNL     1      30.543 -10.234 -20.715  0.00  0.00    +0.292 HD
ENDBRANCH   3  15
BRANCH   4  17
ATOM     17  O   UNL     1      34.516 -11.908 -24.936  0.00  0.00    -0.506 OA
ATOM     18  H   UNL     1      34.681 -12.830 -24.948  0.00  0.00    +0.292 HD
ENDBRANCH   4  17
TORSDOF 4
ENDMDL
