MODEL 1
REMARK VINA RESULT:      -9.4      0.000      0.000
REMARK  Name = 4472
REMARK  7 active torsions:
REMARK  status: ('A' for Active; 'I' for Inactive)
REMARK    1  A    between atoms: C_1  and  N_2
REMARK    2  A    between atoms: C_1  and  C_14
REMARK    3  A    between atoms: N_2  and  N_5
REMARK    4  A    between atoms: C_6  and  C_9
REMARK    5  A    between atoms: C_14  and  C_17
REMARK    6  A    between atoms: N_16  and  C_19
REMARK    7  A    between atoms: C_19  and  C_20
REMARK                            x       y       z     vdW  Elec       q    Type
REMARK                         _______ _______ _______ _____ _____    ______ ____
ROOT
ATOM      1  C   UNL     1      34.016 -21.125 -19.639  0.00  0.00    +0.097 C 
ENDROOT
BRANCH   1   2
ATOM      2  N   UNL     1      33.202 -22.334 -19.601  0.00  0.00    -0.229 NA
ATOM      3  H   UNL     1      32.528 -22.311 -20.367  0.00  0.00    +0.145 HD
BRANCH   2   5
ATOM      4  O   UNL     1      34.109 -23.812 -17.446  0.00  0.00    -0.269 OA
ATOM      5  N   UNL     1      32.520 -22.412 -18.395  0.00  0.00    -0.246 N 
ATOM      6  C   UNL     1      33.058 -23.179 -17.376  0.00  0.00    +0.259 C 
ATOM      7  H   UNL     1      31.672 -21.931 -18.267  0.00  0.00    +0.169 HD
BRANCH   6   9
ATOM      8  N   UNL     1      30.782 -23.325 -13.791  0.00  0.00    -0.242 NA
ATOM      9  C   UNL     1      32.262 -23.231 -16.123  0.00  0.00    +0.058 C 
ATOM     10  C   UNL     1      32.905 -23.488 -14.935  0.00  0.00    +0.025 C 
ATOM     11  C   UNL     1      30.905 -23.019 -16.187  0.00  0.00    +0.025 C 
ATOM     12  C   UNL     1      32.119 -23.525 -13.796  0.00  0.00    +0.099 C 
ATOM     13  C   UNL     1      30.208 -23.077 -14.991  0.00  0.00    +0.099 C 
ENDBRANCH   6   9
ENDBRANCH   2   5
ENDBRANCH   1   2
BRANCH   1  14
ATOM     14  C   UNL     1      33.496 -20.169 -20.705  0.00  0.00    +0.104 C 
BRANCH  14  17
ATOM     15  O   UNL     1      35.493 -18.801 -20.605  0.00  0.00    -0.275 OA
ATOM     16  N   UNL     1      34.457 -19.135 -22.654  0.00  0.00    -0.300 N 
ATOM     17  C   UNL     1      34.597 -19.296 -21.284  0.00  0.00    +0.224 C 
ATOM     18  H   UNL     1      33.703 -19.574 -23.111  0.00  0.00    +0.150 HD
BRANCH  16  19
ATOM     19  C   UNL     1      35.383 -18.346 -23.432  0.00  0.00    +0.116 C 
BRANCH  19  20
ATOM     20  C   UNL     1      34.775 -17.050 -23.883  0.00  0.00    -0.003 C 
ATOM     21  C   UNL     1      34.225 -16.954 -25.156  0.00  0.00    -0.003 C 
ATOM     22  C   UNL     1      34.768 -15.958 -23.022  0.00  0.00    -0.003 C 
ATOM     23  C   UNL     1      33.660 -15.749 -25.574  0.00  0.00    -0.000 C 
ATOM     24  C   UNL     1      34.203 -14.753 -23.441  0.00  0.00    -0.000 C 
ATOM     25  C   UNL     1      33.649 -14.649 -24.717  0.00  0.00    -0.000 C 
ENDBRANCH  19  20
ENDBRANCH  16  19
ENDBRANCH  14  17
ENDBRANCH   1  14
TORSDOF 7
ENDMDL
MODEL 2
REMARK VINA RESULT:      -9.4      4.747     10.947
REMARK  Name = 4472
REMARK  7 active torsions:
REMARK  status: ('A' for Active; 'I' for Inactive)
REMARK    1  A    between atoms: C_1  and  N_2
REMARK    2  A    between atoms: C_1  and  C_14
REMARK    3  A    between atoms: N_2  and  N_5
REMARK    4  A    between atoms: C_6  and  C_9
REMARK    5  A    between atoms: C_14  and  C_17
REMARK    6  A    between atoms: N_16  and  C_19
REMARK    7  A    between atoms: C_19  and  C_20
REMARK                            x       y       z     vdW  Elec       q    Type
REMARK                         _______ _______ _______ _____ _____    ______ ____
ROOT
ATOM      1  C   UNL     1      33.041 -14.861 -23.309  0.00  0.00    +0.097 C 
ENDROOT
BRANCH   1   2
ATOM      2  N   UNL     1      34.224 -14.155 -23.784  0.00  0.00    -0.229 NA
ATOM      3  H   UNL     1      35.056 -14.567 -23.359  0.00  0.00    +0.145 HD
BRANCH   2   5
ATOM      4  O   UNL     1      33.667 -12.154 -25.610  0.00  0.00    -0.269 OA
ATOM      5  N   UNL     1      34.150 -12.814 -23.439  0.00  0.00    -0.246 N 
ATOM      6  C   UNL     1      33.865 -11.888 -24.428  0.00  0.00    +0.259 C 
ATOM      7  H   UNL     1      34.297 -12.527 -22.509  0.00  0.00    +0.169 HD
BRANCH   6   9
ATOM      8  N   UNL     1      33.743  -7.834 -23.163  0.00  0.00    -0.242 NA
ATOM      9  C   UNL     1      33.822 -10.470 -23.986  0.00  0.00    +0.058 C 
ATOM     10  C   UNL     1      32.749 -10.036 -23.246  0.00  0.00    +0.025 C 
ATOM     11  C   UNL     1      34.859  -9.634 -24.329  0.00  0.00    +0.025 C 
ATOM     12  C   UNL     1      32.756  -8.706 -22.858  0.00  0.00    +0.099 C 
ATOM     13  C   UNL     1      34.772  -8.322 -23.893  0.00  0.00    +0.099 C 
ENDBRANCH   6   9
ENDBRANCH   2   5
ENDBRANCH   1   2
BRANCH   1  14
ATOM     14  C   UNL     1      33.056 -14.958 -21.788  0.00  0.00    +0.104 C 
BRANCH  14  17
ATOM     15  O   UNL     1      34.895 -15.487 -20.303  0.00  0.00    -0.275 OA
ATOM     16  N   UNL     1      34.392 -16.943 -22.038  0.00  0.00    -0.300 N 
ATOM     17  C   UNL     1      34.213 -15.799 -21.275  0.00  0.00    +0.224 C 
ATOM     18  H   UNL     1      33.791 -17.107 -22.800  0.00  0.00    +0.150 HD
BRANCH  16  19
ATOM     19  C   UNL     1      35.431 -17.903 -21.748  0.00  0.00    +0.116 C 
BRANCH  19  20
ATOM     20  C   UNL     1      34.896 -19.115 -21.043  0.00  0.00    -0.003 C 
ATOM     21  C   UNL     1      35.779 -20.051 -20.519  0.00  0.00    -0.003 C 
ATOM     22  C   UNL     1      33.522 -19.289 -20.921  0.00  0.00    -0.003 C 
ATOM     23  C   UNL     1      35.282 -21.177 -19.863  0.00  0.00    -0.000 C 
ATOM     24  C   UNL     1      33.025 -20.415 -20.266  0.00  0.00    -0.000 C 
ATOM     25  C   UNL     1      33.905 -21.360 -19.736  0.00  0.00    -0.000 C 
ENDBRANCH  19  20
ENDBRANCH  16  19
ENDBRANCH  14  17
ENDBRANCH   1  14
TORSDOF 7
ENDMDL
MODEL 3
REMARK VINA RESULT:      -9.4      1.802      9.476
REMARK  Name = 4472
REMARK  7 active torsions:
REMARK  status: ('A' for Active; 'I' for Inactive)
REMARK    1  A    between atoms: C_1  and  N_2
REMARK    2  A    between atoms: C_1  and  C_14
REMARK    3  A    between atoms: N_2  and  N_5
REMARK    4  A    between atoms: C_6  and  C_9
REMARK    5  A    between atoms: C_14  and  C_17
REMARK    6  A    between atoms: N_16  and  C_19
REMARK    7  A    between atoms: C_19  and  C_20
REMARK                            x       y       z     vdW  Elec       q    Type
REMARK                         _______ _______ _______ _____ _____    ______ ____
ROOT
ATOM      1  C   UNL     1      36.165 -21.164 -19.678  0.00  0.00    +0.097 C 
ENDROOT
BRANCH   1   2
ATOM      2  N   UNL     1      36.466 -19.766 -19.963  0.00  0.00    -0.229 NA
ATOM      3  H   UNL     1      35.978 -19.173 -19.292  0.00  0.00    +0.145 HD
BRANCH   2   5
ATOM      4  O   UNL     1      35.386 -17.307 -20.626  0.00  0.00    -0.269 OA
ATOM      5  N   UNL     1      36.054 -19.442 -21.247  0.00  0.00    -0.246 N 
ATOM      6  C   UNL     1      35.525 -18.183 -21.477  0.00  0.00    +0.259 C 
ATOM      7  H   UNL     1      36.136 -20.093 -21.979  0.00  0.00    +0.169 HD
BRANCH   6   9
ATOM      8  N   UNL     1      34.275 -17.419 -25.465  0.00  0.00    -0.242 NA
ATOM      9  C   UNL     1      35.088 -17.916 -22.871  0.00  0.00    +0.058 C 
ATOM     10  C   UNL     1      34.994 -16.614 -23.302  0.00  0.00    +0.025 C 
ATOM     11  C   UNL     1      34.790 -18.979 -23.691  0.00  0.00    +0.025 C 
ATOM     12  C   UNL     1      34.582 -16.418 -24.610  0.00  0.00    +0.099 C 
ATOM     13  C   UNL     1      34.387 -18.677 -24.982  0.00  0.00    +0.099 C 
ENDBRANCH   6   9
ENDBRANCH   2   5
ENDBRANCH   1   2
BRANCH   1  14
ATOM     14  C   UNL     1      34.658 -21.391 -19.670  0.00  0.00    +0.104 C 
BRANCH  14  17
ATOM     15  O   UNL     1      33.887 -23.680 -19.488  0.00  0.00    -0.275 OA
ATOM     16  N   UNL     1      34.401 -22.506 -17.553  0.00  0.00    -0.300 N 
ATOM     17  C   UNL     1      34.270 -22.658 -18.925  0.00  0.00    +0.224 C 
ATOM     18  H   UNL     1      34.717 -21.644 -17.197  0.00  0.00    +0.150 HD
BRANCH  16  19
ATOM     19  C   UNL     1      34.090 -23.572 -16.631  0.00  0.00    +0.116 C 
BRANCH  19  20
ATOM     20  C   UNL     1      32.771 -23.357 -15.947  0.00  0.00    -0.003 C 
ATOM     21  C   UNL     1      32.705 -23.381 -14.559  0.00  0.00    -0.003 C 
ATOM     22  C   UNL     1      31.629 -23.136 -16.708  0.00  0.00    -0.003 C 
ATOM     23  C   UNL     1      31.480 -23.180 -13.923  0.00  0.00    -0.000 C 
ATOM     24  C   UNL     1      30.404 -22.936 -16.072  0.00  0.00    -0.000 C 
ATOM     25  C   UNL     1      30.330 -22.958 -14.679  0.00  0.00    -0.000 C 
ENDBRANCH  19  20
ENDBRANCH  16  19
ENDBRANCH  14  17
ENDBRANCH   1  14
TORSDOF 7
ENDMDL
MODEL 4
REMARK VINA RESULT:      -9.4      3.116      8.645
REMARK  Name = 4472
REMARK  7 active torsions:
REMARK  status: ('A' for Active; 'I' for Inactive)
REMARK    1  A    between atoms: C_1  and  N_2
REMARK    2  A    between atoms: C_1  and  C_14
REMARK    3  A    between atoms: N_2  and  N_5
REMARK    4  A    between atoms: C_6  and  C_9
REMARK    5  A    between atoms: C_14  and  C_17
REMARK    6  A    between atoms: N_16  and  C_19
REMARK    7  A    between atoms: C_19  and  C_20
REMARK                            x       y       z     vdW  Elec       q    Type
REMARK                         _______ _______ _______ _____ _____    ______ ____
ROOT
ATOM      1  C   UNL     1      37.200 -22.275 -16.196  0.00  0.00    +0.097 C 
ENDROOT
BRANCH   1   2
ATOM      2  N   UNL     1      36.194 -22.776 -17.124  0.00  0.00    -0.229 NA
ATOM      3  H   UNL     1      36.587 -23.549 -17.663  0.00  0.00    +0.145 HD
BRANCH   2   5
ATOM      4  O   UNL     1      34.494 -23.201 -19.265  0.00  0.00    -0.269 OA
ATOM      5  N   UNL     1      35.799 -21.767 -17.991  0.00  0.00    -0.246 N 
ATOM      6  C   UNL     1      34.945 -22.083 -19.033  0.00  0.00    +0.259 C 
ATOM      7  H   UNL     1      36.121 -20.846 -17.866  0.00  0.00    +0.169 HD
BRANCH   6   9
ATOM      8  N   UNL     1      33.912 -18.857 -21.599  0.00  0.00    -0.242 NA
ATOM      9  C   UNL     1      34.583 -20.954 -19.930  0.00  0.00    +0.058 C 
ATOM     10  C   UNL     1      35.585 -20.277 -20.585  0.00  0.00    +0.025 C 
ATOM     11  C   UNL     1      33.258 -20.621 -20.080  0.00  0.00    +0.025 C 
ATOM     12  C   UNL     1      35.196 -19.234 -21.409  0.00  0.00    +0.099 C 
ATOM     13  C   UNL     1      32.973 -19.562 -20.927  0.00  0.00    +0.099 C 
ENDBRANCH   6   9
ENDBRANCH   2   5
ENDBRANCH   1   2
BRANCH   1  14
ATOM     14  C   UNL     1      37.399 -23.258 -15.048  0.00  0.00    +0.104 C 
BRANCH  14  17
ATOM     15  O   UNL     1      36.091 -25.289 -15.228  0.00  0.00    -0.275 OA
ATOM     16  N   UNL     1      35.194 -23.465 -14.107  0.00  0.00    -0.300 N 
ATOM     17  C   UNL     1      36.178 -24.134 -14.821  0.00  0.00    +0.224 C 
ATOM     18  H   UNL     1      35.359 -22.537 -13.823  0.00  0.00    +0.150 HD
BRANCH  16  19
ATOM     19  C   UNL     1      33.937 -24.088 -13.767  0.00  0.00    +0.116 C 
BRANCH  19  20
ATOM     20  C   UNL     1      32.817 -23.608 -14.643  0.00  0.00    -0.003 C 
ATOM     21  C   UNL     1      33.019 -23.486 -16.012  0.00  0.00    -0.003 C 
ATOM     22  C   UNL     1      31.587 -23.291 -14.075  0.00  0.00    -0.003 C 
ATOM     23  C   UNL     1      31.977 -23.041 -16.826  0.00  0.00    -0.000 C 
ATOM     24  C   UNL     1      30.546 -22.846 -14.890  0.00  0.00    -0.000 C 
ATOM     25  C   UNL     1      30.741 -22.720 -16.265  0.00  0.00    -0.000 C 
ENDBRANCH  19  20
ENDBRANCH  16  19
ENDBRANCH  14  17
ENDBRANCH   1  14
TORSDOF 7
ENDMDL
MODEL 5
REMARK VINA RESULT:      -9.4      3.489      9.039
REMARK  Name = 4472
REMARK  7 active torsions:
REMARK  status: ('A' for Active; 'I' for Inactive)
REMARK    1  A    between atoms: C_1  and  N_2
REMARK    2  A    between atoms: C_1  and  C_14
REMARK    3  A    between atoms: N_2  and  N_5
REMARK    4  A    between atoms: C_6  and  C_9
REMARK    5  A    between atoms: C_14  and  C_17
REMARK    6  A    between atoms: N_16  and  C_19
REMARK    7  A    between atoms: C_19  and  C_20
REMARK                            x       y       z     vdW  Elec       q    Type
REMARK                         _______ _______ _______ _____ _____    ______ ____
ROOT
ATOM      1  C   UNL     1      35.816 -23.159 -15.332  0.00  0.00    +0.097 C 
ENDROOT
BRANCH   1   2
ATOM      2  N   UNL     1      35.013 -23.539 -16.488  0.00  0.00    -0.229 NA
ATOM      3  H   UNL     1      35.450 -24.334 -16.956  0.00  0.00    +0.145 HD
BRANCH   2   5
ATOM      4  O   UNL     1      33.764 -23.730 -18.949  0.00  0.00    -0.269 OA
ATOM      5  N   UNL     1      34.924 -22.478 -17.377  0.00  0.00    -0.246 N 
ATOM      6  C   UNL     1      34.277 -22.675 -18.585  0.00  0.00    +0.259 C 
ATOM      7  H   UNL     1      35.312 -21.602 -17.152  0.00  0.00    +0.169 HD
BRANCH   6   9
ATOM      8  N   UNL     1      34.169 -19.311 -21.177  0.00  0.00    -0.242 NA
ATOM      9  C   UNL     1      34.240 -21.499 -19.492  0.00  0.00    +0.058 C 
ATOM     10  C   UNL     1      33.023 -20.946 -19.815  0.00  0.00    +0.025 C 
ATOM     11  C   UNL     1      35.423 -20.997 -19.981  0.00  0.00    +0.025 C 
ATOM     12  C   UNL     1      33.042 -19.851 -20.663  0.00  0.00    +0.099 C 
ATOM     13  C   UNL     1      35.334 -19.900 -20.822  0.00  0.00    +0.099 C 
ENDBRANCH   6   9
ENDBRANCH   2   5
ENDBRANCH   1   2
BRANCH   1  14
ATOM     14  C   UNL     1      35.763 -24.249 -14.268  0.00  0.00    +0.104 C 
BRANCH  14  17
ATOM     15  O   UNL     1      34.302 -23.803 -12.388  0.00  0.00    -0.275 OA
ATOM     16  N   UNL     1      33.432 -24.847 -14.269  0.00  0.00    -0.300 N 
ATOM     17  C   UNL     1      34.441 -24.260 -13.520  0.00  0.00    +0.224 C 
ATOM     18  H   UNL     1      33.643 -25.185 -15.170  0.00  0.00    +0.150 HD
BRANCH  16  19
ATOM     19  C   UNL     1      32.083 -24.975 -13.772  0.00  0.00    +0.116 C 
BRANCH  19  20
ATOM     20  C   UNL     1      31.080 -24.353 -14.700  0.00  0.00    -0.003 C 
ATOM     21  C   UNL     1      31.483 -23.352 -15.575  0.00  0.00    -0.003 C 
ATOM     22  C   UNL     1      29.758 -24.784 -14.673  0.00  0.00    -0.003 C 
ATOM     23  C   UNL     1      30.551 -22.774 -16.438  0.00  0.00    -0.000 C 
ATOM     24  C   UNL     1      28.827 -24.205 -15.535  0.00  0.00    -0.000 C 
ATOM     25  C   UNL     1      29.223 -23.200 -16.418  0.00  0.00    -0.000 C 
ENDBRANCH  19  20
ENDBRANCH  16  19
ENDBRANCH  14  17
ENDBRANCH   1  14
TORSDOF 7
ENDMDL
MODEL 6
REMARK VINA RESULT:      -9.4      4.160      7.340
REMARK  Name = 4472
REMARK  7 active torsions:
REMARK  status: ('A' for Active; 'I' for Inactive)
REMARK    1  A    between atoms: C_1  and  N_2
REMARK    2  A    between atoms: C_1  and  C_14
REMARK    3  A    between atoms: N_2  and  N_5
REMARK    4  A    between atoms: C_6  and  C_9
REMARK    5  A    between atoms: C_14  and  C_17
REMARK    6  A    between atoms: N_16  and  C_19
REMARK    7  A    between atoms: C_19  and  C_20
REMARK                            x       y       z     vdW  Elec       q    Type
REMARK                         _______ _______ _______ _____ _____    ______ ____
ROOT
ATOM      1  C   UNL     1      34.400 -15.945 -24.228  0.00  0.00    +0.097 C 
ENDROOT
BRANCH   1   2
ATOM      2  N   UNL     1      35.664 -16.301 -23.595  0.00  0.00    -0.229 NA
ATOM      3  H   UNL     1      36.394 -16.356 -24.307  0.00  0.00    +0.145 HD
BRANCH   2   5
ATOM      4  O   UNL     1      35.040 -16.560 -20.913  0.00  0.00    -0.269 OA
ATOM      5  N   UNL     1      35.551 -17.528 -22.959  0.00  0.00    -0.246 N 
ATOM      6  C   UNL     1      35.234 -17.551 -21.611  0.00  0.00    +0.259 C 
ATOM      7  H   UNL     1      35.692 -18.365 -23.456  0.00  0.00    +0.169 HD
BRANCH   6   9
ATOM      8  N   UNL     1      34.993 -21.412 -19.852  0.00  0.00    -0.242 NA
ATOM      9  C   UNL     1      35.150 -18.901 -20.996  0.00  0.00    +0.058 C 
ATOM     10  C   UNL     1      33.914 -19.477 -20.819  0.00  0.00    +0.025 C 
ATOM     11  C   UNL     1      36.311 -19.536 -20.622  0.00  0.00    +0.025 C 
ATOM     12  C   UNL     1      33.890 -20.735 -20.242  0.00  0.00    +0.099 C 
ATOM     13  C   UNL     1      36.179 -20.792 -20.053  0.00  0.00    +0.099 C 
ENDBRANCH   6   9
ENDBRANCH   2   5
ENDBRANCH   1   2
BRANCH   1  14
ATOM     14  C   UNL     1      33.820 -14.690 -23.586  0.00  0.00    +0.104 C 
BRANCH  14  17
ATOM     15  O   UNL     1      33.005 -13.742 -25.661  0.00  0.00    -0.275 OA
ATOM     16  N   UNL     1      34.135 -12.375 -24.165  0.00  0.00    -0.300 N 
ATOM     17  C   UNL     1      33.595 -13.577 -24.597  0.00  0.00    +0.224 C 
ATOM     18  H   UNL     1      34.591 -12.344 -23.293  0.00  0.00    +0.150 HD
BRANCH  16  19
ATOM     19  C   UNL     1      34.050 -11.169 -24.954  0.00  0.00    +0.116 C 
BRANCH  19  20
ATOM     20  C   UNL     1      33.932  -9.944 -24.095  0.00  0.00    -0.003 C 
ATOM     21  C   UNL     1      34.847  -8.909 -24.244  0.00  0.00    -0.003 C 
ATOM     22  C   UNL     1      32.908  -9.856 -23.158  0.00  0.00    -0.003 C 
ATOM     23  C   UNL     1      34.737  -7.770 -23.446  0.00  0.00    -0.000 C 
ATOM     24  C   UNL     1      32.798  -8.717 -22.361  0.00  0.00    -0.000 C 
ATOM     25  C   UNL     1      33.713  -7.674 -22.505  0.00  0.00    -0.000 C 
ENDBRANCH  19  20
ENDBRANCH  16  19
ENDBRANCH  14  17
ENDBRANCH   1  14
TORSDOF 7
ENDMDL
MODEL 7
REMARK VINA RESULT:      -9.3      4.563     10.332
REMARK  Name = 4472
REMARK  7 active torsions:
REMARK  status: ('A' for Active; 'I' for Inactive)
REMARK    1  A    between atoms: C_1  and  N_2
REMARK    2  A    between atoms: C_1  and  C_14
REMARK    3  A    between atoms: N_2  and  N_5
REMARK    4  A    between atoms: C_6  and  C_9
REMARK    5  A    between atoms: C_14  and  C_17
REMARK    6  A    between atoms: N_16  and  C_19
REMARK    7  A    between atoms: C_19  and  C_20
REMARK                            x       y       z     vdW  Elec       q    Type
REMARK                         _______ _______ _______ _____ _____    ______ ____
ROOT
ATOM      1  C   UNL     1      32.938 -15.061 -20.626  0.00  0.00    +0.097 C 
ENDROOT
BRANCH   1   2
ATOM      2  N   UNL     1      32.355 -14.739 -21.922  0.00  0.00    -0.229 NA
ATOM      3  H   UNL     1      32.951 -15.112 -22.662  0.00  0.00    +0.145 HD
BRANCH   2   5
ATOM      4  O   UNL     1      33.811 -13.301 -23.783  0.00  0.00    -0.269 OA
ATOM      5  N   UNL     1      32.248 -13.364 -22.069  0.00  0.00    -0.246 N 
ATOM      6  C   UNL     1      33.021 -12.736 -23.031  0.00  0.00    +0.259 C 
ATOM      7  H   UNL     1      31.634 -12.845 -21.501  0.00  0.00    +0.169 HD
BRANCH   6   9
ATOM      8  N   UNL     1      32.580  -8.517 -23.273  0.00  0.00    -0.242 NA
ATOM      9  C   UNL     1      32.867 -11.260 -23.115  0.00  0.00    +0.058 C 
ATOM     10  C   UNL     1      33.793 -10.534 -23.825  0.00  0.00    +0.025 C 
ATOM     11  C   UNL     1      31.802 -10.665 -22.481  0.00  0.00    +0.025 C 
ATOM     12  C   UNL     1      33.605  -9.163 -23.874  0.00  0.00    +0.099 C 
ATOM     13  C   UNL     1      31.703  -9.287 -22.590  0.00  0.00    +0.099 C 
ENDBRANCH   6   9
ENDBRANCH   2   5
ENDBRANCH   1   2
BRANCH   1  14
ATOM     14  C   UNL     1      34.444 -15.258 -20.756  0.00  0.00    +0.104 C 
BRANCH  14  17
ATOM     15  O   UNL     1      34.603 -16.578 -22.781  0.00  0.00    -0.275 OA
ATOM     16  N   UNL     1      35.349 -17.488 -20.781  0.00  0.00    -0.300 N 
ATOM     17  C   UNL     1      34.795 -16.492 -21.571  0.00  0.00    +0.224 C 
ATOM     18  H   UNL     1      35.463 -17.323 -19.816  0.00  0.00    +0.150 HD
BRANCH  16  19
ATOM     19  C   UNL     1      35.764 -18.758 -21.327  0.00  0.00    +0.116 C 
BRANCH  19  20
ATOM     20  C   UNL     1      35.110 -19.912 -20.624  0.00  0.00    -0.003 C 
ATOM     21  C   UNL     1      33.725 -20.020 -20.622  0.00  0.00    -0.003 C 
ATOM     22  C   UNL     1      35.898 -20.863 -19.983  0.00  0.00    -0.003 C 
ATOM     23  C   UNL     1      33.118 -21.093 -19.970  0.00  0.00    -0.000 C 
ATOM     24  C   UNL     1      35.290 -21.935 -19.331  0.00  0.00    -0.000 C 
ATOM     25  C   UNL     1      33.900 -22.050 -19.324  0.00  0.00    -0.000 C 
ENDBRANCH  19  20
ENDBRANCH  16  19
ENDBRANCH  14  17
ENDBRANCH   1  14
TORSDOF 7
ENDMDL
MODEL 8
REMARK VINA RESULT:      -9.3      3.375      8.752
REMARK  Name = 4472
REMARK  7 active torsions:
REMARK  status: ('A' for Active; 'I' for Inactive)
REMARK    1  A    between atoms: C_1  and  N_2
REMARK    2  A    between atoms: C_1  and  C_14
REMARK    3  A    between atoms: N_2  and  N_5
REMARK    4  A    between atoms: C_6  and  C_9
REMARK    5  A    between atoms: C_14  and  C_17
REMARK    6  A    between atoms: N_16  and  C_19
REMARK    7  A    between atoms: C_19  and  C_20
REMARK                            x       y       z     vdW  Elec       q    Type
REMARK                         _______ _______ _______ _____ _____    ______ ____
ROOT
ATOM      1  C   UNL     1      30.707 -22.926 -16.170  0.00  0.00    +0.097 C 
ENDROOT
BRANCH   1   2
ATOM      2  N   UNL     1      31.934 -23.394 -16.802  0.00  0.00    -0.229 NA
ATOM      3  H   UNL     1      32.625 -23.609 -16.081  0.00  0.00    +0.145 HD
BRANCH   2   5
ATOM      4  O   UNL     1      33.889 -23.892 -18.695  0.00  0.00    -0.269 OA
ATOM      5  N   UNL     1      32.441 -22.415 -17.644  0.00  0.00    -0.246 N 
ATOM      6  C   UNL     1      33.419 -22.766 -18.559  0.00  0.00    +0.259 C 
ATOM      7  H   UNL     1      32.110 -21.490 -17.593  0.00  0.00    +0.169 HD
BRANCH   6   9
ATOM      8  N   UNL     1      34.867 -19.602 -20.997  0.00  0.00    -0.242 NA
ATOM      9  C   UNL     1      33.926 -21.660 -19.412  0.00  0.00    +0.058 C 
ATOM     10  C   UNL     1      33.025 -20.788 -19.976  0.00  0.00    +0.025 C 
ATOM     11  C   UNL     1      35.281 -21.540 -19.611  0.00  0.00    +0.025 C 
ATOM     12  C   UNL     1      33.548 -19.774 -20.762  0.00  0.00    +0.099 C 
ATOM     13  C   UNL     1      35.702 -20.492 -20.414  0.00  0.00    +0.099 C 
ENDBRANCH   6   9
ENDBRANCH   2   5
ENDBRANCH   1   2
BRANCH   1  14
ATOM     14  C   UNL     1      30.766 -23.156 -14.664  0.00  0.00    +0.104 C 
BRANCH  14  17
ATOM     15  O   UNL     1      31.732 -25.328 -14.202  0.00  0.00    -0.275 OA
ATOM     16  N   UNL     1      33.060 -23.436 -13.997  0.00  0.00    -0.300 N 
ATOM     17  C   UNL     1      31.879 -24.111 -14.269  0.00  0.00    +0.224 C 
ATOM     18  H   UNL     1      33.079 -22.455 -14.080  0.00  0.00    +0.150 HD
BRANCH  16  19
ATOM     19  C   UNL     1      34.264 -24.127 -13.600  0.00  0.00    +0.116 C 
BRANCH  19  20
ATOM     20  C   UNL     1      35.450 -23.708 -14.419  0.00  0.00    -0.003 C 
ATOM     21  C   UNL     1      36.683 -24.312 -14.203  0.00  0.00    -0.003 C 
ATOM     22  C   UNL     1      35.302 -22.721 -15.387  0.00  0.00    -0.003 C 
ATOM     23  C   UNL     1      37.784 -23.923 -14.965  0.00  0.00    -0.000 C 
ATOM     24  C   UNL     1      36.404 -22.332 -16.149  0.00  0.00    -0.000 C 
ATOM     25  C   UNL     1      37.645 -22.933 -15.938  0.00  0.00    -0.000 C 
ENDBRANCH  19  20
ENDBRANCH  16  19
ENDBRANCH  14  17
ENDBRANCH   1  14
TORSDOF 7
ENDMDL
MODEL 9
REMARK VINA RESULT:      -9.3      3.469      6.040
REMARK  Name = 4472
REMARK  7 active torsions:
REMARK  status: ('A' for Active; 'I' for Inactive)
REMARK    1  A    between atoms: C_1  and  N_2
REMARK    2  A    between atoms: C_1  and  C_14
REMARK    3  A    between atoms: N_2  and  N_5
REMARK    4  A    between atoms: C_6  and  C_9
REMARK    5  A    between atoms: C_14  and  C_17
REMARK    6  A    between atoms: N_16  and  C_19
REMARK    7  A    between atoms: C_19  and  C_20
REMARK                            x       y       z     vdW  Elec       q    Type
REMARK                         _______ _______ _______ _____ _____    ______ ____
ROOT
ATOM      1  C   UNL     1      32.473 -23.070 -14.728  0.00  0.00    +0.097 C 
ENDROOT
BRANCH   1   2
ATOM      2  N   UNL     1      32.613 -24.303 -13.964  0.00  0.00    -0.229 NA
ATOM      3  H   UNL     1      32.444 -24.110 -12.977  0.00  0.00    +0.145 HD
BRANCH   2   5
ATOM      4  O   UNL     1      34.635 -23.903 -12.120  0.00  0.00    -0.269 OA
ATOM      5  N   UNL     1      33.892 -24.818 -14.119  0.00  0.00    -0.246 N 
ATOM      6  C   UNL     1      34.835 -24.560 -13.138  0.00  0.00    +0.259 C 
ATOM      7  H   UNL     1      34.124 -25.355 -14.910  0.00  0.00    +0.169 HD
BRANCH   6   9
ATOM      8  N   UNL     1      38.699 -26.182 -13.838  0.00  0.00    -0.242 NA
ATOM      9  C   UNL     1      36.186 -25.127 -13.383  0.00  0.00    +0.058 C 
ATOM     10  C   UNL     1      37.124 -25.071 -12.379  0.00  0.00    +0.025 C 
ATOM     11  C   UNL     1      36.459 -25.692 -14.606  0.00  0.00    +0.025 C 
ATOM     12  C   UNL     1      38.368 -25.612 -12.657  0.00  0.00    +0.099 C 
ATOM     13  C   UNL     1      37.734 -26.206 -14.785  0.00  0.00    +0.099 C 
ENDBRANCH   6   9
ENDBRANCH   2   5
ENDBRANCH   1   2
BRANCH   1  14
ATOM     14  C   UNL     1      32.201 -23.382 -16.195  0.00  0.00    +0.104 C 
BRANCH  14  17
ATOM     15  O   UNL     1      34.570 -23.621 -16.638  0.00  0.00    -0.275 OA
ATOM     16  N   UNL     1      33.185 -22.817 -18.317  0.00  0.00    -0.300 N 
ATOM     17  C   UNL     1      33.457 -23.299 -17.045  0.00  0.00    +0.224 C 
ATOM     18  H   UNL     1      32.257 -22.585 -18.550  0.00  0.00    +0.150 HD
BRANCH  16  19
ATOM     19  C   UNL     1      34.219 -22.648 -19.310  0.00  0.00    +0.116 C 
BRANCH  19  20
ATOM     20  C   UNL     1      34.165 -21.290 -19.950  0.00  0.00    -0.003 C 
ATOM     21  C   UNL     1      35.347 -20.655 -20.312  0.00  0.00    -0.003 C 
ATOM     22  C   UNL     1      32.934 -20.684 -20.174  0.00  0.00    -0.003 C 
ATOM     23  C   UNL     1      35.297 -19.394 -20.907  0.00  0.00    -0.000 C 
ATOM     24  C   UNL     1      32.886 -19.423 -20.768  0.00  0.00    -0.000 C 
ATOM     25  C   UNL     1      34.067 -18.778 -21.135  0.00  0.00    -0.000 C 
ENDBRANCH  19  20
ENDBRANCH  16  19
ENDBRANCH  14  17
ENDBRANCH   1  14
TORSDOF 7
ENDMDL
