MODEL 1
REMARK VINA RESULT:     -10.6      0.000      0.000
REMARK  Name = 108000
REMARK  2 active torsions:
REMARK  status: ('A' for Active; 'I' for Inactive)
REMARK    1  A    between atoms: C_2  and  C_5
REMARK    2  A    between atoms: C_2  and  C_15
REMARK                            x       y       z     vdW  Elec       q    Type
REMARK                         _______ _______ _______ _____ _____    ______ ____
ROOT
ATOM      1  O   UNL     1      35.315 -16.890 -20.428  0.00  0.00    -0.291 OA
ATOM      2  C   UNL     1      35.122 -17.013 -21.639  0.00  0.00    +0.174 C 
ENDROOT
BRANCH   2   5
ATOM      3  N   UNL     1      36.650 -20.549 -19.504  0.00  0.00    -0.319 N 
ATOM      4  N   UNL     1      34.525 -21.230 -19.605  0.00  0.00    -0.319 N 
ATOM      5  C   UNL     1      35.672 -18.220 -22.344  0.00  0.00    +0.068 C 
ATOM      6  C   UNL     1      34.506 -19.147 -22.769  0.00  0.00    +0.014 C 
ATOM      7  C   UNL     1      36.737 -18.925 -21.471  0.00  0.00    +0.049 C 
ATOM      8  C   UNL     1      33.794 -19.845 -21.588  0.00  0.00    +0.042 C 
ATOM      9  C   UNL     1      36.085 -19.889 -20.555  0.00  0.00    +0.032 C 
ATOM     10  C   UNL     1      34.783 -20.327 -20.600  0.00  0.00    +0.032 C 
ATOM     11  C   UNL     1      35.671 -21.344 -18.965  0.00  0.00    +0.181 C 
ATOM     12  H   UNL     1      37.581 -20.470 -19.193  0.00  0.00    +0.148 HD
ATOM     13  H   UNL     1      33.677 -21.690 -19.412  0.00  0.00    +0.148 HD
ENDBRANCH   2   5
BRANCH   2  15
ATOM     14  N   UNL     1      33.552 -14.915 -24.112  0.00  0.00    -0.284 N 
ATOM     15  C   UNL     1      34.367 -16.007 -22.402  0.00  0.00    +0.051 C 
ATOM     16  C   UNL     1      33.583 -14.968 -21.881  0.00  0.00    +0.018 C 
ATOM     17  C   UNL     1      33.073 -14.283 -22.986  0.00  0.00    +0.052 C 
ATOM     18  C   UNL     1      34.347 -15.972 -23.757  0.00  0.00    +0.068 C 
ATOM     19  C   UNL     1      33.242 -14.521 -20.589  0.00  0.00    +0.001 C 
ATOM     20  C   UNL     1      32.234 -13.169 -22.863  0.00  0.00    +0.015 C 
ATOM     21  C   UNL     1      33.267 -14.532 -25.477  0.00  0.00    +0.117 C 
ATOM     22  C   UNL     1      32.404 -13.408 -20.451  0.00  0.00    +0.000 C 
ATOM     23  C   UNL     1      31.909 -12.745 -21.572  0.00  0.00    +0.001 C 
ENDBRANCH   2  15
TORSDOF 2
ENDMDL
MODEL 2
REMARK VINA RESULT:     -10.3      0.736      2.371
REMARK  Name = 108000
REMARK  2 active torsions:
REMARK  status: ('A' for Active; 'I' for Inactive)
REMARK    1  A    between atoms: C_2  and  C_5
REMARK    2  A    between atoms: C_2  and  C_15
REMARK                            x       y       z     vdW  Elec       q    Type
REMARK                         _______ _______ _______ _____ _____    ______ ____
ROOT
ATOM      1  O   UNL     1      35.358 -16.912 -20.160  0.00  0.00    -0.291 OA
ATOM      2  C   UNL     1      35.028 -16.957 -21.347  0.00  0.00    +0.174 C 
ENDROOT
BRANCH   2   5
ATOM      3  N   UNL     1      36.770 -20.612 -19.615  0.00  0.00    -0.319 N 
ATOM      4  N   UNL     1      34.641 -21.269 -19.466  0.00  0.00    -0.319 N 
ATOM      5  C   UNL     1      35.460 -18.131 -22.179  0.00  0.00    +0.068 C 
ATOM      6  C   UNL     1      34.234 -19.024 -22.491  0.00  0.00    +0.014 C 
ATOM      7  C   UNL     1      36.621 -18.889 -21.492  0.00  0.00    +0.049 C 
ATOM      8  C   UNL     1      33.674 -19.776 -21.262  0.00  0.00    +0.042 C 
ATOM      9  C   UNL     1      36.082 -19.894 -20.546  0.00  0.00    +0.032 C 
ATOM     10  C   UNL     1      34.778 -20.317 -20.439  0.00  0.00    +0.032 C 
ATOM     11  C   UNL     1      35.860 -21.425 -18.991  0.00  0.00    +0.181 C 
ATOM     12  H   UNL     1      37.735 -20.557 -19.427  0.00  0.00    +0.148 HD
ATOM     13  H   UNL     1      33.819 -21.731 -19.185  0.00  0.00    +0.148 HD
ENDBRANCH   2   5
BRANCH   2  15
ATOM     14  N   UNL     1      32.938 -14.127 -22.126  0.00  0.00    -0.284 N 
ATOM     15  C   UNL     1      34.221 -15.890 -21.959  0.00  0.00    +0.051 C 
ATOM     16  C   UNL     1      33.993 -15.684 -23.327  0.00  0.00    +0.018 C 
ATOM     17  C   UNL     1      33.174 -14.557 -23.413  0.00  0.00    +0.052 C 
ATOM     18  C   UNL     1      33.579 -14.943 -21.232  0.00  0.00    +0.068 C 
ATOM     19  C   UNL     1      34.389 -16.328 -24.516  0.00  0.00    +0.001 C 
ATOM     20  C   UNL     1      32.729 -14.039 -24.634  0.00  0.00    +0.015 C 
ATOM     21  C   UNL     1      32.135 -12.983 -21.756  0.00  0.00    +0.117 C 
ATOM     22  C   UNL     1      33.952 -15.821 -25.745  0.00  0.00    +0.000 C 
ATOM     23  C   UNL     1      33.135 -14.693 -25.801  0.00  0.00    +0.001 C 
ENDBRANCH   2  15
TORSDOF 2
ENDMDL
MODEL 3
REMARK VINA RESULT:      -9.3      4.752      8.690
REMARK  Name = 108000
REMARK  2 active torsions:
REMARK  status: ('A' for Active; 'I' for Inactive)
REMARK    1  A    between atoms: C_2  and  C_5
REMARK    2  A    between atoms: C_2  and  C_15
REMARK                            x       y       z     vdW  Elec       q    Type
REMARK                         _______ _______ _______ _____ _____    ______ ____
ROOT
ATOM      1  O   UNL     1      35.007  -9.735 -23.967  0.00  0.00    -0.291 OA
ATOM      2  C   UNL     1      33.869 -10.209 -23.954  0.00  0.00    +0.174 C 
ENDROOT
BRANCH   2   5
ATOM      3  N   UNL     1      31.456  -9.527 -20.334  0.00  0.00    -0.319 N 
ATOM      4  N   UNL     1      32.965  -7.934 -19.919  0.00  0.00    -0.319 N 
ATOM      5  C   UNL     1      32.692  -9.276 -23.919  0.00  0.00    +0.068 C 
ATOM      6  C   UNL     1      33.188  -7.825 -23.699  0.00  0.00    +0.014 C 
ATOM      7  C   UNL     1      31.656  -9.742 -22.870  0.00  0.00    +0.049 C 
ATOM      8  C   UNL     1      33.763  -7.563 -22.288  0.00  0.00    +0.042 C 
ATOM      9  C   UNL     1      31.999  -9.190 -21.538  0.00  0.00    +0.032 C 
ATOM     10  C   UNL     1      32.919  -8.208 -21.259  0.00  0.00    +0.032 C 
ATOM     11  C   UNL     1      32.070  -8.744 -19.391  0.00  0.00    +0.181 C 
ATOM     12  H   UNL     1      30.758 -10.203 -20.173  0.00  0.00    +0.148 HD
ATOM     13  H   UNL     1      33.537  -7.281 -19.456  0.00  0.00    +0.148 HD
ENDBRANCH   2   5
BRANCH   2  15
ATOM     14  N   UNL     1      33.317 -13.697 -23.239  0.00  0.00    -0.284 N 
ATOM     15  C   UNL     1      33.644 -11.663 -23.971  0.00  0.00    +0.051 C 
ATOM     16  C   UNL     1      33.533 -12.486 -25.101  0.00  0.00    +0.018 C 
ATOM     17  C   UNL     1      33.325 -13.777 -24.613  0.00  0.00    +0.052 C 
ATOM     18  C   UNL     1      33.512 -12.401 -22.841  0.00  0.00    +0.068 C 
ATOM     19  C   UNL     1      33.585 -12.286 -26.494  0.00  0.00    +0.001 C 
ATOM     20  C   UNL     1      33.166 -14.885 -25.455  0.00  0.00    +0.015 C 
ATOM     21  C   UNL     1      33.129 -14.808 -22.332  0.00  0.00    +0.117 C 
ATOM     22  C   UNL     1      33.427 -13.384 -27.347  0.00  0.00    +0.000 C 
ATOM     23  C   UNL     1      33.221 -14.663 -26.834  0.00  0.00    +0.001 C 
ENDBRANCH   2  15
TORSDOF 2
ENDMDL
MODEL 4
REMARK VINA RESULT:      -9.3      7.386     10.231
REMARK  Name = 108000
REMARK  2 active torsions:
REMARK  status: ('A' for Active; 'I' for Inactive)
REMARK    1  A    between atoms: C_2  and  C_5
REMARK    2  A    between atoms: C_2  and  C_15
REMARK                            x       y       z     vdW  Elec       q    Type
REMARK                         _______ _______ _______ _____ _____    ______ ____
ROOT
ATOM      1  O   UNL     1      32.522 -25.587 -14.521  0.00  0.00    -0.291 OA
ATOM      2  C   UNL     1      32.683 -24.365 -14.521  0.00  0.00    +0.174 C 
ENDROOT
BRANCH   2   5
ATOM      3  N   UNL     1      29.397 -22.497 -16.778  0.00  0.00    -0.319 N 
ATOM      4  N   UNL     1      28.329 -24.409 -16.340  0.00  0.00    -0.319 N 
ATOM      5  C   UNL     1      31.643 -23.493 -13.878  0.00  0.00    +0.068 C 
ATOM      6  C   UNL     1      30.534 -24.380 -13.259  0.00  0.00    +0.014 C 
ATOM      7  C   UNL     1      31.109 -22.447 -14.886  0.00  0.00    +0.049 C 
ATOM      8  C   UNL     1      29.652 -25.104 -14.302  0.00  0.00    +0.042 C 
ATOM      9  C   UNL     1      29.991 -23.022 -15.670  0.00  0.00    +0.032 C 
ATOM     10  C   UNL     1      29.316 -24.193 -15.418  0.00  0.00    +0.032 C 
ATOM     11  C   UNL     1      28.402 -23.368 -17.144  0.00  0.00    +0.181 C 
ATOM     12  H   UNL     1      29.635 -21.654 -17.229  0.00  0.00    +0.148 HD
ATOM     13  H   UNL     1      27.706 -25.169 -16.390  0.00  0.00    +0.148 HD
ENDBRANCH   2   5
BRANCH   2  15
ATOM     14  N   UNL     1      35.910 -22.990 -15.345  0.00  0.00    -0.284 N 
ATOM     15  C   UNL     1      33.871 -23.749 -15.134  0.00  0.00    +0.051 C 
ATOM     16  C   UNL     1      33.981 -23.246 -16.438  0.00  0.00    +0.018 C 
ATOM     17  C   UNL     1      35.288 -22.767 -16.553  0.00  0.00    +0.052 C 
ATOM     18  C   UNL     1      35.044 -23.592 -14.472  0.00  0.00    +0.068 C 
ATOM     19  C   UNL     1      33.119 -23.139 -17.546  0.00  0.00    +0.001 C 
ATOM     20  C   UNL     1      35.777 -22.184 -17.727  0.00  0.00    +0.015 C 
ATOM     21  C   UNL     1      37.279 -22.646 -15.028  0.00  0.00    +0.117 C 
ATOM     22  C   UNL     1      33.595 -22.558 -18.728  0.00  0.00    +0.000 C 
ATOM     23  C   UNL     1      34.904 -22.089 -18.815  0.00  0.00    +0.001 C 
ENDBRANCH   2  15
TORSDOF 2
ENDMDL
MODEL 5
REMARK VINA RESULT:      -9.3      7.724     11.127
REMARK  Name = 108000
REMARK  2 active torsions:
REMARK  status: ('A' for Active; 'I' for Inactive)
REMARK    1  A    between atoms: C_2  and  C_5
REMARK    2  A    between atoms: C_2  and  C_15
REMARK                            x       y       z     vdW  Elec       q    Type
REMARK                         _______ _______ _______ _____ _____    ______ ____
ROOT
ATOM      1  O   UNL     1      31.070  -7.937 -24.238  0.00  0.00    -0.291 OA
ATOM      2  C   UNL     1      31.752  -7.150 -23.579  0.00  0.00    +0.174 C 
ENDROOT
BRANCH   2   5
ATOM      3  N   UNL     1      32.956 -11.380 -23.353  0.00  0.00    -0.319 N 
ATOM      4  N   UNL     1      34.632 -10.724 -24.675  0.00  0.00    -0.319 N 
ATOM      5  C   UNL     1      32.649  -7.689 -22.501  0.00  0.00    +0.068 C 
ATOM      6  C   UNL     1      34.127  -7.427 -22.879  0.00  0.00    +0.014 C 
ATOM      7  C   UNL     1      32.334  -9.178 -22.222  0.00  0.00    +0.049 C 
ATOM      8  C   UNL     1      34.631  -8.269 -24.074  0.00  0.00    +0.042 C 
ATOM      9  C   UNL     1      33.105 -10.041 -23.148  0.00  0.00    +0.032 C 
ATOM     10  C   UNL     1      34.142  -9.662 -23.966  0.00  0.00    +0.032 C 
ATOM     11  C   UNL     1      33.898 -11.744 -24.282  0.00  0.00    +0.181 C 
ATOM     12  H   UNL     1      32.299 -11.971 -22.920  0.00  0.00    +0.148 HD
ATOM     13  H   UNL     1      35.366 -10.725 -25.331  0.00  0.00    +0.148 HD
ENDBRANCH   2   5
BRANCH   2  15
ATOM     14  N   UNL     1      31.249  -3.582 -23.532  0.00  0.00    -0.284 N 
ATOM     15  C   UNL     1      31.704  -5.700 -23.827  0.00  0.00    +0.051 C 
ATOM     16  C   UNL     1      32.250  -5.014 -24.921  0.00  0.00    +0.018 C 
ATOM     17  C   UNL     1      31.949  -3.666 -24.714  0.00  0.00    +0.052 C 
ATOM     18  C   UNL     1      31.096  -4.829 -22.985  0.00  0.00    +0.068 C 
ATOM     19  C   UNL     1      32.971  -5.380 -26.074  0.00  0.00    +0.001 C 
ATOM     20  C   UNL     1      32.337  -2.661 -25.608  0.00  0.00    +0.015 C 
ATOM     21  C   UNL     1      30.743  -2.364 -22.939  0.00  0.00    +0.117 C 
ATOM     22  C   UNL     1      33.365  -4.385 -26.977  0.00  0.00    +0.000 C 
ATOM     23  C   UNL     1      33.052  -3.047 -26.745  0.00  0.00    +0.001 C 
ENDBRANCH   2  15
TORSDOF 2
ENDMDL
MODEL 6
REMARK VINA RESULT:      -9.3      7.285     10.268
REMARK  Name = 108000
REMARK  2 active torsions:
REMARK  status: ('A' for Active; 'I' for Inactive)
REMARK    1  A    between atoms: C_2  and  C_5
REMARK    2  A    between atoms: C_2  and  C_15
REMARK                            x       y       z     vdW  Elec       q    Type
REMARK                         _______ _______ _______ _____ _____    ______ ____
ROOT
ATOM      1  O   UNL     1      36.081 -22.991 -12.961  0.00  0.00    -0.291 OA
ATOM      2  C   UNL     1      35.714 -23.857 -13.757  0.00  0.00    +0.174 C 
ENDROOT
BRANCH   2   5
ATOM      3  N   UNL     1      39.169 -25.915 -15.552  0.00  0.00    -0.319 N 
ATOM      4  N   UNL     1      40.262 -25.119 -13.775  0.00  0.00    -0.319 N 
ATOM      5  C   UNL     1      36.048 -25.294 -13.474  0.00  0.00    +0.068 C 
ATOM      6  C   UNL     1      36.849 -25.389 -12.152  0.00  0.00    +0.014 C 
ATOM      7  C   UNL     1      36.769 -25.936 -14.683  0.00  0.00    +0.049 C 
ATOM      8  C   UNL     1      38.279 -24.808 -12.239  0.00  0.00    +0.042 C 
ATOM      9  C   UNL     1      38.228 -25.690 -14.593  0.00  0.00    +0.032 C 
ATOM     10  C   UNL     1      38.922 -25.206 -13.510  0.00  0.00    +0.032 C 
ATOM     11  C   UNL     1      40.377 -25.555 -15.012  0.00  0.00    +0.181 C 
ATOM     12  H   UNL     1      39.012 -26.266 -16.458  0.00  0.00    +0.148 HD
ATOM     13  H   UNL     1      40.976 -24.802 -13.176  0.00  0.00    +0.148 HD
ENDBRANCH   2   5
BRANCH   2  15
ATOM     14  N   UNL     1      33.277 -23.302 -16.352  0.00  0.00    -0.284 N 
ATOM     15  C   UNL     1      34.960 -23.512 -14.972  0.00  0.00    +0.051 C 
ATOM     16  C   UNL     1      35.463 -22.913 -16.135  0.00  0.00    +0.018 C 
ATOM     17  C   UNL     1      34.376 -22.788 -17.002  0.00  0.00    +0.052 C 
ATOM     18  C   UNL     1      33.632 -23.748 -15.106  0.00  0.00    +0.068 C 
ATOM     19  C   UNL     1      36.727 -22.457 -16.560  0.00  0.00    +0.001 C 
ATOM     20  C   UNL     1      34.490 -22.226 -18.279  0.00  0.00    +0.015 C 
ATOM     21  C   UNL     1      31.936 -23.369 -16.890  0.00  0.00    +0.117 C 
ATOM     22  C   UNL     1      36.855 -21.892 -17.835  0.00  0.00    +0.000 C 
ATOM     23  C   UNL     1      35.752 -21.779 -18.679  0.00  0.00    +0.001 C 
ENDBRANCH   2  15
TORSDOF 2
ENDMDL
MODEL 7
REMARK VINA RESULT:      -9.3      7.671     10.492
REMARK  Name = 108000
REMARK  2 active torsions:
REMARK  status: ('A' for Active; 'I' for Inactive)
REMARK    1  A    between atoms: C_2  and  C_5
REMARK    2  A    between atoms: C_2  and  C_15
REMARK                            x       y       z     vdW  Elec       q    Type
REMARK                         _______ _______ _______ _____ _____    ______ ____
ROOT
ATOM      1  O   UNL     1      36.299 -22.887 -13.592  0.00  0.00    -0.291 OA
ATOM      2  C   UNL     1      35.639 -23.792 -14.106  0.00  0.00    +0.174 C 
ENDROOT
BRANCH   2   5
ATOM      3  N   UNL     1      39.181 -26.015 -15.484  0.00  0.00    -0.319 N 
ATOM      4  N   UNL     1      40.145 -25.127 -13.676  0.00  0.00    -0.319 N 
ATOM      5  C   UNL     1      35.918 -25.213 -13.709  0.00  0.00    +0.068 C 
ATOM      6  C   UNL     1      36.608 -25.237 -12.323  0.00  0.00    +0.014 C 
ATOM      7  C   UNL     1      36.720 -25.942 -14.814  0.00  0.00    +0.049 C 
ATOM      8  C   UNL     1      38.052 -24.686 -12.329  0.00  0.00    +0.042 C 
ATOM      9  C   UNL     1      38.171 -25.714 -14.620  0.00  0.00    +0.032 C 
ATOM     10  C   UNL     1      38.787 -25.175 -13.516  0.00  0.00    +0.032 C 
ATOM     11  C   UNL     1      40.350 -25.643 -14.871  0.00  0.00    +0.181 C 
ATOM     12  H   UNL     1      39.090 -26.421 -16.377  0.00  0.00    +0.148 HD
ATOM     13  H   UNL     1      40.815 -24.785 -13.042  0.00  0.00    +0.148 HD
ENDBRANCH   2   5
BRANCH   2  15
ATOM     14  N   UNL     1      33.654 -23.001 -17.008  0.00  0.00    -0.284 N 
ATOM     15  C   UNL     1      34.589 -23.506 -15.097  0.00  0.00    +0.051 C 
ATOM     16  C   UNL     1      33.204 -23.502 -14.880  0.00  0.00    +0.018 C 
ATOM     17  C   UNL     1      32.626 -23.177 -16.109  0.00  0.00    +0.052 C 
ATOM     18  C   UNL     1      34.860 -23.202 -16.390  0.00  0.00    +0.068 C 
ATOM     19  C   UNL     1      32.363 -23.736 -13.775  0.00  0.00    +0.001 C 
ATOM     20  C   UNL     1      31.242 -23.076 -16.288  0.00  0.00    +0.015 C 
ATOM     21  C   UNL     1      33.501 -22.655 -18.404  0.00  0.00    +0.117 C 
ATOM     22  C   UNL     1      30.976 -23.639 -13.940  0.00  0.00    +0.000 C 
ATOM     23  C   UNL     1      30.426 -23.314 -15.178  0.00  0.00    +0.001 C 
ENDBRANCH   2  15
TORSDOF 2
ENDMDL
MODEL 8
REMARK VINA RESULT:      -9.2      8.767     11.117
REMARK  Name = 108000
REMARK  2 active torsions:
REMARK  status: ('A' for Active; 'I' for Inactive)
REMARK    1  A    between atoms: C_2  and  C_5
REMARK    2  A    between atoms: C_2  and  C_15
REMARK                            x       y       z     vdW  Elec       q    Type
REMARK                         _______ _______ _______ _____ _____    ______ ____
ROOT
ATOM      1  O   UNL     1      32.285 -23.521 -16.367  0.00  0.00    -0.291 OA
ATOM      2  C   UNL     1      32.488 -23.593 -15.153  0.00  0.00    +0.174 C 
ENDROOT
BRANCH   2   5
ATOM      3  N   UNL     1      28.473 -22.286 -16.405  0.00  0.00    -0.319 N 
ATOM      4  N   UNL     1      28.193 -24.443 -16.914  0.00  0.00    -0.319 N 
ATOM      5  C   UNL     1      31.317 -23.534 -14.214  0.00  0.00    +0.068 C 
ATOM      6  C   UNL     1      30.677 -24.939 -14.097  0.00  0.00    +0.014 C 
ATOM      7  C   UNL     1      30.321 -22.434 -14.651  0.00  0.00    +0.049 C 
ATOM      8  C   UNL     1      29.952 -25.410 -15.379  0.00  0.00    +0.042 C 
ATOM      9  C   UNL     1      29.364 -22.979 -15.641  0.00  0.00    +0.032 C 
ATOM     10  C   UNL     1      29.170 -24.301 -15.967  0.00  0.00    +0.032 C 
ATOM     11  C   UNL     1      27.792 -23.211 -17.154  0.00  0.00    +0.181 C 
ATOM     12  H   UNL     1      28.344 -21.310 -16.417  0.00  0.00    +0.148 HD
ATOM     13  H   UNL     1      27.864 -25.276 -17.322  0.00  0.00    +0.148 HD
ENDBRANCH   2   5
BRANCH   2  15
ATOM     14  N   UNL     1      35.464 -24.267 -13.237  0.00  0.00    -0.284 N 
ATOM     15  C   UNL     1      33.848 -23.734 -14.611  0.00  0.00    +0.051 C 
ATOM     16  C   UNL     1      35.044 -23.320 -15.214  0.00  0.00    +0.018 C 
ATOM     17  C   UNL     1      36.061 -23.667 -14.324  0.00  0.00    +0.052 C 
ATOM     18  C   UNL     1      34.106 -24.309 -13.410  0.00  0.00    +0.068 C 
ATOM     19  C   UNL     1      35.387 -22.683 -16.423  0.00  0.00    +0.001 C 
ATOM     20  C   UNL     1      37.413 -23.409 -14.583  0.00  0.00    +0.015 C 
ATOM     21  C   UNL     1      36.155 -24.783 -12.076  0.00  0.00    +0.117 C 
ATOM     22  C   UNL     1      36.735 -22.419 -16.696  0.00  0.00    +0.000 C 
ATOM     23  C   UNL     1      37.730 -22.777 -15.789  0.00  0.00    +0.001 C 
ENDBRANCH   2  15
TORSDOF 2
ENDMDL
MODEL 9
REMARK VINA RESULT:      -9.2      5.033      8.190
REMARK  Name = 108000
REMARK  2 active torsions:
REMARK  status: ('A' for Active; 'I' for Inactive)
REMARK    1  A    between atoms: C_2  and  C_5
REMARK    2  A    between atoms: C_2  and  C_15
REMARK                            x       y       z     vdW  Elec       q    Type
REMARK                         _______ _______ _______ _____ _____    ______ ____
ROOT
ATOM      1  O   UNL     1      34.817  -9.504 -23.626  0.00  0.00    -0.291 OA
ATOM      2  C   UNL     1      33.739 -10.002 -23.955  0.00  0.00    +0.174 C 
ENDROOT
BRANCH   2   5
ATOM      3  N   UNL     1      31.252 -10.395 -20.343  0.00  0.00    -0.319 N 
ATOM      4  N   UNL     1      32.597  -8.806 -19.535  0.00  0.00    -0.319 N 
ATOM      5  C   UNL     1      32.477  -9.216 -23.742  0.00  0.00    +0.068 C 
ATOM      6  C   UNL     1      32.829  -7.814 -23.184  0.00  0.00    +0.014 C 
ATOM      7  C   UNL     1      31.485 -10.004 -22.854  0.00  0.00    +0.049 C 
ATOM      8  C   UNL     1      33.368  -7.830 -21.735  0.00  0.00    +0.042 C 
ATOM      9  C   UNL     1      31.766  -9.742 -21.423  0.00  0.00    +0.032 C 
ATOM     10  C   UNL     1      32.585  -8.769 -20.903  0.00  0.00    +0.032 C 
ATOM     11  C   UNL     1      31.782  -9.795 -19.229  0.00  0.00    +0.181 C 
ATOM     12  H   UNL     1      30.621 -11.151 -20.358  0.00  0.00    +0.148 HD
ATOM     13  H   UNL     1      33.101  -8.226 -18.920  0.00  0.00    +0.148 HD
ENDBRANCH   2   5
BRANCH   2  15
ATOM     14  N   UNL     1      33.568 -12.914 -26.071  0.00  0.00    -0.284 N 
ATOM     15  C   UNL     1      33.666 -11.346 -24.550  0.00  0.00    +0.051 C 
ATOM     16  C   UNL     1      33.615 -12.569 -23.867  0.00  0.00    +0.018 C 
ATOM     17  C   UNL     1      33.554 -13.555 -24.853  0.00  0.00    +0.052 C 
ATOM     18  C   UNL     1      33.637 -11.558 -25.889  0.00  0.00    +0.068 C 
ATOM     19  C   UNL     1      33.615 -12.960 -22.514  0.00  0.00    +0.001 C 
ATOM     20  C   UNL     1      33.491 -14.921 -24.552  0.00  0.00    +0.015 C 
ATOM     21  C   UNL     1      33.521 -13.561 -27.363  0.00  0.00    +0.117 C 
ATOM     22  C   UNL     1      33.553 -14.323 -22.197  0.00  0.00    +0.000 C 
ATOM     23  C   UNL     1      33.493 -15.286 -23.202  0.00  0.00    +0.001 C 
ENDBRANCH   2  15
TORSDOF 2
ENDMDL
