MODEL 1
REMARK VINA RESULT:      -3.3      0.000      0.000
REMARK  Name = 8024
REMARK  2 active torsions:
REMARK  status: ('A' for Active; 'I' for Inactive)
REMARK    1  A    between atoms: O_1  and  C_2
REMARK    2  A    between atoms: O_1  and  C_4
REMARK                            x       y       z     vdW  Elec       q    Type
REMARK                         _______ _______ _______ _____ _____    ______ ____
ROOT
ATOM      1  O   UNL     1      32.988 -22.124 -19.474  0.00  0.00    -0.447 OA
ENDROOT
BRANCH   1   2
ATOM      2  C   UNL     1      33.647 -22.790 -18.479  0.00  0.00    +0.180 C 
ATOM      3  C   UNL     1      33.092 -23.200 -17.336  0.00  0.00    +0.044 C 
ENDBRANCH   1   2
BRANCH   1   4
ATOM      4  C   UNL     1      33.471 -20.922 -19.860  0.00  0.00    +0.180 C 
ATOM      5  C   UNL     1      32.816 -20.042 -20.620  0.00  0.00    +0.044 C 
ENDBRANCH   1   4
TORSDOF 2
ENDMDL
MODEL 2
REMARK VINA RESULT:      -3.3      0.017      3.238
REMARK  Name = 8024
REMARK  2 active torsions:
REMARK  status: ('A' for Active; 'I' for Inactive)
REMARK    1  A    between atoms: O_1  and  C_2
REMARK    2  A    between atoms: O_1  and  C_4
REMARK                            x       y       z     vdW  Elec       q    Type
REMARK                         _______ _______ _______ _____ _____    ______ ____
ROOT
ATOM      1  O   UNL     1      32.990 -22.133 -19.482  0.00  0.00    -0.447 OA
ENDROOT
BRANCH   1   2
ATOM      2  C   UNL     1      33.466 -20.908 -19.856  0.00  0.00    +0.180 C 
ATOM      3  C   UNL     1      32.811 -20.034 -20.623  0.00  0.00    +0.044 C 
ENDBRANCH   1   2
BRANCH   1   4
ATOM      4  C   UNL     1      33.644 -22.796 -18.502  0.00  0.00    +0.180 C 
ATOM      5  C   UNL     1      33.101 -23.182 -17.346  0.00  0.00    +0.044 C 
ENDBRANCH   1   4
TORSDOF 2
ENDMDL
MODEL 3
REMARK VINA RESULT:      -3.3      2.727      3.685
REMARK  Name = 8024
REMARK  2 active torsions:
REMARK  status: ('A' for Active; 'I' for Inactive)
REMARK    1  A    between atoms: O_1  and  C_2
REMARK    2  A    between atoms: O_1  and  C_4
REMARK                            x       y       z     vdW  Elec       q    Type
REMARK                         _______ _______ _______ _____ _____    ______ ____
ROOT
ATOM      1  O   UNL     1      35.387 -19.826 -20.269  0.00  0.00    -0.447 OA
ENDROOT
BRANCH   1   2
ATOM      2  C   UNL     1      34.173 -19.878 -20.895  0.00  0.00    +0.180 C 
ATOM      3  C   UNL     1      33.034 -20.275 -20.324  0.00  0.00    +0.044 C 
ENDBRANCH   1   2
BRANCH   1   4
ATOM      4  C   UNL     1      36.042 -20.990 -20.060  0.00  0.00    +0.180 C 
ATOM      5  C   UNL     1      36.316 -21.509 -18.862  0.00  0.00    +0.044 C 
ENDBRANCH   1   4
TORSDOF 2
ENDMDL
MODEL 4
REMARK VINA RESULT:      -3.3      2.719      2.873
REMARK  Name = 8024
REMARK  2 active torsions:
REMARK  status: ('A' for Active; 'I' for Inactive)
REMARK    1  A    between atoms: O_1  and  C_2
REMARK    2  A    between atoms: O_1  and  C_4
REMARK                            x       y       z     vdW  Elec       q    Type
REMARK                         _______ _______ _______ _____ _____    ______ ____
ROOT
ATOM      1  O   UNL     1      35.371 -19.828 -20.248  0.00  0.00    -0.447 OA
ENDROOT
BRANCH   1   2
ATOM      2  C   UNL     1      36.040 -21.001 -20.041  0.00  0.00    +0.180 C 
ATOM      3  C   UNL     1      36.321 -21.521 -18.844  0.00  0.00    +0.044 C 
ENDBRANCH   1   2
BRANCH   1   4
ATOM      4  C   UNL     1      34.179 -19.881 -20.885  0.00  0.00    +0.180 C 
ATOM      5  C   UNL     1      33.033 -20.281 -20.331  0.00  0.00    +0.044 C 
ENDBRANCH   1   4
TORSDOF 2
ENDMDL
MODEL 5
REMARK VINA RESULT:      -3.3      7.963      9.264
REMARK  Name = 8024
REMARK  2 active torsions:
REMARK  status: ('A' for Active; 'I' for Inactive)
REMARK    1  A    between atoms: O_1  and  C_2
REMARK    2  A    between atoms: O_1  and  C_4
REMARK                            x       y       z     vdW  Elec       q    Type
REMARK                         _______ _______ _______ _____ _____    ______ ____
ROOT
ATOM      1  O   UNL     1      33.754 -15.780 -26.343  0.00  0.00    -0.447 OA
ENDROOT
BRANCH   1   2
ATOM      2  C   UNL     1      34.215 -16.372 -25.201  0.00  0.00    +0.180 C 
ATOM      3  C   UNL     1      34.469 -17.675 -25.064  0.00  0.00    +0.044 C 
ENDBRANCH   1   2
BRANCH   1   4
ATOM      4  C   UNL     1      33.010 -14.658 -26.219  0.00  0.00    +0.180 C 
ATOM      5  C   UNL     1      33.155 -13.558 -26.961  0.00  0.00    +0.044 C 
ENDBRANCH   1   4
TORSDOF 2
ENDMDL
MODEL 6
REMARK VINA RESULT:      -3.2      7.870      9.632
REMARK  Name = 8024
REMARK  2 active torsions:
REMARK  status: ('A' for Active; 'I' for Inactive)
REMARK    1  A    between atoms: O_1  and  C_2
REMARK    2  A    between atoms: O_1  and  C_4
REMARK                            x       y       z     vdW  Elec       q    Type
REMARK                         _______ _______ _______ _____ _____    ______ ____
ROOT
ATOM      1  O   UNL     1      33.901 -15.876 -26.246  0.00  0.00    -0.447 OA
ENDROOT
BRANCH   1   2
ATOM      2  C   UNL     1      33.022 -14.833 -26.164  0.00  0.00    +0.180 C 
ATOM      3  C   UNL     1      33.129 -13.688 -26.841  0.00  0.00    +0.044 C 
ENDBRANCH   1   2
BRANCH   1   4
ATOM      4  C   UNL     1      34.172 -16.568 -25.116  0.00  0.00    +0.180 C 
ATOM      5  C   UNL     1      34.508 -17.858 -25.071  0.00  0.00    +0.044 C 
ENDBRANCH   1   4
TORSDOF 2
ENDMDL
MODEL 7
REMARK VINA RESULT:      -3.2      3.754      4.801
REMARK  Name = 8024
REMARK  2 active torsions:
REMARK  status: ('A' for Active; 'I' for Inactive)
REMARK    1  A    between atoms: O_1  and  C_2
REMARK    2  A    between atoms: O_1  and  C_4
REMARK                            x       y       z     vdW  Elec       q    Type
REMARK                         _______ _______ _______ _____ _____    ______ ____
ROOT
ATOM      1  O   UNL     1      35.498 -17.924 -20.690  0.00  0.00    -0.447 OA
ENDROOT
BRANCH   1   2
ATOM      2  C   UNL     1      35.091 -19.171 -21.073  0.00  0.00    +0.180 C 
ATOM      3  C   UNL     1      33.870 -19.673 -20.870  0.00  0.00    +0.044 C 
ENDBRANCH   1   2
BRANCH   1   4
ATOM      4  C   UNL     1      34.915 -16.857 -21.283  0.00  0.00    +0.180 C 
ATOM      5  C   UNL     1      34.583 -15.724 -20.662  0.00  0.00    +0.044 C 
ENDBRANCH   1   4
TORSDOF 2
ENDMDL
MODEL 8
REMARK VINA RESULT:      -3.2      3.760      5.460
REMARK  Name = 8024
REMARK  2 active torsions:
REMARK  status: ('A' for Active; 'I' for Inactive)
REMARK    1  A    between atoms: O_1  and  C_2
REMARK    2  A    between atoms: O_1  and  C_4
REMARK                            x       y       z     vdW  Elec       q    Type
REMARK                         _______ _______ _______ _____ _____    ______ ____
ROOT
ATOM      1  O   UNL     1      35.496 -17.897 -20.675  0.00  0.00    -0.447 OA
ENDROOT
BRANCH   1   2
ATOM      2  C   UNL     1      34.896 -16.824 -21.274  0.00  0.00    +0.180 C 
ATOM      3  C   UNL     1      34.574 -15.685 -20.658  0.00  0.00    +0.044 C 
ENDBRANCH   1   2
BRANCH   1   4
ATOM      4  C   UNL     1      35.124 -19.134 -21.072  0.00  0.00    +0.180 C 
ATOM      5  C   UNL     1      33.924 -19.678 -20.859  0.00  0.00    +0.044 C 
ENDBRANCH   1   4
TORSDOF 2
ENDMDL
MODEL 9
REMARK VINA RESULT:      -3.2      2.965      4.677
REMARK  Name = 8024
REMARK  2 active torsions:
REMARK  status: ('A' for Active; 'I' for Inactive)
REMARK    1  A    between atoms: O_1  and  C_2
REMARK    2  A    between atoms: O_1  and  C_4
REMARK                            x       y       z     vdW  Elec       q    Type
REMARK                         _______ _______ _______ _____ _____    ______ ____
ROOT
ATOM      1  O   UNL     1      35.136 -19.311 -20.603  0.00  0.00    -0.447 OA
ENDROOT
BRANCH   1   2
ATOM      2  C   UNL     1      35.788 -18.354 -21.330  0.00  0.00    +0.180 C 
ATOM      3  C   UNL     1      35.826 -18.301 -22.663  0.00  0.00    +0.044 C 
ENDBRANCH   1   2
BRANCH   1   4
ATOM      4  C   UNL     1      33.880 -19.643 -20.974  0.00  0.00    +0.180 C 
ATOM      5  C   UNL     1      33.037 -20.380 -20.249  0.00  0.00    +0.044 C 
ENDBRANCH   1   4
TORSDOF 2
ENDMDL
