MODEL 1
REMARK VINA RESULT:      -7.0      0.000      0.000
REMARK  Name = 3276
REMARK  5 active torsions:
REMARK  status: ('A' for Active; 'I' for Inactive)
REMARK    1  A    between atoms: C_1  and  N_4
REMARK    2  A    between atoms: C_1  and  C_12
REMARK    3  A    between atoms: N_11  and  C_14
REMARK    4  A    between atoms: C_14  and  C_15
REMARK    5  A    between atoms: C_15  and  O_16
REMARK                            x       y       z     vdW  Elec       q    Type
REMARK                         _______ _______ _______ _____ _____    ______ ____
ROOT
ATOM      1  C   UNL     1      36.597 -23.184 -14.128  0.00  0.00    +0.183 C 
ENDROOT
BRANCH   1   4
ATOM      2  O   UNL     1      36.317 -24.012 -10.017  0.00  0.00    -0.123 OA
ATOM      3  O   UNL     1      37.131 -22.514 -11.406  0.00  0.00    -0.123 OA
ATOM      4  N   UNL     1      36.831 -24.467 -13.473  0.00  0.00    -0.242 N 
ATOM      5  N   UNL     1      37.137 -25.955 -11.874  0.00  0.00    -0.207 NA
ATOM      6  N   UNL     1      36.782 -23.701 -11.150  0.00  0.00    +0.091 N 
ATOM      7  C   UNL     1      36.914 -24.687 -12.135  0.00  0.00    +0.284 C 
ATOM      8  C   UNL     1      37.009 -25.650 -14.116  0.00  0.00    +0.089 C 
ATOM      9  C   UNL     1      37.199 -26.561 -13.103  0.00  0.00    +0.118 C 
ENDBRANCH   1   4
BRANCH   1  12
ATOM     10  O   UNL     1      35.555 -23.275 -16.309  0.00  0.00    -0.273 OA
ATOM     11  N   UNL     1      34.216 -23.188 -14.413  0.00  0.00    -0.301 N 
ATOM     12  C   UNL     1      35.426 -23.221 -15.088  0.00  0.00    +0.243 C 
ATOM     13  H   UNL     1      34.227 -23.145 -13.429  0.00  0.00    +0.150 HD
BRANCH  11  14
ATOM     14  C   UNL     1      32.940 -23.215 -15.089  0.00  0.00    +0.121 C 
BRANCH  14  15
ATOM     15  C   UNL     1      31.799 -23.176 -14.085  0.00  0.00    +0.158 C 
BRANCH  15  16
ATOM     16  O   UNL     1      32.334 -22.910 -12.795  0.00  0.00    -0.380 OA
ATOM     17  H   UNL     1      32.238 -21.965 -12.594  0.00  0.00    +0.211 HD
ENDBRANCH  15  16
ENDBRANCH  14  15
ENDBRANCH  11  14
ENDBRANCH   1  12
TORSDOF 5
ENDMDL
MODEL 2
REMARK VINA RESULT:      -7.0      2.343      4.490
REMARK  Name = 3276
REMARK  5 active torsions:
REMARK  status: ('A' for Active; 'I' for Inactive)
REMARK    1  A    between atoms: C_1  and  N_4
REMARK    2  A    between atoms: C_1  and  C_12
REMARK    3  A    between atoms: N_11  and  C_14
REMARK    4  A    between atoms: C_14  and  C_15
REMARK    5  A    between atoms: C_15  and  O_16
REMARK                            x       y       z     vdW  Elec       q    Type
REMARK                         _______ _______ _______ _____ _____    ______ ____
ROOT
ATOM      1  C   UNL     1      37.138 -23.127 -13.489  0.00  0.00    +0.183 C 
ENDROOT
BRANCH   1   4
ATOM      2  O   UNL     1      35.285 -24.428  -9.947  0.00  0.00    -0.123 OA
ATOM      3  O   UNL     1      37.160 -24.650 -11.075  0.00  0.00    -0.123 OA
ATOM      4  N   UNL     1      35.765 -23.597 -13.338  0.00  0.00    -0.242 N 
ATOM      5  N   UNL     1      33.965 -24.491 -12.427  0.00  0.00    -0.207 NA
ATOM      6  N   UNL     1      35.916 -24.428 -11.042  0.00  0.00    +0.091 N 
ATOM      7  C   UNL     1      35.227 -24.181 -12.236  0.00  0.00    +0.284 C 
ATOM      8  C   UNL     1      34.805 -23.522 -14.296  0.00  0.00    +0.089 C 
ATOM      9  C   UNL     1      33.696 -24.084 -13.710  0.00  0.00    +0.118 C 
ENDBRANCH   1   4
BRANCH   1  12
ATOM     10  O   UNL     1      38.479 -23.614 -15.442  0.00  0.00    -0.273 OA
ATOM     11  N   UNL     1      38.057 -25.303 -13.904  0.00  0.00    -0.301 N 
ATOM     12  C   UNL     1      37.964 -24.011 -14.400  0.00  0.00    +0.243 C 
ATOM     13  H   UNL     1      37.605 -25.515 -13.056  0.00  0.00    +0.150 HD
BRANCH  11  14
ATOM     14  C   UNL     1      38.791 -26.349 -14.576  0.00  0.00    +0.121 C 
BRANCH  14  15
ATOM     15  C   UNL     1      40.264 -25.992 -14.680  0.00  0.00    +0.158 C 
BRANCH  15  16
ATOM     16  O   UNL     1      40.615 -25.889 -16.054  0.00  0.00    -0.380 OA
ATOM     17  H   UNL     1      39.808 -25.842 -16.590  0.00  0.00    +0.211 HD
ENDBRANCH  15  16
ENDBRANCH  14  15
ENDBRANCH  11  14
ENDBRANCH   1  12
TORSDOF 5
ENDMDL
MODEL 3
REMARK VINA RESULT:      -6.7     10.363     12.948
REMARK  Name = 3276
REMARK  5 active torsions:
REMARK  status: ('A' for Active; 'I' for Inactive)
REMARK    1  A    between atoms: C_1  and  N_4
REMARK    2  A    between atoms: C_1  and  C_12
REMARK    3  A    between atoms: N_11  and  C_14
REMARK    4  A    between atoms: C_14  and  C_15
REMARK    5  A    between atoms: C_15  and  O_16
REMARK                            x       y       z     vdW  Elec       q    Type
REMARK                         _______ _______ _______ _____ _____    ______ ____
ROOT
ATOM      1  C   UNL     1      35.307 -16.957 -23.016  0.00  0.00    +0.183 C 
ENDROOT
BRANCH   1   4
ATOM      2  O   UNL     1      32.880 -15.947 -26.295  0.00  0.00    -0.123 OA
ATOM      3  O   UNL     1      34.883 -16.725 -25.829  0.00  0.00    -0.123 OA
ATOM      4  N   UNL     1      34.490 -15.757 -23.167  0.00  0.00    -0.242 N 
ATOM      5  N   UNL     1      33.204 -14.225 -24.098  0.00  0.00    -0.207 NA
ATOM      6  N   UNL     1      33.872 -16.033 -25.518  0.00  0.00    +0.091 N 
ATOM      7  C   UNL     1      33.852 -15.351 -24.295  0.00  0.00    +0.284 C 
ATOM      8  C   UNL     1      34.247 -14.850 -22.186  0.00  0.00    +0.089 C 
ATOM      9  C   UNL     1      33.448 -13.906 -22.786  0.00  0.00    +0.118 C 
ENDBRANCH   1   4
BRANCH   1  12
ATOM     10  O   UNL     1      35.316 -17.147 -20.605  0.00  0.00    -0.273 OA
ATOM     11  N   UNL     1      34.568 -18.937 -21.883  0.00  0.00    -0.301 N 
ATOM     12  C   UNL     1      35.077 -17.661 -21.695  0.00  0.00    +0.243 C 
ATOM     13  H   UNL     1      34.413 -19.251 -22.803  0.00  0.00    +0.150 HD
BRANCH  11  14
ATOM     14  C   UNL     1      34.255 -19.825 -20.788  0.00  0.00    +0.121 C 
BRANCH  14  15
ATOM     15  C   UNL     1      32.750 -19.983 -20.638  0.00  0.00    +0.158 C 
BRANCH  15  16
ATOM     16  O   UNL     1      32.486 -20.764 -19.480  0.00  0.00    -0.380 OA
ATOM     17  H   UNL     1      33.324 -21.060 -19.091  0.00  0.00    +0.211 HD
ENDBRANCH  15  16
ENDBRANCH  14  15
ENDBRANCH  11  14
ENDBRANCH   1  12
TORSDOF 5
ENDMDL
MODEL 4
REMARK VINA RESULT:      -6.7      2.865      6.088
REMARK  Name = 3276
REMARK  5 active torsions:
REMARK  status: ('A' for Active; 'I' for Inactive)
REMARK    1  A    between atoms: C_1  and  N_4
REMARK    2  A    between atoms: C_1  and  C_12
REMARK    3  A    between atoms: N_11  and  C_14
REMARK    4  A    between atoms: C_14  and  C_15
REMARK    5  A    between atoms: C_15  and  O_16
REMARK                            x       y       z     vdW  Elec       q    Type
REMARK                         _______ _______ _______ _____ _____    ______ ____
ROOT
ATOM      1  C   UNL     1      36.555 -22.820 -15.972  0.00  0.00    +0.183 C 
ENDROOT
BRANCH   1   4
ATOM      2  O   UNL     1      33.813 -23.461 -19.093  0.00  0.00    -0.123 OA
ATOM      3  O   UNL     1      35.462 -22.125 -18.515  0.00  0.00    -0.123 OA
ATOM      4  N   UNL     1      35.126 -23.088 -15.844  0.00  0.00    -0.242 N 
ATOM      5  N   UNL     1      33.012 -23.384 -16.400  0.00  0.00    -0.207 NA
ATOM      6  N   UNL     1      34.508 -22.893 -18.203  0.00  0.00    +0.091 N 
ATOM      7  C   UNL     1      34.217 -23.117 -16.852  0.00  0.00    +0.284 C 
ATOM      8  C   UNL     1      34.483 -23.349 -14.677  0.00  0.00    +0.089 C 
ATOM      9  C   UNL     1      33.170 -23.528 -15.045  0.00  0.00    +0.118 C 
ENDBRANCH   1   4
BRANCH   1  12
ATOM     10  O   UNL     1      37.675 -23.051 -13.841  0.00  0.00    -0.273 OA
ATOM     11  N   UNL     1      37.755 -24.804 -15.362  0.00  0.00    -0.301 N 
ATOM     12  C   UNL     1      37.383 -23.541 -14.929  0.00  0.00    +0.243 C 
ATOM     13  H   UNL     1      37.466 -25.100 -16.256  0.00  0.00    +0.150 HD
BRANCH  11  14
ATOM     14  C   UNL     1      38.548 -25.706 -14.560  0.00  0.00    +0.121 C 
BRANCH  14  15
ATOM     15  C   UNL     1      40.032 -25.459 -14.782  0.00  0.00    +0.158 C 
BRANCH  15  16
ATOM     16  O   UNL     1      40.385 -25.928 -16.077  0.00  0.00    -0.380 OA
ATOM     17  H   UNL     1      39.961 -25.372 -16.749  0.00  0.00    +0.211 HD
ENDBRANCH  15  16
ENDBRANCH  14  15
ENDBRANCH  11  14
ENDBRANCH   1  12
TORSDOF 5
ENDMDL
MODEL 5
REMARK VINA RESULT:      -6.7      1.408      1.718
REMARK  Name = 3276
REMARK  5 active torsions:
REMARK  status: ('A' for Active; 'I' for Inactive)
REMARK    1  A    between atoms: C_1  and  N_4
REMARK    2  A    between atoms: C_1  and  C_12
REMARK    3  A    between atoms: N_11  and  C_14
REMARK    4  A    between atoms: C_14  and  C_15
REMARK    5  A    between atoms: C_15  and  O_16
REMARK                            x       y       z     vdW  Elec       q    Type
REMARK                         _______ _______ _______ _____ _____    ______ ____
ROOT
ATOM      1  C   UNL     1      36.052 -25.533 -14.123  0.00  0.00    +0.183 C 
ENDROOT
BRANCH   1   4
ATOM      2  O   UNL     1      35.345 -24.894 -10.029  0.00  0.00    -0.123 OA
ATOM      3  O   UNL     1      34.384 -24.631 -11.990  0.00  0.00    -0.123 OA
ATOM      4  N   UNL     1      36.976 -24.957 -13.152  0.00  0.00    -0.242 N 
ATOM      5  N   UNL     1      37.739 -24.099 -11.268  0.00  0.00    -0.207 NA
ATOM      6  N   UNL     1      35.425 -24.710 -11.277  0.00  0.00    +0.091 N 
ATOM      7  C   UNL     1      36.683 -24.590 -11.878  0.00  0.00    +0.284 C 
ATOM      8  C   UNL     1      38.288 -24.693 -13.385  0.00  0.00    +0.089 C 
ATOM      9  C   UNL     1      38.742 -24.160 -12.202  0.00  0.00    +0.118 C 
ENDBRANCH   1   4
BRANCH   1  12
ATOM     10  O   UNL     1      36.052 -23.876 -15.884  0.00  0.00    -0.273 OA
ATOM     11  N   UNL     1      34.073 -24.336 -14.758  0.00  0.00    -0.301 N 
ATOM     12  C   UNL     1      35.425 -24.492 -15.026  0.00  0.00    +0.243 C 
ATOM     13  H   UNL     1      33.668 -24.884 -14.046  0.00  0.00    +0.150 HD
BRANCH  11  14
ATOM     14  C   UNL     1      33.233 -23.408 -15.477  0.00  0.00    +0.121 C 
BRANCH  14  15
ATOM     15  C   UNL     1      32.062 -22.965 -14.616  0.00  0.00    +0.158 C 
BRANCH  15  16
ATOM     16  O   UNL     1      32.414 -23.126 -13.248  0.00  0.00    -0.380 OA
ATOM     17  H   UNL     1      31.779 -22.647 -12.692  0.00  0.00    +0.211 HD
ENDBRANCH  15  16
ENDBRANCH  14  15
ENDBRANCH  11  14
ENDBRANCH   1  12
TORSDOF 5
ENDMDL
MODEL 6
REMARK VINA RESULT:      -6.6      7.037      9.029
REMARK  Name = 3276
REMARK  5 active torsions:
REMARK  status: ('A' for Active; 'I' for Inactive)
REMARK    1  A    between atoms: C_1  and  N_4
REMARK    2  A    between atoms: C_1  and  C_12
REMARK    3  A    between atoms: N_11  and  C_14
REMARK    4  A    between atoms: C_14  and  C_15
REMARK    5  A    between atoms: C_15  and  O_16
REMARK                            x       y       z     vdW  Elec       q    Type
REMARK                         _______ _______ _______ _____ _____    ______ ____
ROOT
ATOM      1  C   UNL     1      34.873 -20.094 -21.393  0.00  0.00    +0.183 C 
ENDROOT
BRANCH   1   4
ATOM      2  O   UNL     1      32.661 -22.497 -18.747  0.00  0.00    -0.123 OA
ATOM      3  O   UNL     1      32.567 -20.555 -19.776  0.00  0.00    -0.123 OA
ATOM      4  N   UNL     1      35.379 -20.812 -20.227  0.00  0.00    -0.242 N 
ATOM      5  N   UNL     1      35.397 -21.986 -18.359  0.00  0.00    -0.207 NA
ATOM      6  N   UNL     1      33.236 -21.499 -19.267  0.00  0.00    +0.091 N 
ATOM      7  C   UNL     1      34.635 -21.438 -19.279  0.00  0.00    +0.284 C 
ATOM      8  C   UNL     1      36.691 -20.959 -19.910  0.00  0.00    +0.089 C 
ATOM      9  C   UNL     1      36.679 -21.690 -18.746  0.00  0.00    +0.118 C 
ENDBRANCH   1   4
BRANCH   1  12
ATOM     10  O   UNL     1      36.602 -18.479 -21.897  0.00  0.00    -0.273 OA
ATOM     11  N   UNL     1      34.528 -17.732 -21.165  0.00  0.00    -0.301 N 
ATOM     12  C   UNL     1      35.453 -18.701 -21.521  0.00  0.00    +0.243 C 
ATOM     13  H   UNL     1      33.631 -18.020 -20.877  0.00  0.00    +0.150 HD
BRANCH  11  14
ATOM     14  C   UNL     1      34.821 -16.318 -21.199  0.00  0.00    +0.121 C 
BRANCH  14  15
ATOM     15  C   UNL     1      34.514 -15.739 -22.570  0.00  0.00    +0.158 C 
BRANCH  15  16
ATOM     16  O   UNL     1      35.619 -15.989 -23.430  0.00  0.00    -0.380 OA
ATOM     17  H   UNL     1      36.410 -16.165 -22.897  0.00  0.00    +0.211 HD
ENDBRANCH  15  16
ENDBRANCH  14  15
ENDBRANCH  11  14
ENDBRANCH   1  12
TORSDOF 5
ENDMDL
MODEL 7
REMARK VINA RESULT:      -6.5      2.297      2.875
REMARK  Name = 3276
REMARK  5 active torsions:
REMARK  status: ('A' for Active; 'I' for Inactive)
REMARK    1  A    between atoms: C_1  and  N_4
REMARK    2  A    between atoms: C_1  and  C_12
REMARK    3  A    between atoms: N_11  and  C_14
REMARK    4  A    between atoms: C_14  and  C_15
REMARK    5  A    between atoms: C_15  and  O_16
REMARK                            x       y       z     vdW  Elec       q    Type
REMARK                         _______ _______ _______ _____ _____    ______ ____
ROOT
ATOM      1  C   UNL     1      36.398 -25.369 -14.447  0.00  0.00    +0.183 C 
ENDROOT
BRANCH   1   4
ATOM      2  O   UNL     1      40.579 -25.059 -14.135  0.00  0.00    -0.123 OA
ATOM      3  O   UNL     1      38.996 -26.552 -14.459  0.00  0.00    -0.123 OA
ATOM      4  N   UNL     1      37.151 -24.614 -13.450  0.00  0.00    -0.242 N 
ATOM      5  N   UNL     1      38.854 -23.861 -12.268  0.00  0.00    -0.207 NA
ATOM      6  N   UNL     1      39.389 -25.453 -13.973  0.00  0.00    +0.091 N 
ATOM      7  C   UNL     1      38.493 -24.660 -13.246  0.00  0.00    +0.284 C 
ATOM      8  C   UNL     1      36.610 -23.741 -12.562  0.00  0.00    +0.089 C 
ATOM      9  C   UNL     1      37.686 -23.286 -11.836  0.00  0.00    +0.118 C 
ENDBRANCH   1   4
BRANCH   1  12
ATOM     10  O   UNL     1      35.507 -23.855 -16.108  0.00  0.00    -0.273 OA
ATOM     11  N   UNL     1      34.101 -24.681 -14.454  0.00  0.00    -0.301 N 
ATOM     12  C   UNL     1      35.315 -24.546 -15.111  0.00  0.00    +0.243 C 
ATOM     13  H   UNL     1      34.057 -25.264 -13.661  0.00  0.00    +0.150 HD
BRANCH  11  14
ATOM     14  C   UNL     1      32.899 -24.005 -14.881  0.00  0.00    +0.121 C 
BRANCH  14  15
ATOM     15  C   UNL     1      31.899 -23.914 -13.740  0.00  0.00    +0.158 C 
BRANCH  15  16
ATOM     16  O   UNL     1      32.375 -22.969 -12.790  0.00  0.00    -0.380 OA
ATOM     17  H   UNL     1      31.661 -22.352 -12.563  0.00  0.00    +0.211 HD
ENDBRANCH  15  16
ENDBRANCH  14  15
ENDBRANCH  11  14
ENDBRANCH   1  12
TORSDOF 5
ENDMDL
MODEL 8
REMARK VINA RESULT:      -6.5      1.560      2.364
REMARK  Name = 3276
REMARK  5 active torsions:
REMARK  status: ('A' for Active; 'I' for Inactive)
REMARK    1  A    between atoms: C_1  and  N_4
REMARK    2  A    between atoms: C_1  and  C_12
REMARK    3  A    between atoms: N_11  and  C_14
REMARK    4  A    between atoms: C_14  and  C_15
REMARK    5  A    between atoms: C_15  and  O_16
REMARK                            x       y       z     vdW  Elec       q    Type
REMARK                         _______ _______ _______ _____ _____    ______ ____
ROOT
ATOM      1  C   UNL     1      36.100 -23.432 -14.371  0.00  0.00    +0.183 C 
ENDROOT
BRANCH   1   4
ATOM      2  O   UNL     1      36.330 -24.172 -10.240  0.00  0.00    -0.123 OA
ATOM      3  O   UNL     1      36.832 -22.635 -11.729  0.00  0.00    -0.123 OA
ATOM      4  N   UNL     1      36.538 -24.664 -13.723  0.00  0.00    -0.242 N 
ATOM      5  N   UNL     1      37.164 -26.067 -12.140  0.00  0.00    -0.207 NA
ATOM      6  N   UNL     1      36.642 -23.845 -11.419  0.00  0.00    +0.091 N 
ATOM      7  C   UNL     1      36.779 -24.838 -12.397  0.00  0.00    +0.284 C 
ATOM      8  C   UNL     1      36.777 -25.838 -14.361  0.00  0.00    +0.089 C 
ATOM      9  C   UNL     1      37.166 -26.696 -13.359  0.00  0.00    +0.118 C 
ENDBRANCH   1   4
BRANCH   1  12
ATOM     10  O   UNL     1      33.713 -23.740 -14.140  0.00  0.00    -0.273 OA
ATOM     11  N   UNL     1      34.601 -23.277 -16.236  0.00  0.00    -0.301 N 
ATOM     12  C   UNL     1      34.673 -23.507 -14.870  0.00  0.00    +0.243 C 
ATOM     13  H   UNL     1      35.435 -23.098 -16.728  0.00  0.00    +0.150 HD
BRANCH  11  14
ATOM     14  C   UNL     1      33.356 -23.288 -16.968  0.00  0.00    +0.121 C 
BRANCH  14  15
ATOM     15  C   UNL     1      33.531 -22.647 -18.335  0.00  0.00    +0.158 C 
BRANCH  15  16
ATOM     16  O   UNL     1      33.905 -23.653 -19.267  0.00  0.00    -0.380 OA
ATOM     17  H   UNL     1      33.756 -24.528 -18.876  0.00  0.00    +0.211 HD
ENDBRANCH  15  16
ENDBRANCH  14  15
ENDBRANCH  11  14
ENDBRANCH   1  12
TORSDOF 5
ENDMDL
MODEL 9
REMARK VINA RESULT:      -6.5      3.089      3.843
REMARK  Name = 3276
REMARK  5 active torsions:
REMARK  status: ('A' for Active; 'I' for Inactive)
REMARK    1  A    between atoms: C_1  and  N_4
REMARK    2  A    between atoms: C_1  and  C_12
REMARK    3  A    between atoms: N_11  and  C_14
REMARK    4  A    between atoms: C_14  and  C_15
REMARK    5  A    between atoms: C_15  and  O_16
REMARK                            x       y       z     vdW  Elec       q    Type
REMARK                         _______ _______ _______ _____ _____    ______ ____
ROOT
ATOM      1  C   UNL     1      37.168 -26.759 -13.838  0.00  0.00    +0.183 C 
ENDROOT
BRANCH   1   4
ATOM      2  O   UNL     1      40.790 -24.826 -14.742  0.00  0.00    -0.123 OA
ATOM      3  O   UNL     1      39.926 -26.841 -14.571  0.00  0.00    -0.123 OA
ATOM      4  N   UNL     1      37.774 -25.647 -13.113  0.00  0.00    -0.242 N 
ATOM      5  N   UNL     1      39.264 -24.146 -12.482  0.00  0.00    -0.207 NA
ATOM      6  N   UNL     1      39.947 -25.621 -14.240  0.00  0.00    +0.091 N 
ATOM      7  C   UNL     1      39.023 -25.145 -13.301  0.00  0.00    +0.284 C 
ATOM      8  C   UNL     1      37.171 -24.939 -12.124  0.00  0.00    +0.089 C 
ATOM      9  C   UNL     1      38.115 -24.013 -11.745  0.00  0.00    +0.118 C 
ENDBRANCH   1   4
BRANCH   1  12
ATOM     10  O   UNL     1      36.336 -26.834 -16.108  0.00  0.00    -0.273 OA
ATOM     11  N   UNL     1      35.508 -25.228 -14.647  0.00  0.00    -0.301 N 
ATOM     12  C   UNL     1      36.310 -26.303 -15.000  0.00  0.00    +0.243 C 
ATOM     13  H   UNL     1      35.567 -24.879 -13.728  0.00  0.00    +0.150 HD
BRANCH  11  14
ATOM     14  C   UNL     1      34.590 -24.600 -15.568  0.00  0.00    +0.121 C 
BRANCH  14  15
ATOM     15  C   UNL     1      34.923 -23.126 -15.736  0.00  0.00    +0.158 C 
BRANCH  15  16
ATOM     16  O   UNL     1      35.965 -22.999 -16.695  0.00  0.00    -0.380 OA
ATOM     17  H   UNL     1      36.596 -22.325 -16.399  0.00  0.00    +0.211 HD
ENDBRANCH  15  16
ENDBRANCH  14  15
ENDBRANCH  11  14
ENDBRANCH   1  12
TORSDOF 5
ENDMDL
