MODEL 1
REMARK VINA RESULT:      -7.4      0.000      0.000
REMARK  Name = 24851355
REMARK  13 active torsions:
REMARK  status: ('A' for Active; 'I' for Inactive)
REMARK    1  A    between atoms: S_1  and  S_2
REMARK    2  A    between atoms: S_1  and  C_15
REMARK    3  A    between atoms: S_2  and  C_3
REMARK    4  A    between atoms: C_3  and  C_4
REMARK    5  A    between atoms: C_4  and  N_5
REMARK    6  A    between atoms: C_4  and  C_9
REMARK    7  A    between atoms: C_9  and  C_10
REMARK    8  A    between atoms: C_10  and  S_11
REMARK    9  A    between atoms: C_15  and  C_16
REMARK   10  A    between atoms: C_16  and  N_17
REMARK   11  A    between atoms: C_16  and  C_21
REMARK   12  A    between atoms: C_21  and  C_22
REMARK   13  A    between atoms: C_22  and  S_23
REMARK                            x       y       z     vdW  Elec       q    Type
REMARK                         _______ _______ _______ _____ _____    ______ ____
ROOT
ATOM      1  S   UNL     1      34.558 -24.115 -15.392  0.00  0.00    -0.084 S 
ENDROOT
BRANCH   1   2
ATOM      2  S   UNL     1      35.791 -22.670 -16.173  0.00  0.00    -0.084 S 
BRANCH   2   3
ATOM      3  C   UNL     1      37.401 -23.152 -15.474  0.00  0.00    +0.047 C 
BRANCH   3   4
ATOM      4  C   UNL     1      37.339 -24.438 -14.633  0.00  0.00    -0.052 C 
BRANCH   4   5
ATOM      5  N   UNL     1      38.190 -25.449 -15.277  0.00  0.00    +0.382 N 
ATOM      6  H   UNL     1      37.825 -25.658 -16.207  0.00  0.00    -0.089 HD
ATOM      7  H   UNL     1      38.193 -26.299 -14.714  0.00  0.00    -0.089 HD
ATOM      8  H   UNL     1      39.142 -25.090 -15.358  0.00  0.00    -0.089 HD
ENDBRANCH   4   5
BRANCH   4   9
ATOM      9  C   UNL     1      37.801 -24.231 -13.177  0.00  0.00    +0.005 C 
BRANCH   9  10
ATOM     10  C   UNL     1      36.790 -23.463 -12.332  0.00  0.00    +0.156 C 
BRANCH  10  11
ATOM     11  S   UNL     1      35.872 -24.551 -11.287  0.00  0.00    +0.022 S 
ATOM     12  O   UNL     1      36.727 -25.907 -11.591  0.00  0.00    -0.069 OA
ATOM     13  O   UNL     1      34.536 -24.710 -11.831  0.00  0.00    -0.069 OA
ATOM     14  O   UNL     1      36.088 -24.164  -9.905  0.00  0.00    -0.069 OA
ENDBRANCH  10  11
ENDBRANCH   9  10
ENDBRANCH   4   9
ENDBRANCH   3   4
ENDBRANCH   2   3
ENDBRANCH   1   2
BRANCH   1  15
ATOM     15  C   UNL     1      32.920 -23.436 -15.749  0.00  0.00    +0.047 C 
BRANCH  15  16
ATOM     16  C   UNL     1      31.911 -23.642 -14.606  0.00  0.00    -0.052 C 
BRANCH  16  17
ATOM     17  N   UNL     1      32.445 -22.993 -13.402  0.00  0.00    +0.382 N 
ATOM     18  H   UNL     1      32.275 -21.989 -13.454  0.00  0.00    -0.089 HD
ATOM     19  H   UNL     1      33.449 -23.165 -13.339  0.00  0.00    -0.089 HD
ATOM     20  H   UNL     1      31.983 -23.373 -12.576  0.00  0.00    -0.089 HD
ENDBRANCH  16  17
BRANCH  16  21
ATOM     21  C   UNL     1      30.516 -23.072 -14.922  0.00  0.00    +0.005 C 
BRANCH  21  22
ATOM     22  C   UNL     1      29.540 -24.126 -15.438  0.00  0.00    +0.156 C 
BRANCH  22  23
ATOM     23  S   UNL     1      28.277 -23.396 -16.433  0.00  0.00    +0.022 S 
ATOM     24  O   UNL     1      29.207 -22.273 -17.163  0.00  0.00    -0.069 OA
ATOM     25  O   UNL     1      27.327 -22.724 -15.566  0.00  0.00    -0.069 OA
ATOM     26  O   UNL     1      27.849 -24.364 -17.426  0.00  0.00    -0.069 OA
ENDBRANCH  22  23
ENDBRANCH  21  22
ENDBRANCH  16  21
ENDBRANCH  15  16
ENDBRANCH   1  15
TORSDOF 13
ENDMDL
MODEL 2
REMARK VINA RESULT:      -7.3      2.881      9.063
REMARK  Name = 24851355
REMARK  13 active torsions:
REMARK  status: ('A' for Active; 'I' for Inactive)
REMARK    1  A    between atoms: S_1  and  S_2
REMARK    2  A    between atoms: S_1  and  C_15
REMARK    3  A    between atoms: S_2  and  C_3
REMARK    4  A    between atoms: C_3  and  C_4
REMARK    5  A    between atoms: C_4  and  N_5
REMARK    6  A    between atoms: C_4  and  C_9
REMARK    7  A    between atoms: C_9  and  C_10
REMARK    8  A    between atoms: C_10  and  S_11
REMARK    9  A    between atoms: C_15  and  C_16
REMARK   10  A    between atoms: C_16  and  N_17
REMARK   11  A    between atoms: C_16  and  C_21
REMARK   12  A    between atoms: C_21  and  C_22
REMARK   13  A    between atoms: C_22  and  S_23
REMARK                            x       y       z     vdW  Elec       q    Type
REMARK                         _______ _______ _______ _____ _____    ______ ____
ROOT
ATOM      1  S   UNL     1      34.648 -24.244 -13.216  0.00  0.00    -0.084 S 
ENDROOT
BRANCH   1   2
ATOM      2  S   UNL     1      33.174 -23.670 -14.527  0.00  0.00    -0.084 S 
BRANCH   2   3
ATOM      3  C   UNL     1      31.878 -24.897 -14.172  0.00  0.00    +0.047 C 
BRANCH   3   4
ATOM      4  C   UNL     1      30.565 -24.633 -14.929  0.00  0.00    -0.052 C 
BRANCH   4   5
ATOM      5  N   UNL     1      29.478 -25.320 -14.216  0.00  0.00    +0.382 N 
ATOM      6  H   UNL     1      29.597 -26.329 -14.308  0.00  0.00    -0.089 HD
ATOM      7  H   UNL     1      28.582 -25.045 -14.617  0.00  0.00    -0.089 HD
ATOM      8  H   UNL     1      29.504 -25.064 -13.229  0.00  0.00    -0.089 HD
ENDBRANCH   4   5
BRANCH   4   9
ATOM      9  C   UNL     1      30.229 -23.134 -15.052  0.00  0.00    +0.005 C 
BRANCH   9  10
ATOM     10  C   UNL     1      29.716 -22.747 -16.436  0.00  0.00    +0.156 C 
BRANCH  10  11
ATOM     11  S   UNL     1      27.980 -23.038 -16.579  0.00  0.00    +0.022 S 
ATOM     12  O   UNL     1      27.589 -21.629 -17.301  0.00  0.00    -0.069 OA
ATOM     13  O   UNL     1      27.396 -23.060 -15.249  0.00  0.00    -0.069 OA
ATOM     14  O   UNL     1      27.764 -24.121 -17.521  0.00  0.00    -0.069 OA
ENDBRANCH  10  11
ENDBRANCH   9  10
ENDBRANCH   4   9
ENDBRANCH   3   4
ENDBRANCH   2   3
ENDBRANCH   1   2
BRANCH   1  15
ATOM     15  C   UNL     1      36.100 -23.414 -13.907  0.00  0.00    +0.047 C 
BRANCH  15  16
ATOM     16  C   UNL     1      37.087 -24.377 -14.588  0.00  0.00    -0.052 C 
BRANCH  16  17
ATOM     17  N   UNL     1      37.825 -23.628 -15.613  0.00  0.00    +0.382 N 
ATOM     18  H   UNL     1      37.165 -23.206 -16.266  0.00  0.00    -0.089 HD
ATOM     19  H   UNL     1      38.444 -24.262 -16.118  0.00  0.00    -0.089 HD
ATOM     20  H   UNL     1      38.378 -22.896 -15.168  0.00  0.00    -0.089 HD
ENDBRANCH  16  17
BRANCH  16  21
ATOM     21  C   UNL     1      38.083 -25.017 -13.602  0.00  0.00    +0.005 C 
BRANCH  21  22
ATOM     22  C   UNL     1      38.822 -26.216 -14.190  0.00  0.00    +0.156 C 
BRANCH  22  23
ATOM     23  S   UNL     1      40.468 -25.786 -14.663  0.00  0.00    +0.022 S 
ATOM     24  O   UNL     1      41.238 -26.960 -13.834  0.00  0.00    -0.069 OA
ATOM     25  O   UNL     1      40.804 -24.502 -14.076  0.00  0.00    -0.069 OA
ATOM     26  O   UNL     1      40.625 -26.037 -16.083  0.00  0.00    -0.069 OA
ENDBRANCH  22  23
ENDBRANCH  21  22
ENDBRANCH  16  21
ENDBRANCH  15  16
ENDBRANCH   1  15
TORSDOF 13
ENDMDL
MODEL 3
REMARK VINA RESULT:      -7.3      1.037      7.715
REMARK  Name = 24851355
REMARK  13 active torsions:
REMARK  status: ('A' for Active; 'I' for Inactive)
REMARK    1  A    between atoms: S_1  and  S_2
REMARK    2  A    between atoms: S_1  and  C_15
REMARK    3  A    between atoms: S_2  and  C_3
REMARK    4  A    between atoms: C_3  and  C_4
REMARK    5  A    between atoms: C_4  and  N_5
REMARK    6  A    between atoms: C_4  and  C_9
REMARK    7  A    between atoms: C_9  and  C_10
REMARK    8  A    between atoms: C_10  and  S_11
REMARK    9  A    between atoms: C_15  and  C_16
REMARK   10  A    between atoms: C_16  and  N_17
REMARK   11  A    between atoms: C_16  and  C_21
REMARK   12  A    between atoms: C_21  and  C_22
REMARK   13  A    between atoms: C_22  and  S_23
REMARK                            x       y       z     vdW  Elec       q    Type
REMARK                         _______ _______ _______ _____ _____    ______ ____
ROOT
ATOM      1  S   UNL     1      35.195 -22.910 -16.458  0.00  0.00    -0.084 S 
ENDROOT
BRANCH   1   2
ATOM      2  S   UNL     1      33.243 -23.409 -16.860  0.00  0.00    -0.084 S 
BRANCH   2   3
ATOM      3  C   UNL     1      32.486 -23.261 -15.212  0.00  0.00    +0.047 C 
BRANCH   3   4
ATOM      4  C   UNL     1      31.497 -24.394 -14.891  0.00  0.00    -0.052 C 
BRANCH   4   5
ATOM      5  N   UNL     1      32.033 -25.166 -13.761  0.00  0.00    +0.382 N 
ATOM      6  H   UNL     1      32.614 -25.927 -14.114  0.00  0.00    -0.089 HD
ATOM      7  H   UNL     1      31.263 -25.551 -13.215  0.00  0.00    -0.089 HD
ATOM      8  H   UNL     1      32.597 -24.555 -13.169  0.00  0.00    -0.089 HD
ENDBRANCH   4   5
BRANCH   4   9
ATOM      9  C   UNL     1      30.086 -23.883 -14.538  0.00  0.00    +0.005 C 
BRANCH   9  10
ATOM     10  C   UNL     1      28.996 -24.479 -15.424  0.00  0.00    +0.156 C 
BRANCH  10  11
ATOM     11  S   UNL     1      28.244 -23.240 -16.434  0.00  0.00    +0.022 S 
ATOM     12  O   UNL     1      27.703 -24.228 -17.613  0.00  0.00    -0.069 OA
ATOM     13  O   UNL     1      29.283 -22.385 -16.980  0.00  0.00    -0.069 OA
ATOM     14  O   UNL     1      27.103 -22.690 -15.725  0.00  0.00    -0.069 OA
ENDBRANCH  10  11
ENDBRANCH   9  10
ENDBRANCH   4   9
ENDBRANCH   3   4
ENDBRANCH   2   3
ENDBRANCH   1   2
BRANCH   1  15
ATOM     15  C   UNL     1      35.577 -24.004 -15.068  0.00  0.00    +0.047 C 
BRANCH  15  16
ATOM     16  C   UNL     1      37.070 -24.362 -14.967  0.00  0.00    -0.052 C 
BRANCH  16  17
ATOM     17  N   UNL     1      37.830 -23.380 -15.751  0.00  0.00    +0.382 N 
ATOM     18  H   UNL     1      38.760 -23.270 -15.346  0.00  0.00    -0.089 HD
ATOM     19  H   UNL     1      37.345 -22.483 -15.736  0.00  0.00    -0.089 HD
ATOM     20  H   UNL     1      37.915 -23.705 -16.714  0.00  0.00    -0.089 HD
ENDBRANCH  16  17
BRANCH  16  21
ATOM     21  C   UNL     1      37.590 -24.376 -13.517  0.00  0.00    +0.005 C 
BRANCH  21  22
ATOM     22  C   UNL     1      36.736 -23.542 -12.566  0.00  0.00    +0.156 C 
BRANCH  22  23
ATOM     23  S   UNL     1      35.917 -24.562 -11.380  0.00  0.00    +0.022 S 
ATOM     24  O   UNL     1      36.762 -25.928 -11.658  0.00  0.00    -0.069 OA
ATOM     25  O   UNL     1      34.544 -24.766 -11.805  0.00  0.00    -0.069 OA
ATOM     26  O   UNL     1      36.236 -24.078 -10.050  0.00  0.00    -0.069 OA
ENDBRANCH  22  23
ENDBRANCH  21  22
ENDBRANCH  16  21
ENDBRANCH  15  16
ENDBRANCH   1  15
TORSDOF 13
ENDMDL
MODEL 4
REMARK VINA RESULT:      -7.2      2.683      3.317
REMARK  Name = 24851355
REMARK  13 active torsions:
REMARK  status: ('A' for Active; 'I' for Inactive)
REMARK    1  A    between atoms: S_1  and  S_2
REMARK    2  A    between atoms: S_1  and  C_15
REMARK    3  A    between atoms: S_2  and  C_3
REMARK    4  A    between atoms: C_3  and  C_4
REMARK    5  A    between atoms: C_4  and  N_5
REMARK    6  A    between atoms: C_4  and  C_9
REMARK    7  A    between atoms: C_9  and  C_10
REMARK    8  A    between atoms: C_10  and  S_11
REMARK    9  A    between atoms: C_15  and  C_16
REMARK   10  A    between atoms: C_16  and  N_17
REMARK   11  A    between atoms: C_16  and  C_21
REMARK   12  A    between atoms: C_21  and  C_22
REMARK   13  A    between atoms: C_22  and  S_23
REMARK                            x       y       z     vdW  Elec       q    Type
REMARK                         _______ _______ _______ _____ _____    ______ ____
ROOT
ATOM      1  S   UNL     1      33.769 -24.124 -14.029  0.00  0.00    -0.084 S 
ENDROOT
BRANCH   1   2
ATOM      2  S   UNL     1      34.891 -23.251 -15.512  0.00  0.00    -0.084 S 
BRANCH   2   3
ATOM      3  C   UNL     1      36.475 -24.128 -15.329  0.00  0.00    +0.047 C 
BRANCH   3   4
ATOM      4  C   UNL     1      36.391 -25.351 -14.399  0.00  0.00    -0.052 C 
BRANCH   4   5
ATOM      5  N   UNL     1      36.093 -26.533 -15.221  0.00  0.00    +0.382 N 
ATOM      6  H   UNL     1      35.831 -27.311 -14.615  0.00  0.00    -0.089 HD
ATOM      7  H   UNL     1      36.917 -26.786 -15.765  0.00  0.00    -0.089 HD
ATOM      8  H   UNL     1      35.320 -26.321 -15.853  0.00  0.00    -0.089 HD
ENDBRANCH   4   5
BRANCH   4   9
ATOM      9  C   UNL     1      37.688 -25.596 -13.603  0.00  0.00    +0.005 C 
BRANCH   9  10
ATOM     10  C   UNL     1      38.645 -26.559 -14.299  0.00  0.00    +0.156 C 
BRANCH  10  11
ATOM     11  S   UNL     1      40.205 -25.794 -14.614  0.00  0.00    +0.022 S 
ATOM     12  O   UNL     1      41.141 -26.920 -13.894  0.00  0.00    -0.069 OA
ATOM     13  O   UNL     1      40.287 -24.561 -13.852  0.00  0.00    -0.069 OA
ATOM     14  O   UNL     1      40.458 -25.822 -16.043  0.00  0.00    -0.069 OA
ENDBRANCH  10  11
ENDBRANCH   9  10
ENDBRANCH   4   9
ENDBRANCH   3   4
ENDBRANCH   2   3
ENDBRANCH   1   2
BRANCH   1  15
ATOM     15  C   UNL     1      32.085 -23.737 -14.564  0.00  0.00    +0.047 C 
BRANCH  15  16
ATOM     16  C   UNL     1      31.105 -24.910 -14.391  0.00  0.00    -0.052 C 
BRANCH  16  17
ATOM     17  N   UNL     1      30.388 -24.724 -13.123  0.00  0.00    +0.382 N 
ATOM     18  H   UNL     1      30.427 -23.742 -12.852  0.00  0.00    -0.089 HD
ATOM     19  H   UNL     1      30.824 -25.295 -12.399  0.00  0.00    -0.089 HD
ATOM     20  H   UNL     1      29.414 -25.006 -13.237  0.00  0.00    -0.089 HD
ENDBRANCH  16  17
BRANCH  16  21
ATOM     21  C   UNL     1      30.089 -25.024 -15.544  0.00  0.00    +0.005 C 
BRANCH  21  22
ATOM     22  C   UNL     1      28.823 -24.204 -15.310  0.00  0.00    +0.156 C 
BRANCH  22  23
ATOM     23  S   UNL     1      28.525 -23.092 -16.649  0.00  0.00    +0.022 S 
ATOM     24  O   UNL     1      27.653 -21.992 -15.819  0.00  0.00    -0.069 OA
ATOM     25  O   UNL     1      27.659 -23.742 -17.615  0.00  0.00    -0.069 OA
ATOM     26  O   UNL     1      29.785 -22.489 -17.043  0.00  0.00    -0.069 OA
ENDBRANCH  22  23
ENDBRANCH  21  22
ENDBRANCH  16  21
ENDBRANCH  15  16
ENDBRANCH   1  15
TORSDOF 13
ENDMDL
MODEL 5
REMARK VINA RESULT:      -7.1      2.624      3.161
REMARK  Name = 24851355
REMARK  13 active torsions:
REMARK  status: ('A' for Active; 'I' for Inactive)
REMARK    1  A    between atoms: S_1  and  S_2
REMARK    2  A    between atoms: S_1  and  C_15
REMARK    3  A    between atoms: S_2  and  C_3
REMARK    4  A    between atoms: C_3  and  C_4
REMARK    5  A    between atoms: C_4  and  N_5
REMARK    6  A    between atoms: C_4  and  C_9
REMARK    7  A    between atoms: C_9  and  C_10
REMARK    8  A    between atoms: C_10  and  S_11
REMARK    9  A    between atoms: C_15  and  C_16
REMARK   10  A    between atoms: C_16  and  N_17
REMARK   11  A    between atoms: C_16  and  C_21
REMARK   12  A    between atoms: C_21  and  C_22
REMARK   13  A    between atoms: C_22  and  S_23
REMARK                            x       y       z     vdW  Elec       q    Type
REMARK                         _______ _______ _______ _____ _____    ______ ____
ROOT
ATOM      1  S   UNL     1      33.685 -23.489 -16.296  0.00  0.00    -0.084 S 
ENDROOT
BRANCH   1   2
ATOM      2  S   UNL     1      35.446 -23.362 -15.245  0.00  0.00    -0.084 S 
BRANCH   2   3
ATOM      3  C   UNL     1      35.501 -24.991 -14.434  0.00  0.00    +0.047 C 
BRANCH   3   4
ATOM      4  C   UNL     1      36.473 -25.047 -13.243  0.00  0.00    -0.052 C 
BRANCH   4   5
ATOM      5  N   UNL     1      36.746 -26.458 -12.939  0.00  0.00    +0.382 N 
ATOM      6  H   UNL     1      36.656 -26.613 -11.935  0.00  0.00    -0.089 HD
ATOM      7  H   UNL     1      37.693 -26.694 -13.237  0.00  0.00    -0.089 HD
ATOM      8  H   UNL     1      36.077 -27.048 -13.435  0.00  0.00    -0.089 HD
ENDBRANCH   4   5
BRANCH   4   9
ATOM      9  C   UNL     1      37.802 -24.315 -13.514  0.00  0.00    +0.005 C 
BRANCH   9  10
ATOM     10  C   UNL     1      39.023 -25.095 -13.035  0.00  0.00    +0.156 C 
BRANCH  10  11
ATOM     11  S   UNL     1      39.983 -25.680 -14.397  0.00  0.00    +0.022 S 
ATOM     12  O   UNL     1      38.864 -26.685 -15.028  0.00  0.00    -0.069 OA
ATOM     13  O   UNL     1      41.088 -26.472 -13.888  0.00  0.00    -0.069 OA
ATOM     14  O   UNL     1      40.198 -24.582 -15.322  0.00  0.00    -0.069 OA
ENDBRANCH  10  11
ENDBRANCH   9  10
ENDBRANCH   4   9
ENDBRANCH   3   4
ENDBRANCH   2   3
ENDBRANCH   1   2
BRANCH   1  15
ATOM     15  C   UNL     1      32.459 -23.212 -14.995  0.00  0.00    +0.047 C 
BRANCH  15  16
ATOM     16  C   UNL     1      31.436 -24.355 -14.867  0.00  0.00    -0.052 C 
BRANCH  16  17
ATOM     17  N   UNL     1      31.873 -25.240 -13.780  0.00  0.00    +0.382 N 
ATOM     18  H   UNL     1      31.449 -26.160 -13.901  0.00  0.00    -0.089 HD
ATOM     19  H   UNL     1      31.584 -24.847 -12.884  0.00  0.00    -0.089 HD
ATOM     20  H   UNL     1      32.888 -25.329 -13.800  0.00  0.00    -0.089 HD
ENDBRANCH  16  17
BRANCH  16  21
ATOM     21  C   UNL     1      30.007 -23.856 -14.581  0.00  0.00    +0.005 C 
BRANCH  21  22
ATOM     22  C   UNL     1      28.964 -24.455 -15.522  0.00  0.00    +0.156 C 
BRANCH  22  23
ATOM     23  S   UNL     1      28.167 -23.201 -16.475  0.00  0.00    +0.022 S 
ATOM     24  O   UNL     1      27.628 -24.161 -17.677  0.00  0.00    -0.069 OA
ATOM     25  O   UNL     1      29.175 -22.304 -17.009  0.00  0.00    -0.069 OA
ATOM     26  O   UNL     1      27.026 -22.703 -15.728  0.00  0.00    -0.069 OA
ENDBRANCH  22  23
ENDBRANCH  21  22
ENDBRANCH  16  21
ENDBRANCH  15  16
ENDBRANCH   1  15
TORSDOF 13
ENDMDL
MODEL 6
REMARK VINA RESULT:      -7.1      2.672      8.531
REMARK  Name = 24851355
REMARK  13 active torsions:
REMARK  status: ('A' for Active; 'I' for Inactive)
REMARK    1  A    between atoms: S_1  and  S_2
REMARK    2  A    between atoms: S_1  and  C_15
REMARK    3  A    between atoms: S_2  and  C_3
REMARK    4  A    between atoms: C_3  and  C_4
REMARK    5  A    between atoms: C_4  and  N_5
REMARK    6  A    between atoms: C_4  and  C_9
REMARK    7  A    between atoms: C_9  and  C_10
REMARK    8  A    between atoms: C_10  and  S_11
REMARK    9  A    between atoms: C_15  and  C_16
REMARK   10  A    between atoms: C_16  and  N_17
REMARK   11  A    between atoms: C_16  and  C_21
REMARK   12  A    between atoms: C_21  and  C_22
REMARK   13  A    between atoms: C_22  and  S_23
REMARK                            x       y       z     vdW  Elec       q    Type
REMARK                         _______ _______ _______ _____ _____    ______ ____
ROOT
ATOM      1  S   UNL     1      35.415 -24.661 -14.772  0.00  0.00    -0.084 S 
ENDROOT
BRANCH   1   2
ATOM      2  S   UNL     1      33.778 -23.507 -15.230  0.00  0.00    -0.084 S 
BRANCH   2   3
ATOM      3  C   UNL     1      32.638 -23.949 -13.882  0.00  0.00    +0.047 C 
BRANCH   3   4
ATOM      4  C   UNL     1      31.384 -24.698 -14.366  0.00  0.00    -0.052 C 
BRANCH   4   5
ATOM      5  N   UNL     1      30.516 -24.939 -13.204  0.00  0.00    +0.382 N 
ATOM      6  H   UNL     1      29.543 -24.781 -13.469  0.00  0.00    -0.089 HD
ATOM      7  H   UNL     1      30.772 -24.301 -12.451  0.00  0.00    -0.089 HD
ATOM      8  H   UNL     1      30.630 -25.902 -12.889  0.00  0.00    -0.089 HD
ENDBRANCH   4   5
BRANCH   4   9
ATOM      9  C   UNL     1      30.597 -23.926 -15.442  0.00  0.00    +0.005 C 
BRANCH   9  10
ATOM     10  C   UNL     1      29.123 -24.319 -15.503  0.00  0.00    +0.156 C 
BRANCH  10  11
ATOM     11  S   UNL     1      28.245 -23.328 -16.671  0.00  0.00    +0.022 S 
ATOM     12  O   UNL     1      27.090 -22.781 -15.658  0.00  0.00    -0.069 OA
ATOM     13  O   UNL     1      27.629 -24.199 -17.656  0.00  0.00    -0.069 OA
ATOM     14  O   UNL     1      29.087 -22.213 -17.065  0.00  0.00    -0.069 OA
ENDBRANCH  10  11
ENDBRANCH   9  10
ENDBRANCH   4   9
ENDBRANCH   3   4
ENDBRANCH   2   3
ENDBRANCH   1   2
BRANCH   1  15
ATOM     15  C   UNL     1      36.234 -23.656 -13.510  0.00  0.00    +0.047 C 
BRANCH  15  16
ATOM     16  C   UNL     1      36.649 -24.460 -12.265  0.00  0.00    -0.052 C 
BRANCH  16  17
ATOM     17  N   UNL     1      35.444 -25.071 -11.691  0.00  0.00    +0.382 N 
ATOM     18  H   UNL     1      35.264 -24.667 -10.772  0.00  0.00    -0.089 HD
ATOM     19  H   UNL     1      35.583 -26.077 -11.599  0.00  0.00    -0.089 HD
ATOM     20  H   UNL     1      34.647 -24.892 -12.302  0.00  0.00    -0.089 HD
ENDBRANCH  16  17
BRANCH  16  21
ATOM     21  C   UNL     1      37.684 -25.558 -12.574  0.00  0.00    +0.005 C 
BRANCH  21  22
ATOM     22  C   UNL     1      39.072 -25.004 -12.887  0.00  0.00    +0.156 C 
BRANCH  22  23
ATOM     23  S   UNL     1      39.599 -25.475 -14.505  0.00  0.00    +0.022 S 
ATOM     24  O   UNL     1      38.526 -26.682 -14.732  0.00  0.00    -0.069 OA
ATOM     25  O   UNL     1      40.931 -26.044 -14.417  0.00  0.00    -0.069 OA
ATOM     26  O   UNL     1      39.292 -24.398 -15.427  0.00  0.00    -0.069 OA
ENDBRANCH  22  23
ENDBRANCH  21  22
ENDBRANCH  16  21
ENDBRANCH  15  16
ENDBRANCH   1  15
TORSDOF 13
ENDMDL
MODEL 7
REMARK VINA RESULT:      -7.1      1.555      8.220
REMARK  Name = 24851355
REMARK  13 active torsions:
REMARK  status: ('A' for Active; 'I' for Inactive)
REMARK    1  A    between atoms: S_1  and  S_2
REMARK    2  A    between atoms: S_1  and  C_15
REMARK    3  A    between atoms: S_2  and  C_3
REMARK    4  A    between atoms: C_3  and  C_4
REMARK    5  A    between atoms: C_4  and  N_5
REMARK    6  A    between atoms: C_4  and  C_9
REMARK    7  A    between atoms: C_9  and  C_10
REMARK    8  A    between atoms: C_10  and  S_11
REMARK    9  A    between atoms: C_15  and  C_16
REMARK   10  A    between atoms: C_16  and  N_17
REMARK   11  A    between atoms: C_16  and  C_21
REMARK   12  A    between atoms: C_21  and  C_22
REMARK   13  A    between atoms: C_22  and  S_23
REMARK                            x       y       z     vdW  Elec       q    Type
REMARK                         _______ _______ _______ _____ _____    ______ ____
ROOT
ATOM      1  S   UNL     1      34.882 -24.070 -15.312  0.00  0.00    -0.084 S 
ENDROOT
BRANCH   1   2
ATOM      2  S   UNL     1      33.653 -24.063 -13.666  0.00  0.00    -0.084 S 
BRANCH   2   3
ATOM      3  C   UNL     1      32.237 -25.035 -14.269  0.00  0.00    +0.047 C 
BRANCH   3   4
ATOM      4  C   UNL     1      30.928 -24.229 -14.331  0.00  0.00    -0.052 C 
BRANCH   4   5
ATOM      5  N   UNL     1      31.269 -22.812 -14.517  0.00  0.00    +0.382 N 
ATOM      6  H   UNL     1      31.958 -22.534 -13.819  0.00  0.00    -0.089 HD
ATOM      7  H   UNL     1      30.429 -22.243 -14.412  0.00  0.00    -0.089 HD
ATOM      8  H   UNL     1      31.657 -22.676 -15.451  0.00  0.00    -0.089 HD
ENDBRANCH   4   5
BRANCH   4   9
ATOM      9  C   UNL     1      29.992 -24.685 -15.468  0.00  0.00    +0.005 C 
BRANCH   9  10
ATOM     10  C   UNL     1      28.609 -24.042 -15.397  0.00  0.00    +0.156 C 
BRANCH  10  11
ATOM     11  S   UNL     1      28.334 -22.966 -16.770  0.00  0.00    +0.022 S 
ATOM     12  O   UNL     1      27.440 -21.849 -15.986  0.00  0.00    -0.069 OA
ATOM     13  O   UNL     1      27.490 -23.644 -17.737  0.00  0.00    -0.069 OA
ATOM     14  O   UNL     1      29.599 -22.366 -17.153  0.00  0.00    -0.069 OA
ENDBRANCH  10  11
ENDBRANCH   9  10
ENDBRANCH   4   9
ENDBRANCH   3   4
ENDBRANCH   2   3
ENDBRANCH   1   2
BRANCH   1  15
ATOM     15  C   UNL     1      35.926 -25.511 -14.987  0.00  0.00    +0.047 C 
BRANCH  15  16
ATOM     16  C   UNL     1      37.431 -25.197 -15.034  0.00  0.00    -0.052 C 
BRANCH  16  17
ATOM     17  N   UNL     1      37.596 -23.815 -15.502  0.00  0.00    +0.382 N 
ATOM     18  H   UNL     1      37.731 -23.813 -16.513  0.00  0.00    -0.089 HD
ATOM     19  H   UNL     1      38.409 -23.396 -15.050  0.00  0.00    -0.089 HD
ATOM     20  H   UNL     1      36.763 -23.274 -15.270  0.00  0.00    -0.089 HD
ENDBRANCH  16  17
BRANCH  16  21
ATOM     21  C   UNL     1      38.125 -25.362 -13.669  0.00  0.00    +0.005 C 
BRANCH  21  22
ATOM     22  C   UNL     1      37.164 -25.238 -12.489  0.00  0.00    +0.156 C 
BRANCH  22  23
ATOM     23  S   UNL     1      37.431 -23.734 -11.602  0.00  0.00    +0.022 S 
ATOM     24  O   UNL     1      36.596 -22.751 -12.600  0.00  0.00    -0.069 OA
ATOM     25  O   UNL     1      38.839 -23.389 -11.677  0.00  0.00    -0.069 OA
ATOM     26  O   UNL     1      36.734 -23.813 -10.332  0.00  0.00    -0.069 OA
ENDBRANCH  22  23
ENDBRANCH  21  22
ENDBRANCH  16  21
ENDBRANCH  15  16
ENDBRANCH   1  15
TORSDOF 13
ENDMDL
MODEL 8
REMARK VINA RESULT:      -6.9      4.869      8.144
REMARK  Name = 24851355
REMARK  13 active torsions:
REMARK  status: ('A' for Active; 'I' for Inactive)
REMARK    1  A    between atoms: S_1  and  S_2
REMARK    2  A    between atoms: S_1  and  C_15
REMARK    3  A    between atoms: S_2  and  C_3
REMARK    4  A    between atoms: C_3  and  C_4
REMARK    5  A    between atoms: C_4  and  N_5
REMARK    6  A    between atoms: C_4  and  C_9
REMARK    7  A    between atoms: C_9  and  C_10
REMARK    8  A    between atoms: C_10  and  S_11
REMARK    9  A    between atoms: C_15  and  C_16
REMARK   10  A    between atoms: C_16  and  N_17
REMARK   11  A    between atoms: C_16  and  C_21
REMARK   12  A    between atoms: C_21  and  C_22
REMARK   13  A    between atoms: C_22  and  S_23
REMARK                            x       y       z     vdW  Elec       q    Type
REMARK                         _______ _______ _______ _____ _____    ______ ____
ROOT
ATOM      1  S   UNL     1      33.113 -23.103 -17.638  0.00  0.00    -0.084 S 
ENDROOT
BRANCH   1   2
ATOM      2  S   UNL     1      34.015 -23.437 -15.823  0.00  0.00    -0.084 S 
BRANCH   2   3
ATOM      3  C   UNL     1      32.636 -23.139 -14.674  0.00  0.00    +0.047 C 
BRANCH   3   4
ATOM      4  C   UNL     1      31.417 -24.040 -14.939  0.00  0.00    -0.052 C 
BRANCH   4   5
ATOM      5  N   UNL     1      31.381 -25.081 -13.902  0.00  0.00    +0.382 N 
ATOM      6  H   UNL     1      30.437 -25.147 -13.519  0.00  0.00    -0.089 HD
ATOM      7  H   UNL     1      32.035 -24.841 -13.157  0.00  0.00    -0.089 HD
ATOM      8  H   UNL     1      31.645 -25.977 -14.311  0.00  0.00    -0.089 HD
ENDBRANCH   4   5
BRANCH   4   9
ATOM      9  C   UNL     1      30.083 -23.268 -14.936  0.00  0.00    +0.005 C 
BRANCH   9  10
ATOM     10  C   UNL     1      28.915 -24.092 -15.470  0.00  0.00    +0.156 C 
BRANCH  10  11
ATOM     11  S   UNL     1      27.907 -23.139 -16.562  0.00  0.00    +0.022 S 
ATOM     12  O   UNL     1      29.016 -22.004 -16.938  0.00  0.00    -0.069 OA
ATOM     13  O   UNL     1      26.842 -22.516 -15.797  0.00  0.00    -0.069 OA
ATOM     14  O   UNL     1      27.628 -23.929 -17.748  0.00  0.00    -0.069 OA
ENDBRANCH  10  11
ENDBRANCH   9  10
ENDBRANCH   4   9
ENDBRANCH   3   4
ENDBRANCH   2   3
ENDBRANCH   1   2
BRANCH   1  15
ATOM     15  C   UNL     1      34.447 -22.317 -18.575  0.00  0.00    +0.047 C 
BRANCH  15  16
ATOM     16  C   UNL     1      33.949 -21.517 -19.791  0.00  0.00    -0.052 C 
BRANCH  16  17
ATOM     17  N   UNL     1      32.674 -20.883 -19.431  0.00  0.00    +0.382 N 
ATOM     18  H   UNL     1      31.914 -21.551 -19.560  0.00  0.00    -0.089 HD
ATOM     19  H   UNL     1      32.518 -20.070 -20.027  0.00  0.00    -0.089 HD
ATOM     20  H   UNL     1      32.704 -20.587 -18.456  0.00  0.00    -0.089 HD
ENDBRANCH  16  17
BRANCH  16  21
ATOM     21  C   UNL     1      34.947 -20.439 -20.253  0.00  0.00    +0.005 C 
BRANCH  21  22
ATOM     22  C   UNL     1      34.306 -19.365 -21.128  0.00  0.00    +0.156 C 
BRANCH  22  23
ATOM     23  S   UNL     1      35.447 -18.064 -21.483  0.00  0.00    +0.022 S 
ATOM     24  O   UNL     1      36.815 -18.892 -21.165  0.00  0.00    -0.069 OA
ATOM     25  O   UNL     1      35.291 -17.019 -20.488  0.00  0.00    -0.069 OA
ATOM     26  O   UNL     1      35.396 -17.775 -22.904  0.00  0.00    -0.069 OA
ENDBRANCH  22  23
ENDBRANCH  21  22
ENDBRANCH  16  21
ENDBRANCH  15  16
ENDBRANCH   1  15
TORSDOF 13
ENDMDL
MODEL 9
REMARK VINA RESULT:      -6.9      1.714      2.328
REMARK  Name = 24851355
REMARK  13 active torsions:
REMARK  status: ('A' for Active; 'I' for Inactive)
REMARK    1  A    between atoms: S_1  and  S_2
REMARK    2  A    between atoms: S_1  and  C_15
REMARK    3  A    between atoms: S_2  and  C_3
REMARK    4  A    between atoms: C_3  and  C_4
REMARK    5  A    between atoms: C_4  and  N_5
REMARK    6  A    between atoms: C_4  and  C_9
REMARK    7  A    between atoms: C_9  and  C_10
REMARK    8  A    between atoms: C_10  and  S_11
REMARK    9  A    between atoms: C_15  and  C_16
REMARK   10  A    between atoms: C_16  and  N_17
REMARK   11  A    between atoms: C_16  and  C_21
REMARK   12  A    between atoms: C_21  and  C_22
REMARK   13  A    between atoms: C_22  and  S_23
REMARK                            x       y       z     vdW  Elec       q    Type
REMARK                         _______ _______ _______ _____ _____    ______ ____
ROOT
ATOM      1  S   UNL     1      33.049 -23.839 -14.784  0.00  0.00    -0.084 S 
ENDROOT
BRANCH   1   2
ATOM      2  S   UNL     1      34.001 -23.400 -16.552  0.00  0.00    -0.084 S 
BRANCH   2   3
ATOM      3  C   UNL     1      35.482 -22.526 -15.956  0.00  0.00    +0.047 C 
BRANCH   3   4
ATOM      4  C   UNL     1      36.562 -23.467 -15.396  0.00  0.00    -0.052 C 
BRANCH   4   5
ATOM      5  N   UNL     1      37.848 -23.108 -16.010  0.00  0.00    +0.382 N 
ATOM      6  H   UNL     1      37.877 -23.462 -16.967  0.00  0.00    -0.089 HD
ATOM      7  H   UNL     1      38.609 -23.520 -15.472  0.00  0.00    -0.089 HD
ATOM      8  H   UNL     1      37.948 -22.093 -16.021  0.00  0.00    -0.089 HD
ENDBRANCH   4   5
BRANCH   4   9
ATOM      9  C   UNL     1      36.690 -23.395 -13.862  0.00  0.00    +0.005 C 
BRANCH   9  10
ATOM     10  C   UNL     1      36.335 -24.708 -13.169  0.00  0.00    +0.156 C 
BRANCH  10  11
ATOM     11  S   UNL     1      37.746 -25.412 -12.374  0.00  0.00    +0.022 S 
ATOM     12  O   UNL     1      36.988 -26.680 -11.683  0.00  0.00    -0.069 OA
ATOM     13  O   UNL     1      38.196 -24.510 -11.329  0.00  0.00    -0.069 OA
ATOM     14  O   UNL     1      38.655 -25.910 -13.391  0.00  0.00    -0.069 OA
ENDBRANCH  10  11
ENDBRANCH   9  10
ENDBRANCH   4   9
ENDBRANCH   3   4
ENDBRANCH   2   3
ENDBRANCH   1   2
BRANCH   1  15
ATOM     15  C   UNL     1      31.310 -23.642 -15.243  0.00  0.00    +0.047 C 
BRANCH  15  16
ATOM     16  C   UNL     1      30.413 -24.785 -14.737  0.00  0.00    -0.052 C 
BRANCH  16  17
ATOM     17  N   UNL     1      30.591 -24.897 -13.284  0.00  0.00    +0.382 N 
ATOM     18  H   UNL     1      30.698 -25.879 -13.030  0.00  0.00    -0.089 HD
ATOM     19  H   UNL     1      29.774 -24.511 -12.810  0.00  0.00    -0.089 HD
ATOM     20  H   UNL     1      31.423 -24.381 -13.001  0.00  0.00    -0.089 HD
ENDBRANCH  16  17
BRANCH  16  21
ATOM     21  C   UNL     1      28.922 -24.567 -15.057  0.00  0.00    +0.005 C 
BRANCH  21  22
ATOM     22  C   UNL     1      28.639 -24.462 -16.553  0.00  0.00    +0.156 C 
BRANCH  22  23
ATOM     23  S   UNL     1      27.925 -22.899 -16.960  0.00  0.00    +0.022 S 
ATOM     24  O   UNL     1      27.011 -22.730 -15.620  0.00  0.00    -0.069 OA
ATOM     25  O   UNL     1      27.049 -23.067 -18.105  0.00  0.00    -0.069 OA
ATOM     26  O   UNL     1      28.969 -21.892 -16.943  0.00  0.00    -0.069 OA
ENDBRANCH  22  23
ENDBRANCH  21  22
ENDBRANCH  16  21
ENDBRANCH  15  16
ENDBRANCH   1  15
TORSDOF 13
ENDMDL
