MODEL 1
REMARK VINA RESULT:      -9.3      0.000      0.000
REMARK  Name = 449035
REMARK  7 active torsions:
REMARK  status: ('A' for Active; 'I' for Inactive)
REMARK    1  A    between atoms: C_1  and  O_18
REMARK    2  A    between atoms: C_2  and  C_17
REMARK    3  A    between atoms: C_3  and  N_7
REMARK    4  A    between atoms: C_10  and  C_13
REMARK    5  A    between atoms: C_13  and  O_14
REMARK    6  A    between atoms: O_18  and  C_19
REMARK    7  A    between atoms: C_19  and  C_20
REMARK                            x       y       z     vdW  Elec       q    Type
REMARK                         _______ _______ _______ _____ _____    ______ ____
ROOT
ATOM      1  C   UNL     1      35.544 -23.596 -14.258  0.00  0.00    +0.148 C 
ATOM      2  C   UNL     1      34.660 -24.119 -13.320  0.00  0.00    +0.104 C 
ATOM      3  C   UNL     1      32.838 -23.805 -14.876  0.00  0.00    +0.075 C 
ATOM      4  C   UNL     1      35.085 -23.176 -15.503  0.00  0.00    +0.039 C 
ATOM      5  C   UNL     1      33.304 -24.224 -13.629  0.00  0.00    +0.030 C 
ATOM      6  C   UNL     1      33.729 -23.281 -15.812  0.00  0.00    +0.020 C 
ENDROOT
BRANCH   3   7
ATOM      7  N   UNL     1      31.494 -23.908 -15.183  0.00  0.00    -0.189 N 
ATOM      8  N   UNL     1      30.720 -24.847 -14.600  0.00  0.00    -0.172 NA
ATOM      9  C   UNL     1      30.807 -23.117 -16.067  0.00  0.00    +0.097 C 
ATOM     10  C   UNL     1      29.510 -23.570 -16.058  0.00  0.00    +0.113 C 
ATOM     11  C   UNL     1      29.516 -24.636 -15.137  0.00  0.00    +0.126 C 
BRANCH  10  13
ATOM     12  O   UNL     1      28.094 -21.846 -16.874  0.00  0.00    -0.245 OA
ATOM     13  C   UNL     1      28.429 -23.042 -16.832  0.00  0.00    +0.341 C 
BRANCH  13  14
ATOM     14  O   UNL     1      27.733 -23.968 -17.572  0.00  0.00    -0.477 OA
ATOM     15  H   UNL     1      27.798 -24.879 -17.362  0.00  0.00    +0.295 HD
ENDBRANCH  13  14
ENDBRANCH  10  13
ENDBRANCH   3   7
BRANCH   2  17
ATOM     16  N   UNL     1      35.491 -24.906 -10.996  0.00  0.00    -0.191 NA
ATOM     17  C   UNL     1      35.119 -24.554 -12.036  0.00  0.00    +0.104 C 
ENDBRANCH   2  17
BRANCH   1  18
ATOM     18  O   UNL     1      36.881 -23.482 -13.981  0.00  0.00    -0.475 OA
BRANCH  18  19
ATOM     19  C   UNL     1      37.782 -24.029 -14.936  0.00  0.00    +0.205 C 
BRANCH  19  20
ATOM     20  C   UNL     1      38.508 -25.266 -14.366  0.00  0.00    +0.040 C 
ATOM     21  C   UNL     1      37.700 -26.540 -14.665  0.00  0.00    +0.004 C 
ATOM     22  C   UNL     1      38.652 -25.103 -12.844  0.00  0.00    +0.004 C 
ATOM     23  C   UNL     1      39.904 -25.401 -14.996  0.00  0.00    +0.004 C 
ENDBRANCH  19  20
ENDBRANCH  18  19
ENDBRANCH   1  18
TORSDOF 7
ENDMDL
MODEL 2
REMARK VINA RESULT:      -8.9      9.465     11.691
REMARK  Name = 449035
REMARK  7 active torsions:
REMARK  status: ('A' for Active; 'I' for Inactive)
REMARK    1  A    between atoms: C_1  and  O_18
REMARK    2  A    between atoms: C_2  and  C_17
REMARK    3  A    between atoms: C_3  and  N_7
REMARK    4  A    between atoms: C_10  and  C_13
REMARK    5  A    between atoms: C_13  and  O_14
REMARK    6  A    between atoms: O_18  and  C_19
REMARK    7  A    between atoms: C_19  and  C_20
REMARK                            x       y       z     vdW  Elec       q    Type
REMARK                         _______ _______ _______ _____ _____    ______ ____
ROOT
ATOM      1  C   UNL     1      34.871 -16.051 -22.680  0.00  0.00    +0.148 C 
ATOM      2  C   UNL     1      34.843 -17.254 -23.379  0.00  0.00    +0.104 C 
ATOM      3  C   UNL     1      34.960 -18.460 -21.288  0.00  0.00    +0.075 C 
ATOM      4  C   UNL     1      34.944 -16.044 -21.291  0.00  0.00    +0.039 C 
ATOM      5  C   UNL     1      34.888 -18.461 -22.681  0.00  0.00    +0.030 C 
ATOM      6  C   UNL     1      34.988 -17.251 -20.593  0.00  0.00    +0.020 C 
ENDROOT
BRANCH   3   7
ATOM      7  N   UNL     1      35.005 -19.656 -20.596  0.00  0.00    -0.189 N 
ATOM      8  N   UNL     1      36.167 -20.117 -20.088  0.00  0.00    -0.172 NA
ATOM      9  C   UNL     1      33.942 -20.484 -20.347  0.00  0.00    +0.097 C 
ATOM     10  C   UNL     1      34.443 -21.547 -19.634  0.00  0.00    +0.113 C 
ATOM     11  C   UNL     1      35.816 -21.268 -19.505  0.00  0.00    +0.126 C 
BRANCH  10  13
ATOM     12  O   UNL     1      33.957 -23.858 -19.380  0.00  0.00    -0.245 OA
ATOM     13  C   UNL     1      33.691 -22.666 -19.154  0.00  0.00    +0.341 C 
BRANCH  13  14
ATOM     14  O   UNL     1      32.595 -22.348 -18.388  0.00  0.00    -0.477 OA
ATOM     15  H   UNL     1      32.307 -22.934 -17.717  0.00  0.00    +0.295 HD
ENDBRANCH  13  14
ENDBRANCH  10  13
ENDBRANCH   3   7
BRANCH   2  17
ATOM     16  N   UNL     1      34.710 -17.293 -25.966  0.00  0.00    -0.191 NA
ATOM     17  C   UNL     1      34.769 -17.276 -24.808  0.00  0.00    +0.104 C 
ENDBRANCH   2  17
BRANCH   1  18
ATOM     18  O   UNL     1      34.828 -14.851 -23.339  0.00  0.00    -0.475 OA
BRANCH  18  19
ATOM     19  C   UNL     1      34.253 -13.755 -22.639  0.00  0.00    +0.205 C 
BRANCH  19  20
ATOM     20  C   UNL     1      33.227 -13.013 -23.519  0.00  0.00    +0.040 C 
ATOM     21  C   UNL     1      33.859 -11.744 -24.117  0.00  0.00    +0.004 C 
ATOM     22  C   UNL     1      32.020 -12.616 -22.654  0.00  0.00    +0.004 C 
ATOM     23  C   UNL     1      32.753 -13.921 -24.666  0.00  0.00    +0.004 C 
ENDBRANCH  19  20
ENDBRANCH  18  19
ENDBRANCH   1  18
TORSDOF 7
ENDMDL
MODEL 3
REMARK VINA RESULT:      -8.7      1.493      2.455
REMARK  Name = 449035
REMARK  7 active torsions:
REMARK  status: ('A' for Active; 'I' for Inactive)
REMARK    1  A    between atoms: C_1  and  O_18
REMARK    2  A    between atoms: C_2  and  C_17
REMARK    3  A    between atoms: C_3  and  N_7
REMARK    4  A    between atoms: C_10  and  C_13
REMARK    5  A    between atoms: C_13  and  O_14
REMARK    6  A    between atoms: O_18  and  C_19
REMARK    7  A    between atoms: C_19  and  C_20
REMARK                            x       y       z     vdW  Elec       q    Type
REMARK                         _______ _______ _______ _____ _____    ______ ____
ROOT
ATOM      1  C   UNL     1      35.449 -23.480 -14.599  0.00  0.00    +0.148 C 
ATOM      2  C   UNL     1      34.952 -23.066 -15.831  0.00  0.00    +0.104 C 
ATOM      3  C   UNL     1      32.730 -23.718 -15.145  0.00  0.00    +0.075 C 
ATOM      4  C   UNL     1      34.595 -24.012 -13.638  0.00  0.00    +0.039 C 
ATOM      5  C   UNL     1      33.590 -23.186 -16.105  0.00  0.00    +0.030 C 
ATOM      6  C   UNL     1      33.232 -24.132 -13.911  0.00  0.00    +0.020 C 
ENDROOT
BRANCH   3   7
ATOM      7  N   UNL     1      31.378 -23.839 -15.416  0.00  0.00    -0.189 N 
ATOM      8  N   UNL     1      30.649 -24.830 -14.865  0.00  0.00    -0.172 NA
ATOM      9  C   UNL     1      30.644 -23.017 -16.230  0.00  0.00    +0.097 C 
ATOM     10  C   UNL     1      29.359 -23.504 -16.206  0.00  0.00    +0.113 C 
ATOM     11  C   UNL     1      29.422 -24.621 -15.351  0.00  0.00    +0.126 C 
BRANCH  10  13
ATOM     12  O   UNL     1      27.875 -21.774 -16.876  0.00  0.00    -0.245 OA
ATOM     13  C   UNL     1      28.241 -22.961 -16.915  0.00  0.00    +0.341 C 
BRANCH  13  14
ATOM     14  O   UNL     1      27.544 -23.862 -17.685  0.00  0.00    -0.477 OA
ATOM     15  H   UNL     1      27.993 -24.370 -18.331  0.00  0.00    +0.295 HD
ENDBRANCH  13  14
ENDBRANCH  10  13
ENDBRANCH   3   7
BRANCH   2  17
ATOM     16  N   UNL     1      36.523 -22.074 -17.637  0.00  0.00    -0.191 NA
ATOM     17  C   UNL     1      35.820 -22.518 -16.829  0.00  0.00    +0.104 C 
ENDBRANCH   2  17
BRANCH   1  18
ATOM     18  O   UNL     1      36.782 -23.374 -14.303  0.00  0.00    -0.475 OA
BRANCH  18  19
ATOM     19  C   UNL     1      37.602 -24.490 -14.628  0.00  0.00    +0.205 C 
BRANCH  19  20
ATOM     20  C   UNL     1      38.200 -25.126 -13.356  0.00  0.00    +0.040 C 
ATOM     21  C   UNL     1      38.212 -24.105 -12.206  0.00  0.00    +0.004 C 
ATOM     22  C   UNL     1      39.640 -25.573 -13.652  0.00  0.00    +0.004 C 
ATOM     23  C   UNL     1      37.367 -26.347 -12.930  0.00  0.00    +0.004 C 
ENDBRANCH  19  20
ENDBRANCH  18  19
ENDBRANCH   1  18
TORSDOF 7
ENDMDL
MODEL 4
REMARK VINA RESULT:      -8.6      2.336      8.101
REMARK  Name = 449035
REMARK  7 active torsions:
REMARK  status: ('A' for Active; 'I' for Inactive)
REMARK    1  A    between atoms: C_1  and  O_18
REMARK    2  A    between atoms: C_2  and  C_17
REMARK    3  A    between atoms: C_3  and  N_7
REMARK    4  A    between atoms: C_10  and  C_13
REMARK    5  A    between atoms: C_13  and  O_14
REMARK    6  A    between atoms: O_18  and  C_19
REMARK    7  A    between atoms: C_19  and  C_20
REMARK                            x       y       z     vdW  Elec       q    Type
REMARK                         _______ _______ _______ _____ _____    ______ ____
ROOT
ATOM      1  C   UNL     1      32.875 -23.461 -15.283  0.00  0.00    +0.148 C 
ATOM      2  C   UNL     1      33.904 -23.507 -16.219  0.00  0.00    +0.104 C 
ATOM      3  C   UNL     1      35.381 -24.418 -14.538  0.00  0.00    +0.075 C 
ATOM      4  C   UNL     1      33.091 -23.890 -13.977  0.00  0.00    +0.039 C 
ATOM      5  C   UNL     1      35.159 -23.986 -15.846  0.00  0.00    +0.030 C 
ATOM      6  C   UNL     1      34.347 -24.369 -13.603  0.00  0.00    +0.020 C 
ENDROOT
BRANCH   3   7
ATOM      7  N   UNL     1      36.626 -24.892 -14.167  0.00  0.00    -0.189 N 
ATOM      8  N   UNL     1      36.886 -25.222 -12.885  0.00  0.00    -0.172 NA
ATOM      9  C   UNL     1      37.698 -25.079 -14.999  0.00  0.00    +0.097 C 
ATOM     10  C   UNL     1      38.716 -25.559 -14.211  0.00  0.00    +0.113 C 
ATOM     11  C   UNL     1      38.159 -25.627 -12.920  0.00  0.00    +0.126 C 
BRANCH  10  13
ATOM     12  O   UNL     1      40.953 -26.305 -13.923  0.00  0.00    -0.245 OA
ATOM     13  C   UNL     1      40.033 -25.900 -14.654  0.00  0.00    +0.341 C 
BRANCH  13  14
ATOM     14  O   UNL     1      40.253 -25.748 -16.002  0.00  0.00    -0.477 OA
ATOM     15  H   UNL     1      40.251 -24.893 -16.383  0.00  0.00    +0.295 HD
ENDBRANCH  13  14
ENDBRANCH  10  13
ENDBRANCH   3   7
BRANCH   2  17
ATOM     16  N   UNL     1      33.525 -22.712 -18.656  0.00  0.00    -0.191 NA
ATOM     17  C   UNL     1      33.695 -23.068 -17.565  0.00  0.00    +0.104 C 
ENDBRANCH   2  17
BRANCH   1  18
ATOM     18  O   UNL     1      31.632 -22.996 -15.622  0.00  0.00    -0.475 OA
BRANCH  18  19
ATOM     19  C   UNL     1      30.749 -23.921 -16.244  0.00  0.00    +0.205 C 
BRANCH  19  20
ATOM     20  C   UNL     1      29.313 -23.767 -15.701  0.00  0.00    +0.040 C 
ATOM     21  C   UNL     1      29.169 -22.433 -14.950  0.00  0.00    +0.004 C 
ATOM     22  C   UNL     1      29.017 -24.926 -14.736  0.00  0.00    +0.004 C 
ATOM     23  C   UNL     1      28.300 -23.799 -16.858  0.00  0.00    +0.004 C 
ENDBRANCH  19  20
ENDBRANCH  18  19
ENDBRANCH   1  18
TORSDOF 7
ENDMDL
MODEL 5
REMARK VINA RESULT:      -8.4     11.852     13.392
REMARK  Name = 449035
REMARK  7 active torsions:
REMARK  status: ('A' for Active; 'I' for Inactive)
REMARK    1  A    between atoms: C_1  and  O_18
REMARK    2  A    between atoms: C_2  and  C_17
REMARK    3  A    between atoms: C_3  and  N_7
REMARK    4  A    between atoms: C_10  and  C_13
REMARK    5  A    between atoms: C_13  and  O_14
REMARK    6  A    between atoms: O_18  and  C_19
REMARK    7  A    between atoms: C_19  and  C_20
REMARK                            x       y       z     vdW  Elec       q    Type
REMARK                         _______ _______ _______ _____ _____    ______ ____
ROOT
ATOM      1  C   UNL     1      34.191 -15.876 -22.359  0.00  0.00    +0.148 C 
ATOM      2  C   UNL     1      33.825 -15.279 -23.561  0.00  0.00    +0.104 C 
ATOM      3  C   UNL     1      32.937 -13.391 -22.343  0.00  0.00    +0.075 C 
ATOM      4  C   UNL     1      33.934 -15.240 -21.148  0.00  0.00    +0.039 C 
ATOM      5  C   UNL     1      33.196 -14.034 -23.553  0.00  0.00    +0.030 C 
ATOM      6  C   UNL     1      33.306 -13.994 -21.140  0.00  0.00    +0.020 C 
ENDROOT
BRANCH   3   7
ATOM      7  N   UNL     1      32.313 -12.157 -22.333  0.00  0.00    -0.189 N 
ATOM      8  N   UNL     1      31.248 -11.927 -21.537  0.00  0.00    -0.172 NA
ATOM      9  C   UNL     1      32.669 -11.068 -23.084  0.00  0.00    +0.097 C 
ATOM     10  C   UNL     1      31.783 -10.070 -22.757  0.00  0.00    +0.113 C 
ATOM     11  C   UNL     1      30.931 -10.656 -21.801  0.00  0.00    +0.126 C 
BRANCH  10  13
ATOM     12  O   UNL     1      30.752  -8.064 -23.501  0.00  0.00    -0.245 OA
ATOM     13  C   UNL     1      31.771  -8.746 -23.298  0.00  0.00    +0.341 C 
BRANCH  13  14
ATOM     14  O   UNL     1      33.007  -8.229 -23.604  0.00  0.00    -0.477 OA
ATOM     15  H   UNL     1      33.133  -7.301 -23.631  0.00  0.00    +0.295 HD
ENDBRANCH  13  14
ENDBRANCH  10  13
ENDBRANCH   3   7
BRANCH   2  17
ATOM     16  N   UNL     1      34.291 -16.445 -25.827  0.00  0.00    -0.191 NA
ATOM     17  C   UNL     1      34.082 -15.923 -24.813  0.00  0.00    +0.104 C 
ENDBRANCH   2  17
BRANCH   1  18
ATOM     18  O   UNL     1      34.810 -17.098 -22.337  0.00  0.00    -0.475 OA
BRANCH  18  19
ATOM     19  C   UNL     1      34.771 -17.815 -21.109  0.00  0.00    +0.205 C 
BRANCH  19  20
ATOM     20  C   UNL     1      34.583 -19.326 -21.356  0.00  0.00    +0.040 C 
ATOM     21  C   UNL     1      35.669 -20.124 -20.615  0.00  0.00    +0.004 C 
ATOM     22  C   UNL     1      34.692 -19.603 -22.864  0.00  0.00    +0.004 C 
ATOM     23  C   UNL     1      33.202 -19.779 -20.856  0.00  0.00    +0.004 C 
ENDBRANCH  19  20
ENDBRANCH  18  19
ENDBRANCH   1  18
TORSDOF 7
ENDMDL
MODEL 6
REMARK VINA RESULT:      -8.4     13.974     15.977
REMARK  Name = 449035
REMARK  7 active torsions:
REMARK  status: ('A' for Active; 'I' for Inactive)
REMARK    1  A    between atoms: C_1  and  O_18
REMARK    2  A    between atoms: C_2  and  C_17
REMARK    3  A    between atoms: C_3  and  N_7
REMARK    4  A    between atoms: C_10  and  C_13
REMARK    5  A    between atoms: C_13  and  O_14
REMARK    6  A    between atoms: O_18  and  C_19
REMARK    7  A    between atoms: C_19  and  C_20
REMARK                            x       y       z     vdW  Elec       q    Type
REMARK                         _______ _______ _______ _____ _____    ______ ____
ROOT
ATOM      1  C   UNL     1      32.702 -10.693 -23.182  0.00  0.00    +0.148 C 
ATOM      2  C   UNL     1      32.171 -11.760 -22.464  0.00  0.00    +0.104 C 
ATOM      3  C   UNL     1      33.379 -13.302 -23.876  0.00  0.00    +0.075 C 
ATOM      4  C   UNL     1      33.570 -10.922 -24.246  0.00  0.00    +0.039 C 
ATOM      5  C   UNL     1      32.510 -13.067 -22.812  0.00  0.00    +0.030 C 
ATOM      6  C   UNL     1      33.909 -12.230 -24.594  0.00  0.00    +0.020 C 
ENDROOT
BRANCH   3   7
ATOM      7  N   UNL     1      33.716 -14.598 -24.223  0.00  0.00    -0.189 N 
ATOM      8  N   UNL     1      33.415 -15.088 -25.444  0.00  0.00    -0.172 NA
ATOM      9  C   UNL     1      34.360 -15.505 -23.423  0.00  0.00    +0.097 C 
ATOM     10  C   UNL     1      34.486 -16.652 -24.168  0.00  0.00    +0.113 C 
ATOM     11  C   UNL     1      33.886 -16.337 -25.402  0.00  0.00    +0.126 C 
BRANCH  10  13
ATOM     12  O   UNL     1      34.721 -19.014 -24.052  0.00  0.00    -0.245 OA
ATOM     13  C   UNL     1      35.098 -17.872 -23.738  0.00  0.00    +0.341 C 
BRANCH  13  14
ATOM     14  O   UNL     1      36.185 -17.719 -22.911  0.00  0.00    -0.477 OA
ATOM     15  H   UNL     1      36.483 -16.861 -22.683  0.00  0.00    +0.295 HD
ENDBRANCH  13  14
ENDBRANCH  10  13
ENDBRANCH   3   7
BRANCH   2  17
ATOM     16  N   UNL     1      30.552 -11.358 -20.481  0.00  0.00    -0.191 NA
ATOM     17  C   UNL     1      31.277 -11.538 -21.368  0.00  0.00    +0.104 C 
ENDBRANCH   2  17
BRANCH   1  18
ATOM     18  O   UNL     1      32.387  -9.399 -22.862  0.00  0.00    -0.475 OA
BRANCH  18  19
ATOM     19  C   UNL     1      32.420  -8.451 -23.922  0.00  0.00    +0.205 C 
BRANCH  19  20
ATOM     20  C   UNL     1      33.199  -7.185 -23.508  0.00  0.00    +0.040 C 
ATOM     21  C   UNL     1      34.698  -7.503 -23.375  0.00  0.00    +0.004 C 
ATOM     22  C   UNL     1      32.665  -6.691 -22.154  0.00  0.00    +0.004 C 
ATOM     23  C   UNL     1      33.015  -6.079 -24.560  0.00  0.00    +0.004 C 
ENDBRANCH  19  20
ENDBRANCH  18  19
ENDBRANCH   1  18
TORSDOF 7
ENDMDL
MODEL 7
REMARK VINA RESULT:      -8.3      2.318      8.109
REMARK  Name = 449035
REMARK  7 active torsions:
REMARK  status: ('A' for Active; 'I' for Inactive)
REMARK    1  A    between atoms: C_1  and  O_18
REMARK    2  A    between atoms: C_2  and  C_17
REMARK    3  A    between atoms: C_3  and  N_7
REMARK    4  A    between atoms: C_10  and  C_13
REMARK    5  A    between atoms: C_13  and  O_14
REMARK    6  A    between atoms: O_18  and  C_19
REMARK    7  A    between atoms: C_19  and  C_20
REMARK                            x       y       z     vdW  Elec       q    Type
REMARK                         _______ _______ _______ _____ _____    ______ ____
ROOT
ATOM      1  C   UNL     1      31.906 -23.096 -16.465  0.00  0.00    +0.148 C 
ATOM      2  C   UNL     1      33.081 -22.901 -17.184  0.00  0.00    +0.104 C 
ATOM      3  C   UNL     1      34.363 -23.631 -15.270  0.00  0.00    +0.075 C 
ATOM      4  C   UNL     1      31.951 -23.556 -15.152  0.00  0.00    +0.039 C 
ATOM      5  C   UNL     1      34.312 -23.169 -16.585  0.00  0.00    +0.030 C 
ATOM      6  C   UNL     1      33.182 -23.824 -14.553  0.00  0.00    +0.020 C 
ENDROOT
BRANCH   3   7
ATOM      7  N   UNL     1      35.583 -23.896 -14.675  0.00  0.00    -0.189 N 
ATOM      8  N   UNL     1      36.558 -24.537 -15.353  0.00  0.00    -0.172 NA
ATOM      9  C   UNL     1      35.945 -23.563 -13.397  0.00  0.00    +0.097 C 
ATOM     10  C   UNL     1      37.232 -24.016 -13.233  0.00  0.00    +0.113 C 
ATOM     11  C   UNL     1      37.557 -24.606 -14.469  0.00  0.00    +0.126 C 
BRANCH  10  13
ATOM     12  O   UNL     1      38.560 -22.842 -11.651  0.00  0.00    -0.245 OA
ATOM     13  C   UNL     1      38.023 -23.890 -12.047  0.00  0.00    +0.341 C 
BRANCH  13  14
ATOM     14  O   UNL     1      38.175 -25.047 -11.322  0.00  0.00    -0.477 OA
ATOM     15  H   UNL     1      38.813 -25.682 -11.581  0.00  0.00    +0.295 HD
ENDBRANCH  13  14
ENDBRANCH  10  13
ENDBRANCH   3   7
BRANCH   2  17
ATOM     16  N   UNL     1      33.024 -22.044 -19.628  0.00  0.00    -0.191 NA
ATOM     17  C   UNL     1      33.049 -22.428 -18.534  0.00  0.00    +0.104 C 
ENDBRANCH   2  17
BRANCH   1  18
ATOM     18  O   UNL     1      30.683 -22.841 -17.028  0.00  0.00    -0.475 OA
BRANCH  18  19
ATOM     19  C   UNL     1      29.701 -22.249 -16.187  0.00  0.00    +0.205 C 
BRANCH  19  20
ATOM     20  C   UNL     1      28.414 -23.099 -16.155  0.00  0.00    +0.040 C 
ATOM     21  C   UNL     1      28.635 -24.367 -15.313  0.00  0.00    +0.004 C 
ATOM     22  C   UNL     1      28.047 -23.503 -17.592  0.00  0.00    +0.004 C 
ATOM     23  C   UNL     1      27.257 -22.290 -15.544  0.00  0.00    +0.004 C 
ENDBRANCH  19  20
ENDBRANCH  18  19
ENDBRANCH   1  18
TORSDOF 7
ENDMDL
MODEL 8
REMARK VINA RESULT:      -8.3      2.003      7.835
REMARK  Name = 449035
REMARK  7 active torsions:
REMARK  status: ('A' for Active; 'I' for Inactive)
REMARK    1  A    between atoms: C_1  and  O_18
REMARK    2  A    between atoms: C_2  and  C_17
REMARK    3  A    between atoms: C_3  and  N_7
REMARK    4  A    between atoms: C_10  and  C_13
REMARK    5  A    between atoms: C_13  and  O_14
REMARK    6  A    between atoms: O_18  and  C_19
REMARK    7  A    between atoms: C_19  and  C_20
REMARK                            x       y       z     vdW  Elec       q    Type
REMARK                         _______ _______ _______ _____ _____    ______ ____
ROOT
ATOM      1  C   UNL     1      32.671 -23.297 -15.582  0.00  0.00    +0.148 C 
ATOM      2  C   UNL     1      32.843 -23.920 -14.350  0.00  0.00    +0.104 C 
ATOM      3  C   UNL     1      35.188 -24.229 -14.845  0.00  0.00    +0.075 C 
ATOM      4  C   UNL     1      33.748 -23.137 -16.449  0.00  0.00    +0.039 C 
ATOM      5  C   UNL     1      34.104 -24.387 -13.981  0.00  0.00    +0.030 C 
ATOM      6  C   UNL     1      35.009 -23.604 -16.080  0.00  0.00    +0.020 C 
ENDROOT
BRANCH   3   7
ATOM      7  N   UNL     1      36.439 -24.694 -14.481  0.00  0.00    -0.189 N 
ATOM      8  N   UNL     1      36.617 -25.362 -13.322  0.00  0.00    -0.172 NA
ATOM      9  C   UNL     1      37.594 -24.547 -15.202  0.00  0.00    +0.097 C 
ATOM     10  C   UNL     1      38.583 -25.157 -14.469  0.00  0.00    +0.113 C 
ATOM     11  C   UNL     1      37.924 -25.640 -13.322  0.00  0.00    +0.126 C 
BRANCH  10  13
ATOM     12  O   UNL     1      40.916 -24.832 -14.154  0.00  0.00    -0.245 OA
ATOM     13  C   UNL     1      39.963 -25.251 -14.834  0.00  0.00    +0.341 C 
BRANCH  13  14
ATOM     14  O   UNL     1      40.208 -25.859 -16.042  0.00  0.00    -0.477 OA
ATOM     15  H   UNL     1      40.660 -25.394 -16.718  0.00  0.00    +0.295 HD
ENDBRANCH  13  14
ENDBRANCH  10  13
ENDBRANCH   3   7
BRANCH   2  17
ATOM     16  N   UNL     1      30.853 -24.230 -12.721  0.00  0.00    -0.191 NA
ATOM     17  C   UNL     1      31.744 -24.091 -13.450  0.00  0.00    +0.104 C 
ENDBRANCH   2  17
BRANCH   1  18
ATOM     18  O   UNL     1      31.444 -22.827 -15.970  0.00  0.00    -0.475 OA
BRANCH  18  19
ATOM     19  C   UNL     1      30.559 -23.766 -16.569  0.00  0.00    +0.205 C 
BRANCH  19  20
ATOM     20  C   UNL     1      29.112 -23.555 -16.076  0.00  0.00    +0.040 C 
ATOM     21  C   UNL     1      29.031 -22.302 -15.187  0.00  0.00    +0.004 C 
ATOM     22  C   UNL     1      28.678 -24.783 -15.261  0.00  0.00    +0.004 C 
ATOM     23  C   UNL     1      28.162 -23.379 -17.272  0.00  0.00    +0.004 C 
ENDBRANCH  19  20
ENDBRANCH  18  19
ENDBRANCH   1  18
TORSDOF 7
ENDMDL
MODEL 9
REMARK VINA RESULT:      -8.2      6.483      7.779
REMARK  Name = 449035
REMARK  7 active torsions:
REMARK  status: ('A' for Active; 'I' for Inactive)
REMARK    1  A    between atoms: C_1  and  O_18
REMARK    2  A    between atoms: C_2  and  C_17
REMARK    3  A    between atoms: C_3  and  N_7
REMARK    4  A    between atoms: C_10  and  C_13
REMARK    5  A    between atoms: C_13  and  O_14
REMARK    6  A    between atoms: O_18  and  C_19
REMARK    7  A    between atoms: C_19  and  C_20
REMARK                            x       y       z     vdW  Elec       q    Type
REMARK                         _______ _______ _______ _____ _____    ______ ____
ROOT
ATOM      1  C   UNL     1      35.470 -22.074 -18.415  0.00  0.00    +0.148 C 
ATOM      2  C   UNL     1      34.217 -21.687 -18.883  0.00  0.00    +0.104 C 
ATOM      3  C   UNL     1      35.272 -20.124 -20.392  0.00  0.00    +0.075 C 
ATOM      4  C   UNL     1      36.625 -21.492 -18.930  0.00  0.00    +0.039 C 
ATOM      5  C   UNL     1      34.119 -20.711 -19.873  0.00  0.00    +0.030 C 
ATOM      6  C   UNL     1      36.526 -20.514 -19.920  0.00  0.00    +0.020 C 
ENDROOT
BRANCH   3   7
ATOM      7  N   UNL     1      35.176 -19.154 -21.374  0.00  0.00    -0.189 N 
ATOM      8  N   UNL     1      35.373 -17.852 -21.081  0.00  0.00    -0.172 NA
ATOM      9  C   UNL     1      34.884 -19.371 -22.695  0.00  0.00    +0.097 C 
ATOM     10  C   UNL     1      34.893 -18.136 -23.297  0.00  0.00    +0.113 C 
ATOM     11  C   UNL     1      35.199 -17.240 -22.255  0.00  0.00    +0.126 C 
BRANCH  10  13
ATOM     12  O   UNL     1      33.891 -18.544 -25.412  0.00  0.00    -0.245 OA
ATOM     13  C   UNL     1      34.639 -17.873 -24.680  0.00  0.00    +0.341 C 
BRANCH  13  14
ATOM     14  O   UNL     1      35.297 -16.784 -25.198  0.00  0.00    -0.477 OA
ATOM     15  H   UNL     1      36.056 -16.906 -25.733  0.00  0.00    +0.295 HD
ENDBRANCH  13  14
ENDBRANCH  10  13
ENDBRANCH   3   7
BRANCH   2  17
ATOM     16  N   UNL     1      32.054 -22.756 -17.939  0.00  0.00    -0.191 NA
ATOM     17  C   UNL     1      33.022 -22.278 -18.362  0.00  0.00    +0.104 C 
ENDBRANCH   2  17
BRANCH   1  18
ATOM     18  O   UNL     1      35.597 -23.031 -17.444  0.00  0.00    -0.475 OA
BRANCH  18  19
ATOM     19  C   UNL     1      36.099 -22.603 -16.184  0.00  0.00    +0.205 C 
BRANCH  19  20
ATOM     20  C   UNL     1      35.567 -23.496 -15.044  0.00  0.00    +0.040 C 
ATOM     21  C   UNL     1      35.840 -24.977 -15.358  0.00  0.00    +0.004 C 
ATOM     22  C   UNL     1      34.052 -23.279 -14.905  0.00  0.00    +0.004 C 
ATOM     23  C   UNL     1      36.255 -23.133 -13.718  0.00  0.00    +0.004 C 
ENDBRANCH  19  20
ENDBRANCH  18  19
ENDBRANCH   1  18
TORSDOF 7
ENDMDL
