MODEL 1
REMARK VINA RESULT:      -5.4      0.000      0.000
REMARK  Name = 61948
REMARK  5 active torsions:
REMARK  status: ('A' for Active; 'I' for Inactive)
REMARK    1  A    between atoms: C_2  and  C_4
REMARK    2  A    between atoms: C_2  and  C_6
REMARK    3  A    between atoms: C_2  and  C_7
REMARK    4  A    between atoms: C_7  and  C_8
REMARK    5  A    between atoms: C_8  and  C_10
REMARK                            x       y       z     vdW  Elec       q    Type
REMARK                         _______ _______ _______ _____ _____    ______ ____
ROOT
ATOM      1 BR   UNL     1      33.816 -19.607 -21.317  0.00  0.00    -0.066 Br
ATOM      2  C   UNL     1      35.457 -18.495 -21.555  0.00  0.00    +0.138 C 
ENDROOT
BRANCH   2   4
ATOM      3 BR   UNL     1      35.960 -20.947 -20.043  0.00  0.00    -0.079 Br
ATOM      4  C   UNL     1      36.527 -19.199 -20.706  0.00  0.00    +0.092 C 
ENDBRANCH   2   4
BRANCH   2   6
ATOM      5  N   UNL     1      34.918 -16.089 -20.624  0.00  0.00    -0.195 NA
ATOM      6  C   UNL     1      35.154 -17.151 -21.033  0.00  0.00    +0.083 C 
ENDBRANCH   2   6
BRANCH   2   7
ATOM      7  C   UNL     1      35.810 -18.483 -23.061  0.00  0.00    +0.042 C 
BRANCH   7   8
ATOM      8  C   UNL     1      34.639 -18.720 -24.030  0.00  0.00    +0.107 C 
BRANCH   8  10
ATOM      9  N   UNL     1      34.492 -16.781 -25.804  0.00  0.00    -0.196 NA
ATOM     10  C   UNL     1      34.557 -17.634 -25.021  0.00  0.00    +0.073 C 
ENDBRANCH   8  10
ENDBRANCH   7   8
ENDBRANCH   2   7
TORSDOF 5
ENDMDL
MODEL 2
REMARK VINA RESULT:      -5.2      1.817      2.188
REMARK  Name = 61948
REMARK  5 active torsions:
REMARK  status: ('A' for Active; 'I' for Inactive)
REMARK    1  A    between atoms: C_2  and  C_4
REMARK    2  A    between atoms: C_2  and  C_6
REMARK    3  A    between atoms: C_2  and  C_7
REMARK    4  A    between atoms: C_7  and  C_8
REMARK    5  A    between atoms: C_8  and  C_10
REMARK                            x       y       z     vdW  Elec       q    Type
REMARK                         _______ _______ _______ _____ _____    ______ ____
ROOT
ATOM      1 BR   UNL     1      34.674 -16.900 -21.052  0.00  0.00    -0.066 Br
ATOM      2  C   UNL     1      35.084 -18.723 -21.759  0.00  0.00    +0.138 C 
ENDROOT
BRANCH   2   4
ATOM      3 BR   UNL     1      33.407 -20.519 -20.173  0.00  0.00    -0.079 Br
ATOM      4  C   UNL     1      33.728 -19.445 -21.774  0.00  0.00    +0.092 C 
ENDBRANCH   2   4
BRANCH   2   6
ATOM      5  N   UNL     1      36.764 -19.855 -20.075  0.00  0.00    -0.195 NA
ATOM      6  C   UNL     1      36.021 -19.357 -20.816  0.00  0.00    +0.083 C 
ENDBRANCH   2   6
BRANCH   2   7
ATOM      7  C   UNL     1      35.683 -18.560 -23.176  0.00  0.00    +0.042 C 
BRANCH   7   8
ATOM      8  C   UNL     1      34.716 -18.797 -24.349  0.00  0.00    +0.107 C 
BRANCH   8  10
ATOM      9  N   UNL     1      34.452 -16.612 -25.793  0.00  0.00    -0.196 NA
ATOM     10  C   UNL     1      34.569 -17.575 -25.156  0.00  0.00    +0.073 C 
ENDBRANCH   8  10
ENDBRANCH   7   8
ENDBRANCH   2   7
TORSDOF 5
ENDMDL
MODEL 3
REMARK VINA RESULT:      -5.1     10.721     11.957
REMARK  Name = 61948
REMARK  5 active torsions:
REMARK  status: ('A' for Active; 'I' for Inactive)
REMARK    1  A    between atoms: C_2  and  C_4
REMARK    2  A    between atoms: C_2  and  C_6
REMARK    3  A    between atoms: C_2  and  C_7
REMARK    4  A    between atoms: C_7  and  C_8
REMARK    5  A    between atoms: C_8  and  C_10
REMARK                            x       y       z     vdW  Elec       q    Type
REMARK                         _______ _______ _______ _____ _____    ______ ____
ROOT
ATOM      1 BR   UNL     1      37.413 -23.313 -15.440  0.00  0.00    -0.066 Br
ATOM      2  C   UNL     1      37.055 -24.883 -14.258  0.00  0.00    +0.138 C 
ENDROOT
BRANCH   2   4
ATOM      3 BR   UNL     1      39.889 -25.465 -14.681  0.00  0.00    -0.079 Br
ATOM      4  C   UNL     1      38.373 -25.106 -13.502  0.00  0.00    +0.092 C 
ENDBRANCH   2   4
BRANCH   2   6
ATOM      5  N   UNL     1      36.485 -26.924 -15.824  0.00  0.00    -0.195 NA
ATOM      6  C   UNL     1      36.735 -26.025 -15.132  0.00  0.00    +0.083 C 
ENDBRANCH   2   6
BRANCH   2   7
ATOM      7  C   UNL     1      35.887 -24.511 -13.315  0.00  0.00    +0.042 C 
BRANCH   7   8
ATOM      8  C   UNL     1      36.233 -23.561 -12.155  0.00  0.00    +0.107 C 
BRANCH   8  10
ATOM      9  N   UNL     1      35.442 -24.575  -9.859  0.00  0.00    -0.196 NA
ATOM     10  C   UNL     1      35.791 -24.127 -10.870  0.00  0.00    +0.073 C 
ENDBRANCH   8  10
ENDBRANCH   7   8
ENDBRANCH   2   7
TORSDOF 5
ENDMDL
MODEL 4
REMARK VINA RESULT:      -5.1      2.816      4.133
REMARK  Name = 61948
REMARK  5 active torsions:
REMARK  status: ('A' for Active; 'I' for Inactive)
REMARK    1  A    between atoms: C_2  and  C_4
REMARK    2  A    between atoms: C_2  and  C_6
REMARK    3  A    between atoms: C_2  and  C_7
REMARK    4  A    between atoms: C_7  and  C_8
REMARK    5  A    between atoms: C_8  and  C_10
REMARK                            x       y       z     vdW  Elec       q    Type
REMARK                         _______ _______ _______ _____ _____    ______ ____
ROOT
ATOM      1 BR   UNL     1      36.678 -19.539 -20.697  0.00  0.00    -0.066 Br
ATOM      2  C   UNL     1      35.319 -18.553 -21.779  0.00  0.00    +0.138 C 
ENDROOT
BRANCH   2   4
ATOM      3 BR   UNL     1      34.737 -17.805 -24.545  0.00  0.00    -0.079 Br
ATOM      4  C   UNL     1      35.988 -18.350 -23.146  0.00  0.00    +0.092 C 
ENDBRANCH   2   4
BRANCH   2   6
ATOM      5  N   UNL     1      34.876 -16.251 -20.575  0.00  0.00    -0.195 NA
ATOM      6  C   UNL     1      35.072 -17.267 -21.104  0.00  0.00    +0.083 C 
ENDBRANCH   2   6
BRANCH   2   7
ATOM      7  C   UNL     1      34.050 -19.434 -21.865  0.00  0.00    +0.042 C 
BRANCH   7   8
ATOM      8  C   UNL     1      33.173 -19.478 -20.602  0.00  0.00    +0.107 C 
BRANCH   8  10
ATOM      9  N   UNL     1      33.075 -21.919 -19.623  0.00  0.00    -0.196 NA
ATOM     10  C   UNL     1      33.118 -20.844 -20.056  0.00  0.00    +0.073 C 
ENDBRANCH   8  10
ENDBRANCH   7   8
ENDBRANCH   2   7
TORSDOF 5
ENDMDL
MODEL 5
REMARK VINA RESULT:      -5.0     10.419     12.060
REMARK  Name = 61948
REMARK  5 active torsions:
REMARK  status: ('A' for Active; 'I' for Inactive)
REMARK    1  A    between atoms: C_2  and  C_4
REMARK    2  A    between atoms: C_2  and  C_6
REMARK    3  A    between atoms: C_2  and  C_7
REMARK    4  A    between atoms: C_7  and  C_8
REMARK    5  A    between atoms: C_8  and  C_10
REMARK                            x       y       z     vdW  Elec       q    Type
REMARK                         _______ _______ _______ _____ _____    ______ ____
ROOT
ATOM      1 BR   UNL     1      36.880 -26.626 -15.000  0.00  0.00    -0.066 Br
ATOM      2  C   UNL     1      38.203 -25.306 -14.294  0.00  0.00    +0.138 C 
ENDROOT
BRANCH   2   4
ATOM      3 BR   UNL     1      35.801 -23.950 -15.266  0.00  0.00    -0.079 Br
ATOM      4  C   UNL     1      37.698 -23.946 -14.801  0.00  0.00    +0.092 C 
ENDBRANCH   2   4
BRANCH   2   6
ATOM      5  N   UNL     1      40.546 -25.915 -15.333  0.00  0.00    -0.195 NA
ATOM      6  C   UNL     1      39.513 -25.645 -14.877  0.00  0.00    +0.083 C 
ENDBRANCH   2   6
BRANCH   2   7
ATOM      7  C   UNL     1      38.194 -25.403 -12.751  0.00  0.00    +0.042 C 
BRANCH   7   8
ATOM      8  C   UNL     1      37.562 -24.216 -12.004  0.00  0.00    +0.107 C 
BRANCH   8  10
ATOM      9  N   UNL     1      35.319 -24.941 -10.833  0.00  0.00    -0.196 NA
ATOM     10  C   UNL     1      36.308 -24.622 -11.349  0.00  0.00    +0.073 C 
ENDBRANCH   8  10
ENDBRANCH   7   8
ENDBRANCH   2   7
TORSDOF 5
ENDMDL
MODEL 6
REMARK VINA RESULT:      -4.9      3.427      4.642
REMARK  Name = 61948
REMARK  5 active torsions:
REMARK  status: ('A' for Active; 'I' for Inactive)
REMARK    1  A    between atoms: C_2  and  C_4
REMARK    2  A    between atoms: C_2  and  C_6
REMARK    3  A    between atoms: C_2  and  C_7
REMARK    4  A    between atoms: C_7  and  C_8
REMARK    5  A    between atoms: C_8  and  C_10
REMARK                            x       y       z     vdW  Elec       q    Type
REMARK                         _______ _______ _______ _____ _____    ______ ____
ROOT
ATOM      1 BR   UNL     1      35.341 -18.567 -23.597  0.00  0.00    -0.066 Br
ATOM      2  C   UNL     1      34.757 -18.731 -21.694  0.00  0.00    +0.138 C 
ENDROOT
BRANCH   2   4
ATOM      3 BR   UNL     1      34.728 -15.973 -22.665  0.00  0.00    -0.079 Br
ATOM      4  C   UNL     1      34.330 -17.310 -21.297  0.00  0.00    +0.092 C 
ENDBRANCH   2   4
BRANCH   2   6
ATOM      5  N   UNL     1      36.844 -19.530 -20.297  0.00  0.00    -0.195 NA
ATOM      6  C   UNL     1      35.925 -19.179 -20.915  0.00  0.00    +0.083 C 
ENDBRANCH   2   6
BRANCH   2   7
ATOM      7  C   UNL     1      33.584 -19.738 -21.641  0.00  0.00    +0.042 C 
BRANCH   7   8
ATOM      8  C   UNL     1      32.923 -19.932 -20.265  0.00  0.00    +0.107 C 
BRANCH   8  10
ATOM      9  N   UNL     1      33.283 -22.393 -19.404  0.00  0.00    -0.196 NA
ATOM     10  C   UNL     1      33.124 -21.308 -19.782  0.00  0.00    +0.073 C 
ENDBRANCH   8  10
ENDBRANCH   7   8
ENDBRANCH   2   7
TORSDOF 5
ENDMDL
MODEL 7
REMARK VINA RESULT:      -4.9     10.766     11.259
REMARK  Name = 61948
REMARK  5 active torsions:
REMARK  status: ('A' for Active; 'I' for Inactive)
REMARK    1  A    between atoms: C_2  and  C_4
REMARK    2  A    between atoms: C_2  and  C_6
REMARK    3  A    between atoms: C_2  and  C_7
REMARK    4  A    between atoms: C_7  and  C_8
REMARK    5  A    between atoms: C_8  and  C_10
REMARK                            x       y       z     vdW  Elec       q    Type
REMARK                         _______ _______ _______ _____ _____    ______ ____
ROOT
ATOM      1 BR   UNL     1      37.258 -23.051 -15.300  0.00  0.00    -0.066 Br
ATOM      2  C   UNL     1      36.931 -24.061 -13.608  0.00  0.00    +0.138 C 
ENDROOT
BRANCH   2   4
ATOM      3 BR   UNL     1      34.476 -23.474 -15.085  0.00  0.00    -0.079 Br
ATOM      4  C   UNL     1      35.401 -24.156 -13.505  0.00  0.00    +0.092 C 
ENDBRANCH   2   4
BRANCH   2   6
ATOM      5  N   UNL     1      37.939 -22.635 -11.635  0.00  0.00    -0.195 NA
ATOM      6  C   UNL     1      37.497 -23.263 -12.506  0.00  0.00    +0.083 C 
ENDBRANCH   2   6
BRANCH   2   7
ATOM      7  C   UNL     1      37.602 -25.448 -13.745  0.00  0.00    +0.042 C 
BRANCH   7   8
ATOM      8  C   UNL     1      39.090 -25.518 -13.361  0.00  0.00    +0.107 C 
BRANCH   8  10
ATOM      9  N   UNL     1      40.573 -26.012 -15.478  0.00  0.00    -0.196 NA
ATOM     10  C   UNL     1      39.919 -25.795 -14.545  0.00  0.00    +0.073 C 
ENDBRANCH   8  10
ENDBRANCH   7   8
ENDBRANCH   2   7
TORSDOF 5
ENDMDL
MODEL 8
REMARK VINA RESULT:      -4.8      2.848      4.905
REMARK  Name = 61948
REMARK  5 active torsions:
REMARK  status: ('A' for Active; 'I' for Inactive)
REMARK    1  A    between atoms: C_2  and  C_4
REMARK    2  A    between atoms: C_2  and  C_6
REMARK    3  A    between atoms: C_2  and  C_7
REMARK    4  A    between atoms: C_7  and  C_8
REMARK    5  A    between atoms: C_8  and  C_10
REMARK                            x       y       z     vdW  Elec       q    Type
REMARK                         _______ _______ _______ _____ _____    ______ ____
ROOT
ATOM      1 BR   UNL     1      33.140 -19.857 -20.733  0.00  0.00    -0.066 Br
ATOM      2  C   UNL     1      34.813 -19.009 -21.420  0.00  0.00    +0.138 C 
ENDROOT
BRANCH   2   4
ATOM      3 BR   UNL     1      34.890 -16.347 -22.628  0.00  0.00    -0.079 Br
ATOM      4  C   UNL     1      34.657 -17.519 -21.082  0.00  0.00    +0.092 C 
ENDBRANCH   2   4
BRANCH   2   6
ATOM      5  N   UNL     1      34.877 -19.400 -24.025  0.00  0.00    -0.195 NA
ATOM      6  C   UNL     1      34.849 -19.230 -22.877  0.00  0.00    +0.083 C 
ENDBRANCH   2   6
BRANCH   2   7
ATOM      7  C   UNL     1      36.011 -19.660 -20.690  0.00  0.00    +0.042 C 
BRANCH   7   8
ATOM      8  C   UNL     1      35.850 -21.145 -20.320  0.00  0.00    +0.107 C 
BRANCH   8  10
ATOM      9  N   UNL     1      36.765 -21.599 -17.895  0.00  0.00    -0.196 NA
ATOM     10  C   UNL     1      36.362 -21.400 -18.963  0.00  0.00    +0.073 C 
ENDBRANCH   8  10
ENDBRANCH   7   8
ENDBRANCH   2   7
TORSDOF 5
ENDMDL
MODEL 9
REMARK VINA RESULT:      -4.8      3.335      4.983
REMARK  Name = 61948
REMARK  5 active torsions:
REMARK  status: ('A' for Active; 'I' for Inactive)
REMARK    1  A    between atoms: C_2  and  C_4
REMARK    2  A    between atoms: C_2  and  C_6
REMARK    3  A    between atoms: C_2  and  C_7
REMARK    4  A    between atoms: C_7  and  C_8
REMARK    5  A    between atoms: C_8  and  C_10
REMARK                            x       y       z     vdW  Elec       q    Type
REMARK                         _______ _______ _______ _____ _____    ______ ____
ROOT
ATOM      1 BR   UNL     1      34.655 -17.275 -21.136  0.00  0.00    -0.066 Br
ATOM      2  C   UNL     1      34.803 -19.260 -21.304  0.00  0.00    +0.138 C 
ENDROOT
BRANCH   2   4
ATOM      3 BR   UNL     1      34.961 -17.874 -23.874  0.00  0.00    -0.079 Br
ATOM      4  C   UNL     1      34.870 -19.515 -22.817  0.00  0.00    +0.092 C 
ENDBRANCH   2   4
BRANCH   2   6
ATOM      5  N   UNL     1      32.622 -20.297 -20.251  0.00  0.00    -0.195 NA
ATOM      6  C   UNL     1      33.584 -19.841 -20.713  0.00  0.00    +0.083 C 
ENDBRANCH   2   6
BRANCH   2   7
ATOM      7  C   UNL     1      36.090 -19.705 -20.571  0.00  0.00    +0.042 C 
BRANCH   7   8
ATOM      8  C   UNL     1      36.304 -21.223 -20.446  0.00  0.00    +0.107 C 
BRANCH   8  10
ATOM      9  N   UNL     1      36.074 -21.993 -17.940  0.00  0.00    -0.196 NA
ATOM     10  C   UNL     1      36.176 -21.653 -19.044  0.00  0.00    +0.073 C 
ENDBRANCH   8  10
ENDBRANCH   7   8
ENDBRANCH   2   7
TORSDOF 5
ENDMDL
