MODEL 1
REMARK VINA RESULT:      -8.7      0.000      0.000
REMARK  Name = 448724
REMARK  4 active torsions:
REMARK  status: ('A' for Active; 'I' for Inactive)
REMARK    1  A    between atoms: C_4  and  O_14
REMARK    2  A    between atoms: C_5  and  C_21
REMARK    3  A    between atoms: O_14  and  C_15
REMARK    4  A    between atoms: C_21  and  C_22
REMARK                            x       y       z     vdW  Elec       q    Type
REMARK                         _______ _______ _______ _____ _____    ______ ____
ROOT
ATOM      1 CL   UNL     1      35.619 -11.512 -27.135  0.00  0.00    -0.082 Cl
ATOM      2  O   UNL     1      31.802  -8.542 -20.775  0.00  0.00    -0.267 OA
ATOM      3  N   UNL     1      33.225  -8.647 -22.564  0.00  0.00    -0.321 N 
ATOM      4  C   UNL     1      32.505 -11.327 -22.912  0.00  0.00    +0.140 A 
ATOM      5  C   UNL     1      31.949 -10.631 -21.905  0.00  0.00    +0.068 A 
ATOM      6  C   UNL     1      33.458 -10.695 -23.848  0.00  0.00    +0.050 A 
ATOM      7  C   UNL     1      33.802  -9.353 -23.631  0.00  0.00    +0.062 A 
ATOM      8  C   UNL     1      32.308  -9.190 -21.692  0.00  0.00    +0.257 A 
ATOM      9  C   UNL     1      34.027 -11.347 -24.952  0.00  0.00    +0.016 C 
ATOM     10  C   UNL     1      34.704  -8.687 -24.469  0.00  0.00    +0.018 C 
ATOM     11  C   UNL     1      34.927 -10.684 -25.792  0.00  0.00    +0.058 C 
ATOM     12  C   UNL     1      35.268  -9.357 -25.549  0.00  0.00    +0.013 C 
ATOM     13  H   UNL     1      33.491  -7.709 -22.431  0.00  0.00    +0.169 HD
ENDROOT
BRANCH   4  14
ATOM     14  O   UNL     1      32.164 -12.655 -23.100  0.00  0.00    -0.479 OA
BRANCH  14  15
ATOM     15  C   UNL     1      33.205 -13.510 -22.639  0.00  0.00    +0.166 C 
ATOM     16  C   UNL     1      32.730 -14.275 -21.404  0.00  0.00    +0.044 C 
ATOM     17  C   UNL     1      33.624 -14.458 -23.761  0.00  0.00    +0.044 C 
ATOM     18  C   UNL     1      33.777 -15.278 -20.929  0.00  0.00    +0.004 C 
ATOM     19  C   UNL     1      34.670 -15.462 -23.287  0.00  0.00    +0.004 C 
ATOM     20  C   UNL     1      34.197 -16.224 -22.052  0.00  0.00    +0.000 C 
ENDBRANCH  14  15
ENDBRANCH   4  14
BRANCH   5  21
ATOM     21  C   UNL     1      30.961 -11.204 -20.927  0.00  0.00    +0.034 C 
BRANCH  21  22
ATOM     22  C   UNL     1      31.652 -11.701 -19.663  0.00  0.00    +0.005 C 
ATOM     23  C   UNL     1      31.299 -10.829 -18.469  0.00  0.00    +0.000 C 
ENDBRANCH  21  22
ENDBRANCH   5  21
TORSDOF 4
ENDMDL
MODEL 2
REMARK VINA RESULT:      -8.6      3.989      6.516
REMARK  Name = 448724
REMARK  4 active torsions:
REMARK  status: ('A' for Active; 'I' for Inactive)
REMARK    1  A    between atoms: C_4  and  O_14
REMARK    2  A    between atoms: C_5  and  C_21
REMARK    3  A    between atoms: O_14  and  C_15
REMARK    4  A    between atoms: C_21  and  C_22
REMARK                            x       y       z     vdW  Elec       q    Type
REMARK                         _______ _______ _______ _____ _____    ______ ____
ROOT
ATOM      1 CL   UNL     1      31.986 -12.252 -19.447  0.00  0.00    -0.082 Cl
ATOM      2  O   UNL     1      34.103 -16.010 -26.172  0.00  0.00    -0.267 OA
ATOM      3  N   UNL     1      33.083 -14.494 -24.795  0.00  0.00    -0.321 N 
ATOM      4  C   UNL     1      34.165 -15.843 -22.596  0.00  0.00    +0.140 A 
ATOM      5  C   UNL     1      34.427 -16.302 -23.834  0.00  0.00    +0.068 A 
ATOM      6  C   UNL     1      33.348 -14.630 -22.385  0.00  0.00    +0.050 A 
ATOM      7  C   UNL     1      32.813 -13.991 -23.513  0.00  0.00    +0.062 A 
ATOM      8  C   UNL     1      33.867 -15.601 -25.035  0.00  0.00    +0.257 A 
ATOM      9  C   UNL     1      33.087 -14.066 -21.127  0.00  0.00    +0.016 C 
ATOM     10  C   UNL     1      32.022 -12.842 -23.394  0.00  0.00    +0.018 C 
ATOM     11  C   UNL     1      32.299 -12.917 -21.005  0.00  0.00    +0.058 C 
ATOM     12  C   UNL     1      31.763 -12.308 -22.136  0.00  0.00    +0.013 C 
ATOM     13  H   UNL     1      32.688 -14.029 -25.568  0.00  0.00    +0.169 HD
ENDROOT
BRANCH   4  14
ATOM     14  O   UNL     1      34.689 -16.497 -21.496  0.00  0.00    -0.479 OA
BRANCH  14  15
ATOM     15  C   UNL     1      34.419 -17.893 -21.566  0.00  0.00    +0.166 C 
ATOM     16  C   UNL     1      35.587 -18.672 -20.961  0.00  0.00    +0.044 C 
ATOM     17  C   UNL     1      33.106 -18.199 -20.849  0.00  0.00    +0.044 C 
ATOM     18  C   UNL     1      35.303 -20.170 -20.925  0.00  0.00    +0.004 C 
ATOM     19  C   UNL     1      32.822 -19.697 -20.812  0.00  0.00    +0.004 C 
ATOM     20  C   UNL     1      33.989 -20.475 -20.209  0.00  0.00    +0.000 C 
ENDBRANCH  14  15
ENDBRANCH   4  14
BRANCH   5  21
ATOM     21  C   UNL     1      35.263 -17.517 -24.123  0.00  0.00    +0.034 C 
BRANCH  21  22
ATOM     22  C   UNL     1      34.492 -18.542 -24.947  0.00  0.00    +0.005 C 
ATOM     23  C   UNL     1      34.880 -19.959 -24.557  0.00  0.00    +0.000 C 
ENDBRANCH  21  22
ENDBRANCH   5  21
TORSDOF 4
ENDMDL
MODEL 3
REMARK VINA RESULT:      -8.6      2.697      4.544
REMARK  Name = 448724
REMARK  4 active torsions:
REMARK  status: ('A' for Active; 'I' for Inactive)
REMARK    1  A    between atoms: C_4  and  O_14
REMARK    2  A    between atoms: C_5  and  C_21
REMARK    3  A    between atoms: O_14  and  C_15
REMARK    4  A    between atoms: C_21  and  C_22
REMARK                            x       y       z     vdW  Elec       q    Type
REMARK                         _______ _______ _______ _____ _____    ______ ____
ROOT
ATOM      1 CL   UNL     1      30.651 -10.520 -19.154  0.00  0.00    -0.082 Cl
ATOM      2  O   UNL     1      34.749 -10.820 -26.006  0.00  0.00    -0.267 OA
ATOM      3  N   UNL     1      33.674  -9.937 -24.190  0.00  0.00    -0.321 N 
ATOM      4  C   UNL     1      32.950 -12.528 -23.425  0.00  0.00    +0.140 A 
ATOM      5  C   UNL     1      33.674 -12.360 -24.546  0.00  0.00    +0.068 A 
ATOM      6  C   UNL     1      32.562 -11.378 -22.582  0.00  0.00    +0.050 A 
ATOM      7  C   UNL     1      32.933 -10.095 -23.008  0.00  0.00    +0.062 A 
ATOM      8  C   UNL     1      34.084 -10.985 -24.983  0.00  0.00    +0.257 A 
ATOM      9  C   UNL     1      31.861 -11.490 -21.373  0.00  0.00    +0.016 C 
ATOM     10  C   UNL     1      32.595  -8.956 -22.269  0.00  0.00    +0.018 C 
ATOM     11  C   UNL     1      31.523 -10.354 -20.631  0.00  0.00    +0.058 C 
ATOM     12  C   UNL     1      31.886  -9.088 -21.080  0.00  0.00    +0.013 C 
ATOM     13  H   UNL     1      33.914  -9.024 -24.467  0.00  0.00    +0.169 HD
ENDROOT
BRANCH   4  14
ATOM     14  O   UNL     1      32.580 -13.802 -23.031  0.00  0.00    -0.479 OA
BRANCH  14  15
ATOM     15  C   UNL     1      33.678 -14.479 -22.428  0.00  0.00    +0.166 C 
ATOM     16  C   UNL     1      33.384 -14.712 -20.945  0.00  0.00    +0.044 C 
ATOM     17  C   UNL     1      33.938 -15.792 -23.163  0.00  0.00    +0.044 C 
ATOM     18  C   UNL     1      34.491 -15.521 -20.276  0.00  0.00    +0.004 C 
ATOM     19  C   UNL     1      35.043 -16.602 -22.493  0.00  0.00    +0.004 C 
ATOM     20  C   UNL     1      34.751 -16.833 -21.012  0.00  0.00    +0.000 C 
ENDBRANCH  14  15
ENDBRANCH   4  14
BRANCH   5  21
ATOM     21  C   UNL     1      34.118 -13.484 -25.440  0.00  0.00    +0.034 C 
BRANCH  21  22
ATOM     22  C   UNL     1      33.060 -13.816 -26.486  0.00  0.00    +0.005 C 
ATOM     23  C   UNL     1      32.758 -15.306 -26.504  0.00  0.00    +0.000 C 
ENDBRANCH  21  22
ENDBRANCH   5  21
TORSDOF 4
ENDMDL
MODEL 4
REMARK VINA RESULT:      -8.6     10.334     13.747
REMARK  Name = 448724
REMARK  4 active torsions:
REMARK  status: ('A' for Active; 'I' for Inactive)
REMARK    1  A    between atoms: C_4  and  O_14
REMARK    2  A    between atoms: C_5  and  C_21
REMARK    3  A    between atoms: O_14  and  C_15
REMARK    4  A    between atoms: C_21  and  C_22
REMARK                            x       y       z     vdW  Elec       q    Type
REMARK                         _______ _______ _______ _____ _____    ______ ____
ROOT
ATOM      1 CL   UNL     1      35.948 -25.007 -12.647  0.00  0.00    -0.082 Cl
ATOM      2  O   UNL     1      36.136 -20.949 -19.527  0.00  0.00    -0.267 OA
ATOM      3  N   UNL     1      36.790 -21.713 -17.472  0.00  0.00    -0.321 N 
ATOM      4  C   UNL     1      34.367 -23.096 -17.274  0.00  0.00    +0.140 A 
ATOM      5  C   UNL     1      34.610 -22.367 -18.378  0.00  0.00    +0.068 A 
ATOM      6  C   UNL     1      35.364 -23.202 -16.189  0.00  0.00    +0.050 A 
ATOM      7  C   UNL     1      36.560 -22.483 -16.321  0.00  0.00    +0.062 A 
ATOM      8  C   UNL     1      35.901 -21.617 -18.519  0.00  0.00    +0.257 A 
ATOM      9  C   UNL     1      35.197 -23.992 -15.041  0.00  0.00    +0.016 C 
ATOM     10  C   UNL     1      37.549 -22.525 -15.332  0.00  0.00    +0.018 C 
ATOM     11  C   UNL     1      36.184 -24.038 -14.052  0.00  0.00    +0.058 C 
ATOM     12  C   UNL     1      37.357 -23.302 -14.194  0.00  0.00    +0.013 C 
ATOM     13  H   UNL     1      37.635 -21.213 -17.534  0.00  0.00    +0.169 HD
ENDROOT
BRANCH   4  14
ATOM     14  O   UNL     1      33.173 -23.786 -17.156  0.00  0.00    -0.479 OA
BRANCH  14  15
ATOM     15  C   UNL     1      32.273 -23.090 -16.300  0.00  0.00    +0.166 C 
ATOM     16  C   UNL     1      30.928 -22.916 -17.004  0.00  0.00    +0.044 C 
ATOM     17  C   UNL     1      32.126 -23.850 -14.983  0.00  0.00    +0.044 C 
ATOM     18  C   UNL     1      29.898 -22.260 -16.089  0.00  0.00    +0.004 C 
ATOM     19  C   UNL     1      31.096 -23.195 -14.069  0.00  0.00    +0.004 C 
ATOM     20  C   UNL     1      29.752 -23.019 -14.772  0.00  0.00    +0.000 C 
ENDBRANCH  14  15
ENDBRANCH   4  14
BRANCH   5  21
ATOM     21  C   UNL     1      33.650 -22.229 -19.527  0.00  0.00    +0.034 C 
BRANCH  21  22
ATOM     22  C   UNL     1      32.829 -20.950 -19.417  0.00  0.00    +0.005 C 
ATOM     23  C   UNL     1      32.953 -20.112 -20.679  0.00  0.00    +0.000 C 
ENDBRANCH  21  22
ENDBRANCH   5  21
TORSDOF 4
ENDMDL
MODEL 5
REMARK VINA RESULT:      -8.6     11.407     14.342
REMARK  Name = 448724
REMARK  4 active torsions:
REMARK  status: ('A' for Active; 'I' for Inactive)
REMARK    1  A    between atoms: C_4  and  O_14
REMARK    2  A    between atoms: C_5  and  C_21
REMARK    3  A    between atoms: O_14  and  C_15
REMARK    4  A    between atoms: C_21  and  C_22
REMARK                            x       y       z     vdW  Elec       q    Type
REMARK                         _______ _______ _______ _____ _____    ______ ____
ROOT
ATOM      1 CL   UNL     1      39.039 -24.789 -14.978  0.00  0.00    -0.082 Cl
ATOM      2  O   UNL     1      31.399 -22.901 -13.596  0.00  0.00    -0.267 OA
ATOM      3  N   UNL     1      33.575 -23.470 -13.176  0.00  0.00    -0.321 N 
ATOM      4  C   UNL     1      33.998 -23.676 -15.934  0.00  0.00    +0.140 A 
ATOM      5  C   UNL     1      32.775 -23.338 -15.487  0.00  0.00    +0.068 A 
ATOM      6  C   UNL     1      35.119 -23.907 -14.999  0.00  0.00    +0.050 A 
ATOM      7  C   UNL     1      34.862 -23.807 -13.624  0.00  0.00    +0.062 A 
ATOM      8  C   UNL     1      32.514 -23.213 -14.016  0.00  0.00    +0.257 A 
ATOM      9  C   UNL     1      36.430 -24.203 -15.401  0.00  0.00    +0.016 C 
ATOM     10  C   UNL     1      35.870 -24.020 -12.677  0.00  0.00    +0.018 C 
ATOM     11  C   UNL     1      37.440 -24.415 -14.456  0.00  0.00    +0.058 C 
ATOM     12  C   UNL     1      37.159 -24.328 -13.096  0.00  0.00    +0.013 C 
ATOM     13  H   UNL     1      33.422 -23.414 -12.205  0.00  0.00    +0.169 HD
ENDROOT
BRANCH   4  14
ATOM     14  O   UNL     1      34.227 -23.785 -17.293  0.00  0.00    -0.479 OA
BRANCH  14  15
ATOM     15  C   UNL     1      34.489 -22.507 -17.863  0.00  0.00    +0.166 C 
ATOM     16  C   UNL     1      35.987 -22.363 -18.131  0.00  0.00    +0.044 C 
ATOM     17  C   UNL     1      33.669 -22.336 -19.140  0.00  0.00    +0.044 C 
ATOM     18  C   UNL     1      36.306 -21.045 -18.831  0.00  0.00    +0.004 C 
ATOM     19  C   UNL     1      33.988 -21.020 -19.841  0.00  0.00    +0.004 C 
ATOM     20  C   UNL     1      35.485 -20.874 -20.107  0.00  0.00    +0.000 C 
ENDBRANCH  14  15
ENDBRANCH   4  14
BRANCH   5  21
ATOM     21  C   UNL     1      31.595 -23.072 -16.380  0.00  0.00    +0.034 C 
BRANCH  21  22
ATOM     22  C   UNL     1      30.512 -24.130 -16.204  0.00  0.00    +0.005 C 
ATOM     23  C   UNL     1      29.127 -23.506 -16.252  0.00  0.00    +0.000 C 
ENDBRANCH  21  22
ENDBRANCH   5  21
TORSDOF 4
ENDMDL
MODEL 6
REMARK VINA RESULT:      -8.6     10.787     13.633
REMARK  Name = 448724
REMARK  4 active torsions:
REMARK  status: ('A' for Active; 'I' for Inactive)
REMARK    1  A    between atoms: C_4  and  O_14
REMARK    2  A    between atoms: C_5  and  C_21
REMARK    3  A    between atoms: O_14  and  C_15
REMARK    4  A    between atoms: C_21  and  C_22
REMARK                            x       y       z     vdW  Elec       q    Type
REMARK                         _______ _______ _______ _____ _____    ______ ____
ROOT
ATOM      1 CL   UNL     1      32.819 -20.828 -20.784  0.00  0.00    -0.082 Cl
ATOM      2  O   UNL     1      38.134 -23.126 -15.279  0.00  0.00    -0.267 OA
ATOM      3  N   UNL     1      37.270 -22.056 -17.107  0.00  0.00    -0.321 N 
ATOM      4  C   UNL     1      34.866 -23.429 -16.708  0.00  0.00    +0.140 A 
ATOM      5  C   UNL     1      35.890 -23.654 -15.865  0.00  0.00    +0.068 A 
ATOM      6  C   UNL     1      34.980 -22.454 -17.813  0.00  0.00    +0.050 A 
ATOM      7  C   UNL     1      36.207 -21.796 -17.986  0.00  0.00    +0.062 A 
ATOM      8  C   UNL     1      37.192 -22.931 -16.047  0.00  0.00    +0.257 A 
ATOM      9  C   UNL     1      33.933 -22.130 -18.688  0.00  0.00    +0.016 C 
ATOM     10  C   UNL     1      36.396 -20.866 -19.014  0.00  0.00    +0.018 C 
ATOM     11  C   UNL     1      34.119 -21.199 -19.716  0.00  0.00    +0.058 C 
ATOM     12  C   UNL     1      35.349 -20.571 -19.881  0.00  0.00    +0.013 C 
ATOM     13  H   UNL     1      38.121 -21.586 -17.259  0.00  0.00    +0.169 HD
ENDROOT
BRANCH   4  14
ATOM     14  O   UNL     1      33.669 -24.100 -16.529  0.00  0.00    -0.479 OA
BRANCH  14  15
ATOM     15  C   UNL     1      32.770 -23.322 -15.745  0.00  0.00    +0.166 C 
ATOM     16  C   UNL     1      31.428 -23.206 -16.468  0.00  0.00    +0.044 C 
ATOM     17  C   UNL     1      32.613 -23.956 -14.365  0.00  0.00    +0.044 C 
ATOM     18  C   UNL     1      30.399 -22.462 -15.623  0.00  0.00    +0.004 C 
ATOM     19  C   UNL     1      31.584 -23.213 -13.519  0.00  0.00    +0.004 C 
ATOM     20  C   UNL     1      30.244 -23.095 -14.242  0.00  0.00    +0.000 C 
ENDBRANCH  14  15
ENDBRANCH   4  14
BRANCH   5  21
ATOM     21  C   UNL     1      35.838 -24.617 -14.712  0.00  0.00    +0.034 C 
BRANCH  21  22
ATOM     22  C   UNL     1      36.186 -26.034 -15.153  0.00  0.00    +0.005 C 
ATOM     23  C   UNL     1      37.347 -26.587 -14.342  0.00  0.00    +0.000 C 
ENDBRANCH  21  22
ENDBRANCH   5  21
TORSDOF 4
ENDMDL
MODEL 7
REMARK VINA RESULT:      -8.2      2.147      5.213
REMARK  Name = 448724
REMARK  4 active torsions:
REMARK  status: ('A' for Active; 'I' for Inactive)
REMARK    1  A    between atoms: C_4  and  O_14
REMARK    2  A    between atoms: C_5  and  C_21
REMARK    3  A    between atoms: O_14  and  C_15
REMARK    4  A    between atoms: C_21  and  C_22
REMARK                            x       y       z     vdW  Elec       q    Type
REMARK                         _______ _______ _______ _____ _____    ______ ____
ROOT
ATOM      1 CL   UNL     1      33.507 -15.148 -25.014  0.00  0.00    -0.082 Cl
ATOM      2  O   UNL     1      31.494 -10.787 -18.630  0.00  0.00    -0.267 OA
ATOM      3  N   UNL     1      32.087 -12.611 -19.878  0.00  0.00    -0.321 N 
ATOM      4  C   UNL     1      31.958 -11.015 -22.172  0.00  0.00    +0.140 A 
ATOM      5  C   UNL     1      31.679 -10.460 -20.979  0.00  0.00    +0.068 A 
ATOM      6  C   UNL     1      32.357 -12.433 -22.285  0.00  0.00    +0.050 A 
ATOM      7  C   UNL     1      32.397 -13.202 -21.113  0.00  0.00    +0.062 A 
ATOM      8  C   UNL     1      31.743 -11.285 -19.728  0.00  0.00    +0.257 A 
ATOM      9  C   UNL     1      32.718 -13.056 -23.490  0.00  0.00    +0.016 C 
ATOM     10  C   UNL     1      32.758 -14.554 -21.140  0.00  0.00    +0.018 C 
ATOM     11  C   UNL     1      33.080 -14.406 -23.519  0.00  0.00    +0.058 C 
ATOM     12  C   UNL     1      33.096 -15.156 -22.347  0.00  0.00    +0.013 C 
ATOM     13  H   UNL     1      32.115 -13.176 -19.074  0.00  0.00    +0.169 HD
ENDROOT
BRANCH   4  14
ATOM     14  O   UNL     1      31.898 -10.243 -23.319  0.00  0.00    -0.479 OA
BRANCH  14  15
ATOM     15  C   UNL     1      32.712  -9.083 -23.186  0.00  0.00    +0.166 C 
ATOM     16  C   UNL     1      34.111  -9.374 -23.729  0.00  0.00    +0.044 C 
ATOM     17  C   UNL     1      32.057  -7.911 -23.915  0.00  0.00    +0.044 C 
ATOM     18  C   UNL     1      34.993  -8.130 -23.698  0.00  0.00    +0.004 C 
ATOM     19  C   UNL     1      32.940  -6.667 -23.885  0.00  0.00    +0.004 C 
ATOM     20  C   UNL     1      34.338  -6.958 -24.425  0.00  0.00    +0.000 C 
ENDBRANCH  14  15
ENDBRANCH   4  14
BRANCH   5  21
ATOM     21  C   UNL     1      31.284  -9.023 -20.788  0.00  0.00    +0.034 C 
BRANCH  21  22
ATOM     22  C   UNL     1      32.412  -8.212 -20.162  0.00  0.00    +0.005 C 
ATOM     23  C   UNL     1      32.177  -6.721 -20.342  0.00  0.00    +0.000 C 
ENDBRANCH  21  22
ENDBRANCH   5  21
TORSDOF 4
ENDMDL
MODEL 8
REMARK VINA RESULT:      -8.0      2.110      3.529
REMARK  Name = 448724
REMARK  4 active torsions:
REMARK  status: ('A' for Active; 'I' for Inactive)
REMARK    1  A    between atoms: C_4  and  O_14
REMARK    2  A    between atoms: C_5  and  C_21
REMARK    3  A    between atoms: O_14  and  C_15
REMARK    4  A    between atoms: C_21  and  C_22
REMARK                            x       y       z     vdW  Elec       q    Type
REMARK                         _______ _______ _______ _____ _____    ______ ____
ROOT
ATOM      1 CL   UNL     1      34.921  -6.697 -25.034  0.00  0.00    -0.082 Cl
ATOM      2  O   UNL     1      30.300 -11.544 -20.676  0.00  0.00    -0.267 OA
ATOM      3  N   UNL     1      31.185  -9.606 -21.510  0.00  0.00    -0.321 N 
ATOM      4  C   UNL     1      33.018 -11.133 -22.970  0.00  0.00    +0.140 A 
ATOM      5  C   UNL     1      32.124 -11.764 -22.187  0.00  0.00    +0.068 A 
ATOM      6  C   UNL     1      33.025  -9.661 -23.094  0.00  0.00    +0.050 A 
ATOM      7  C   UNL     1      32.099  -8.931 -22.335  0.00  0.00    +0.062 A 
ATOM      8  C   UNL     1      31.125 -10.976 -21.394  0.00  0.00    +0.257 A 
ATOM      9  C   UNL     1      33.889  -8.947 -23.938  0.00  0.00    +0.016 C 
ATOM     10  C   UNL     1      32.049  -7.534 -22.392  0.00  0.00    +0.018 C 
ATOM     11  C   UNL     1      33.841  -7.550 -23.998  0.00  0.00    +0.058 C 
ATOM     12  C   UNL     1      32.925  -6.844 -23.223  0.00  0.00    +0.013 C 
ATOM     13  H   UNL     1      30.552  -9.067 -20.983  0.00  0.00    +0.169 HD
ENDROOT
BRANCH   4  14
ATOM     14  O   UNL     1      33.934 -11.871 -23.699  0.00  0.00    -0.479 OA
BRANCH  14  15
ATOM     15  C   UNL     1      33.288 -12.565 -24.761  0.00  0.00    +0.166 C 
ATOM     16  C   UNL     1      33.780 -12.023 -26.102  0.00  0.00    +0.044 C 
ATOM     17  C   UNL     1      33.552 -14.064 -24.629  0.00  0.00    +0.044 C 
ATOM     18  C   UNL     1      33.189 -12.801 -27.273  0.00  0.00    +0.004 C 
ATOM     19  C   UNL     1      32.961 -14.843 -25.800  0.00  0.00    +0.004 C 
ATOM     20  C   UNL     1      33.451 -14.300 -27.140  0.00  0.00    +0.000 C 
ENDBRANCH  14  15
ENDBRANCH   4  14
BRANCH   5  21
ATOM     21  C   UNL     1      32.049 -13.257 -22.027  0.00  0.00    +0.034 C 
BRANCH  21  22
ATOM     22  C   UNL     1      32.933 -13.741 -20.883  0.00  0.00    +0.005 C 
ATOM     23  C   UNL     1      32.670 -15.206 -20.573  0.00  0.00    +0.000 C 
ENDBRANCH  21  22
ENDBRANCH   5  21
TORSDOF 4
ENDMDL
MODEL 9
REMARK VINA RESULT:      -8.0      3.358      6.549
REMARK  Name = 448724
REMARK  4 active torsions:
REMARK  status: ('A' for Active; 'I' for Inactive)
REMARK    1  A    between atoms: C_4  and  O_14
REMARK    2  A    between atoms: C_5  and  C_21
REMARK    3  A    between atoms: O_14  and  C_15
REMARK    4  A    between atoms: C_21  and  C_22
REMARK                            x       y       z     vdW  Elec       q    Type
REMARK                         _______ _______ _______ _____ _____    ______ ____
ROOT
ATOM      1 CL   UNL     1      36.002 -18.285 -20.767  0.00  0.00    -0.082 Cl
ATOM      2  O   UNL     1      32.771 -15.135 -27.361  0.00  0.00    -0.267 OA
ATOM      3  N   UNL     1      33.695 -16.691 -25.961  0.00  0.00    -0.321 N 
ATOM      4  C   UNL     1      34.061 -14.679 -24.053  0.00  0.00    +0.140 A 
ATOM      5  C   UNL     1      33.500 -14.360 -25.234  0.00  0.00    +0.068 A 
ATOM      6  C   UNL     1      34.453 -16.068 -23.740  0.00  0.00    +0.050 A 
ATOM      7  C   UNL     1      34.265 -17.045 -24.729  0.00  0.00    +0.062 A 
ATOM      8  C   UNL     1      33.286 -15.415 -26.278  0.00  0.00    +0.257 A 
ATOM      9  C   UNL     1      34.985 -16.477 -22.508  0.00  0.00    +0.016 C 
ATOM     10  C   UNL     1      34.620 -18.381 -24.510  0.00  0.00    +0.018 C 
ATOM     11  C   UNL     1      35.339 -17.812 -22.286  0.00  0.00    +0.058 C 
ATOM     12  C   UNL     1      35.161 -18.762 -23.287  0.00  0.00    +0.013 C 
ATOM     13  H   UNL     1      33.583 -17.396 -26.639  0.00  0.00    +0.169 HD
ENDROOT
BRANCH   4  14
ATOM     14  O   UNL     1      34.252 -13.698 -23.096  0.00  0.00    -0.479 OA
BRANCH  14  15
ATOM     15  C   UNL     1      33.061 -13.492 -22.343  0.00  0.00    +0.166 C 
ATOM     16  C   UNL     1      33.310 -13.861 -20.880  0.00  0.00    +0.044 C 
ATOM     17  C   UNL     1      32.606 -12.041 -22.488  0.00  0.00    +0.044 C 
ATOM     18  C   UNL     1      32.090 -13.566 -20.013  0.00  0.00    +0.004 C 
ATOM     19  C   UNL     1      31.387 -11.745 -21.621  0.00  0.00    +0.004 C 
ATOM     20  C   UNL     1      31.635 -12.115 -20.160  0.00  0.00    +0.000 C 
ENDBRANCH  14  15
ENDBRANCH   4  14
BRANCH   5  21
ATOM     21  C   UNL     1      33.062 -12.973 -25.612  0.00  0.00    +0.034 C 
BRANCH  21  22
ATOM     22  C   UNL     1      34.190 -12.194 -26.279  0.00  0.00    +0.005 C 
ATOM     23  C   UNL     1      34.597 -10.995 -25.437  0.00  0.00    +0.000 C 
ENDBRANCH  21  22
ENDBRANCH   5  21
TORSDOF 4
ENDMDL
