MODEL 1
REMARK VINA RESULT:      -9.2      0.000      0.000
REMARK  Name = 4855
REMARK  3 active torsions:
REMARK  status: ('A' for Active; 'I' for Inactive)
REMARK    1  A    between atoms: N_3  and  C_21
REMARK    2  A    between atoms: C_16  and  C_18
REMARK    3  A    between atoms: C_18  and  O_19
REMARK                            x       y       z     vdW  Elec       q    Type
REMARK                         _______ _______ _______ _____ _____    ______ ____
ROOT
ATOM      1  O   UNL     1      38.050 -23.836 -13.316  0.00  0.00    -0.286 OA
ATOM      2  N   UNL     1      35.597 -21.625 -18.614  0.00  0.00    -0.244 N 
ATOM      3  N   UNL     1      34.217 -23.865 -14.672  0.00  0.00    -0.260 N 
ATOM      4  N   UNL     1      34.906 -22.720 -16.692  0.00  0.00    -0.322 NA
ATOM      5  N   UNL     1      37.215 -22.120 -17.035  0.00  0.00    -0.170 NA
ATOM      6  C   UNL     1      34.356 -20.637 -20.349  0.00  0.00    +0.024 C 
ATOM      7  C   UNL     1      35.788 -20.829 -20.818  0.00  0.00    +0.024 C 
ATOM      8  C   UNL     1      34.245 -21.598 -19.168  0.00  0.00    +0.102 C 
ATOM      9  C   UNL     1      36.561 -20.994 -19.511  0.00  0.00    +0.102 C 
ATOM     10  C   UNL     1      35.922 -22.179 -17.395  0.00  0.00    +0.149 C 
ATOM     11  C   UNL     1      35.212 -23.269 -15.490  0.00  0.00    +0.204 C 
ATOM     12  C   UNL     1      36.534 -23.255 -15.031  0.00  0.00    +0.104 C 
ATOM     13  C   UNL     1      37.494 -22.670 -15.839  0.00  0.00    +0.119 C 
ATOM     14  C   UNL     1      34.561 -24.415 -13.454  0.00  0.00    +0.077 C 
ATOM     15  C   UNL     1      36.896 -23.847 -13.722  0.00  0.00    +0.208 C 
ATOM     16  C   UNL     1      35.793 -24.450 -12.931  0.00  0.00    +0.129 C 
ENDROOT
BRANCH  16  18
ATOM     17  O   UNL     1      35.355 -24.783 -10.619  0.00  0.00    -0.245 OA
ATOM     18  C   UNL     1      35.981 -25.075 -11.622  0.00  0.00    +0.342 C 
BRANCH  18  19
ATOM     19  O   UNL     1      36.949 -26.014 -11.702  0.00  0.00    -0.477 OA
ATOM     20  H   UNL     1      36.723 -26.923 -11.677  0.00  0.00    +0.295 HD
ENDBRANCH  18  19
ENDBRANCH  16  18
BRANCH   3  21
ATOM     21  C   UNL     1      32.858 -23.854 -15.196  0.00  0.00    +0.098 C 
ATOM     22  C   UNL     1      31.947 -22.978 -14.360  0.00  0.00    +0.024 C 
ENDBRANCH   3  21
TORSDOF 3
ENDMDL
MODEL 2
REMARK VINA RESULT:      -8.8      3.608      6.477
REMARK  Name = 4855
REMARK  3 active torsions:
REMARK  status: ('A' for Active; 'I' for Inactive)
REMARK    1  A    between atoms: N_3  and  C_21
REMARK    2  A    between atoms: C_16  and  C_18
REMARK    3  A    between atoms: C_18  and  O_19
REMARK                            x       y       z     vdW  Elec       q    Type
REMARK                         _______ _______ _______ _____ _____    ______ ____
ROOT
ATOM      1  O   UNL     1      30.062 -23.697 -13.807  0.00  0.00    -0.286 OA
ATOM      2  N   UNL     1      36.223 -24.706 -13.861  0.00  0.00    -0.244 N 
ATOM      3  N   UNL     1      32.806 -23.162 -16.759  0.00  0.00    -0.260 N 
ATOM      4  N   UNL     1      34.564 -23.948 -15.291  0.00  0.00    -0.322 NA
ATOM      5  N   UNL     1      34.063 -24.625 -13.032  0.00  0.00    -0.170 NA
ATOM      6  C   UNL     1      38.563 -24.698 -14.082  0.00  0.00    +0.024 C 
ATOM      7  C   UNL     1      38.179 -25.660 -12.972  0.00  0.00    +0.024 C 
ATOM      8  C   UNL     1      37.265 -24.542 -14.871  0.00  0.00    +0.102 C 
ATOM      9  C   UNL     1      36.764 -25.219 -12.605  0.00  0.00    +0.102 C 
ATOM     10  C   UNL     1      34.892 -24.415 -14.068  0.00  0.00    +0.149 C 
ATOM     11  C   UNL     1      33.256 -23.658 -15.509  0.00  0.00    +0.204 C 
ATOM     12  C   UNL     1      32.319 -23.846 -14.487  0.00  0.00    +0.104 C 
ATOM     13  C   UNL     1      32.773 -24.329 -13.271  0.00  0.00    +0.119 C 
ATOM     14  C   UNL     1      31.469 -22.876 -16.949  0.00  0.00    +0.077 C 
ATOM     15  C   UNL     1      30.885 -23.535 -14.697  0.00  0.00    +0.208 C 
ATOM     16  C   UNL     1      30.500 -23.022 -16.037  0.00  0.00    +0.129 C 
ENDROOT
BRANCH  16  18
ATOM     17  O   UNL     1      28.583 -23.009 -17.441  0.00  0.00    -0.245 OA
ATOM     18  C   UNL     1      29.130 -22.669 -16.407  0.00  0.00    +0.342 C 
BRANCH  18  19
ATOM     19  O   UNL     1      28.575 -21.917 -15.432  0.00  0.00    -0.477 OA
ATOM     20  H   UNL     1      28.298 -21.041 -15.617  0.00  0.00    +0.295 HD
ENDBRANCH  18  19
ENDBRANCH  16  18
BRANCH   3  21
ATOM     21  C   UNL     1      33.821 -22.986 -17.789  0.00  0.00    +0.098 C 
ATOM     22  C   UNL     1      33.342 -22.062 -18.890  0.00  0.00    +0.024 C 
ENDBRANCH   3  21
TORSDOF 3
ENDMDL
MODEL 3
REMARK VINA RESULT:      -8.8      7.429     10.499
REMARK  Name = 4855
REMARK  3 active torsions:
REMARK  status: ('A' for Active; 'I' for Inactive)
REMARK    1  A    between atoms: N_3  and  C_21
REMARK    2  A    between atoms: C_16  and  C_18
REMARK    3  A    between atoms: C_18  and  O_19
REMARK                            x       y       z     vdW  Elec       q    Type
REMARK                         _______ _______ _______ _____ _____    ______ ____
ROOT
ATOM      1  O   UNL     1      35.125 -19.941 -23.512  0.00  0.00    -0.286 OA
ATOM      2  N   UNL     1      33.663 -14.269 -25.675  0.00  0.00    -0.244 N 
ATOM      3  N   UNL     1      34.705 -16.394 -21.569  0.00  0.00    -0.260 N 
ATOM      4  N   UNL     1      34.171 -15.293 -23.658  0.00  0.00    -0.322 NA
ATOM      5  N   UNL     1      34.111 -16.540 -25.721  0.00  0.00    -0.170 NA
ATOM      6  C   UNL     1      33.438 -11.996 -26.229  0.00  0.00    +0.024 C 
ATOM      7  C   UNL     1      32.811 -12.834 -27.330  0.00  0.00    +0.024 C 
ATOM      8  C   UNL     1      33.494 -12.961 -25.048  0.00  0.00    +0.102 C 
ATOM      9  C   UNL     1      33.436 -14.210 -27.116  0.00  0.00    +0.102 C 
ATOM     10  C   UNL     1      33.996 -15.418 -24.990  0.00  0.00    +0.149 C 
ATOM     11  C   UNL     1      34.499 -16.417 -22.972  0.00  0.00    +0.204 C 
ATOM     12  C   UNL     1      34.640 -17.633 -23.649  0.00  0.00    +0.104 C 
ATOM     13  C   UNL     1      34.437 -17.640 -25.019  0.00  0.00    +0.119 C 
ATOM     14  C   UNL     1      35.037 -17.555 -20.899  0.00  0.00    +0.077 C 
ATOM     15  C   UNL     1      34.998 -18.875 -22.924  0.00  0.00    +0.208 C 
ATOM     16  C   UNL     1      35.195 -18.761 -21.456  0.00  0.00    +0.129 C 
ENDROOT
BRANCH  16  18
ATOM     17  O   UNL     1      36.621 -20.020 -20.031  0.00  0.00    -0.245 OA
ATOM     18  C   UNL     1      35.549 -19.890 -20.596  0.00  0.00    +0.342 C 
BRANCH  18  19
ATOM     19  O   UNL     1      34.513 -20.754 -20.530  0.00  0.00    -0.477 OA
ATOM     20  H   UNL     1      33.886 -20.789 -21.226  0.00  0.00    +0.295 HD
ENDBRANCH  18  19
ENDBRANCH  16  18
BRANCH   3  21
ATOM     21  C   UNL     1      34.544 -15.104 -20.912  0.00  0.00    +0.098 C 
ATOM     22  C   UNL     1      33.138 -14.924 -20.376  0.00  0.00    +0.024 C 
ENDBRANCH   3  21
TORSDOF 3
ENDMDL
MODEL 4
REMARK VINA RESULT:      -8.5      2.180      4.750
REMARK  Name = 4855
REMARK  3 active torsions:
REMARK  status: ('A' for Active; 'I' for Inactive)
REMARK    1  A    between atoms: N_3  and  C_21
REMARK    2  A    between atoms: C_16  and  C_18
REMARK    3  A    between atoms: C_18  and  O_19
REMARK                            x       y       z     vdW  Elec       q    Type
REMARK                         _______ _______ _______ _____ _____    ______ ____
ROOT
ATOM      1  O   UNL     1      36.120 -25.094 -11.566  0.00  0.00    -0.286 OA
ATOM      2  N   UNL     1      31.246 -23.504 -15.130  0.00  0.00    -0.244 N 
ATOM      3  N   UNL     1      35.974 -23.178 -15.149  0.00  0.00    -0.260 N 
ATOM      4  N   UNL     1      33.558 -23.336 -15.155  0.00  0.00    -0.322 NA
ATOM      5  N   UNL     1      32.394 -24.395 -13.328  0.00  0.00    -0.170 NA
ATOM      6  C   UNL     1      29.656 -23.057 -16.803  0.00  0.00    +0.024 C 
ATOM      7  C   UNL     1      28.949 -23.131 -15.460  0.00  0.00    +0.024 C 
ATOM      8  C   UNL     1      31.113 -22.821 -16.415  0.00  0.00    +0.102 C 
ATOM      9  C   UNL     1      29.947 -23.884 -14.584  0.00  0.00    +0.102 C 
ATOM     10  C   UNL     1      32.451 -23.757 -14.509  0.00  0.00    +0.149 C 
ATOM     11  C   UNL     1      34.750 -23.579 -14.555  0.00  0.00    +0.204 C 
ATOM     12  C   UNL     1      34.791 -24.238 -13.321  0.00  0.00    +0.104 C 
ATOM     13  C   UNL     1      33.588 -24.624 -12.753  0.00  0.00    +0.119 C 
ATOM     14  C   UNL     1      37.171 -23.439 -14.513  0.00  0.00    +0.077 C 
ATOM     15  C   UNL     1      36.079 -24.516 -12.644  0.00  0.00    +0.208 C 
ATOM     16  C   UNL     1      37.312 -24.061 -13.336  0.00  0.00    +0.129 C 
ENDROOT
BRANCH  16  18
ATOM     17  O   UNL     1      39.512 -24.959 -13.317  0.00  0.00    -0.245 OA
ATOM     18  C   UNL     1      38.660 -24.256 -12.803  0.00  0.00    +0.342 C 
BRANCH  18  19
ATOM     19  O   UNL     1      38.806 -23.543 -11.666  0.00  0.00    -0.477 OA
ATOM     20  H   UNL     1      38.771 -23.974 -10.834  0.00  0.00    +0.295 HD
ENDBRANCH  18  19
ENDBRANCH  16  18
BRANCH   3  21
ATOM     21  C   UNL     1      35.877 -22.494 -16.432  0.00  0.00    +0.098 C 
ATOM     22  C   UNL     1      37.168 -21.783 -16.782  0.00  0.00    +0.024 C 
ENDBRANCH   3  21
TORSDOF 3
ENDMDL
MODEL 5
REMARK VINA RESULT:      -8.4      3.649      6.477
REMARK  Name = 4855
REMARK  3 active torsions:
REMARK  status: ('A' for Active; 'I' for Inactive)
REMARK    1  A    between atoms: N_3  and  C_21
REMARK    2  A    between atoms: C_16  and  C_18
REMARK    3  A    between atoms: C_18  and  O_19
REMARK                            x       y       z     vdW  Elec       q    Type
REMARK                         _______ _______ _______ _____ _____    ______ ____
ROOT
ATOM      1  O   UNL     1      36.432 -20.552 -19.503  0.00  0.00    -0.286 OA
ATOM      2  N   UNL     1      36.986 -24.231 -14.489  0.00  0.00    -0.244 N 
ATOM      3  N   UNL     1      33.683 -22.868 -17.602  0.00  0.00    -0.260 N 
ATOM      4  N   UNL     1      35.358 -23.575 -16.003  0.00  0.00    -0.322 NA
ATOM      5  N   UNL     1      37.620 -22.754 -16.153  0.00  0.00    -0.170 NA
ATOM      6  C   UNL     1      36.960 -25.903 -12.836  0.00  0.00    +0.024 C 
ATOM      7  C   UNL     1      38.118 -24.959 -12.561  0.00  0.00    +0.024 C 
ATOM      8  C   UNL     1      36.055 -25.084 -13.753  0.00  0.00    +0.102 C 
ATOM      9  C   UNL     1      38.323 -24.263 -13.905  0.00  0.00    +0.102 C 
ATOM     10  C   UNL     1      36.642 -23.487 -15.596  0.00  0.00    +0.149 C 
ATOM     11  C   UNL     1      35.007 -22.846 -17.093  0.00  0.00    +0.204 C 
ATOM     12  C   UNL     1      35.959 -22.052 -17.740  0.00  0.00    +0.104 C 
ATOM     13  C   UNL     1      37.248 -22.041 -17.232  0.00  0.00    +0.119 C 
ATOM     14  C   UNL     1      33.356 -22.116 -18.713  0.00  0.00    +0.077 C 
ATOM     15  C   UNL     1      35.602 -21.248 -18.932  0.00  0.00    +0.208 C 
ATOM     16  C   UNL     1      34.194 -21.328 -19.398  0.00  0.00    +0.129 C 
ENDROOT
BRANCH  16  18
ATOM     17  O   UNL     1      32.499 -20.421 -20.795  0.00  0.00    -0.245 OA
ATOM     18  C   UNL     1      33.680 -20.597 -20.556  0.00  0.00    +0.342 C 
BRANCH  18  19
ATOM     19  O   UNL     1      34.711 -20.156 -21.309  0.00  0.00    -0.477 OA
ATOM     20  H   UNL     1      35.184 -19.388 -21.053  0.00  0.00    +0.295 HD
ENDBRANCH  18  19
ENDBRANCH  16  18
BRANCH   3  21
ATOM     21  C   UNL     1      32.730 -23.710 -16.892  0.00  0.00    +0.098 C 
ATOM     22  C   UNL     1      31.476 -22.943 -16.526  0.00  0.00    +0.024 C 
ENDBRANCH   3  21
TORSDOF 3
ENDMDL
MODEL 6
REMARK VINA RESULT:      -8.3     11.026     14.457
REMARK  Name = 4855
REMARK  3 active torsions:
REMARK  status: ('A' for Active; 'I' for Inactive)
REMARK    1  A    between atoms: N_3  and  C_21
REMARK    2  A    between atoms: C_16  and  C_18
REMARK    3  A    between atoms: C_18  and  O_19
REMARK                            x       y       z     vdW  Elec       q    Type
REMARK                         _______ _______ _______ _____ _____    ______ ____
ROOT
ATOM      1  O   UNL     1      30.947 -10.441 -20.913  0.00  0.00    -0.286 OA
ATOM      2  N   UNL     1      34.076 -15.626 -22.432  0.00  0.00    -0.244 N 
ATOM      3  N   UNL     1      33.397 -11.227 -24.061  0.00  0.00    -0.260 N 
ATOM      4  N   UNL     1      33.755 -13.478 -23.242  0.00  0.00    -0.322 NA
ATOM      5  N   UNL     1      32.686 -14.230 -21.216  0.00  0.00    -0.170 NA
ATOM      6  C   UNL     1      35.587 -17.304 -23.087  0.00  0.00    +0.024 C 
ATOM      7  C   UNL     1      34.491 -17.933 -22.243  0.00  0.00    +0.024 C 
ATOM      8  C   UNL     1      34.966 -15.983 -23.534  0.00  0.00    +0.102 C 
ATOM      9  C   UNL     1      33.896 -16.737 -21.502  0.00  0.00    +0.102 C 
ATOM     10  C   UNL     1      33.479 -14.392 -22.289  0.00  0.00    +0.149 C 
ATOM     11  C   UNL     1      33.173 -12.259 -23.113  0.00  0.00    +0.204 C 
ATOM     12  C   UNL     1      32.331 -11.998 -22.027  0.00  0.00    +0.104 C 
ATOM     13  C   UNL     1      32.122 -13.014 -21.110  0.00  0.00    +0.119 C 
ATOM     14  C   UNL     1      32.790  -9.998 -23.902  0.00  0.00    +0.077 C 
ATOM     15  C   UNL     1      31.683 -10.675 -21.862  0.00  0.00    +0.208 C 
ATOM     16  C   UNL     1      31.972  -9.653 -22.900  0.00  0.00    +0.129 C 
ENDROOT
BRANCH  16  18
ATOM     17  O   UNL     1      30.786  -7.801 -23.802  0.00  0.00    -0.245 OA
ATOM     18  C   UNL     1      31.413  -8.302 -22.885  0.00  0.00    +0.342 C 
BRANCH  18  19
ATOM     19  O   UNL     1      31.700  -7.705 -21.708  0.00  0.00    -0.477 OA
ATOM     20  H   UNL     1      31.035  -7.230 -21.248  0.00  0.00    +0.295 HD
ENDBRANCH  18  19
ENDBRANCH  16  18
BRANCH   3  21
ATOM     21  C   UNL     1      34.281 -11.551 -25.173  0.00  0.00    +0.098 C 
ATOM     22  C   UNL     1      35.233 -10.412 -25.476  0.00  0.00    +0.024 C 
ENDBRANCH   3  21
TORSDOF 3
ENDMDL
MODEL 7
REMARK VINA RESULT:      -8.2      7.325     10.430
REMARK  Name = 4855
REMARK  3 active torsions:
REMARK  status: ('A' for Active; 'I' for Inactive)
REMARK    1  A    between atoms: N_3  and  C_21
REMARK    2  A    between atoms: C_16  and  C_18
REMARK    3  A    between atoms: C_18  and  O_19
REMARK                            x       y       z     vdW  Elec       q    Type
REMARK                         _______ _______ _______ _____ _____    ______ ____
ROOT
ATOM      1  O   UNL     1      35.385 -16.956 -20.050  0.00  0.00    -0.286 OA
ATOM      2  N   UNL     1      33.685 -14.017 -25.290  0.00  0.00    -0.244 N 
ATOM      3  N   UNL     1      34.547 -18.416 -23.751  0.00  0.00    -0.260 N 
ATOM      4  N   UNL     1      34.103 -16.175 -24.554  0.00  0.00    -0.322 NA
ATOM      5  N   UNL     1      34.304 -14.281 -23.076  0.00  0.00    -0.170 NA
ATOM      6  C   UNL     1      32.752 -13.235 -27.301  0.00  0.00    +0.024 C 
ATOM      7  C   UNL     1      33.455 -12.082 -26.606  0.00  0.00    +0.024 C 
ATOM      8  C   UNL     1      33.371 -14.466 -26.645  0.00  0.00    +0.102 C 
ATOM      9  C   UNL     1      33.570 -12.568 -25.162  0.00  0.00    +0.102 C 
ATOM     10  C   UNL     1      34.047 -14.859 -24.261  0.00  0.00    +0.149 C 
ATOM     11  C   UNL     1      34.458 -17.015 -23.549  0.00  0.00    +0.204 C 
ATOM     12  C   UNL     1      34.745 -16.503 -22.279  0.00  0.00    +0.104 C 
ATOM     13  C   UNL     1      34.653 -15.134 -22.095  0.00  0.00    +0.119 C 
ATOM     14  C   UNL     1      34.911 -19.245 -22.709  0.00  0.00    +0.077 C 
ATOM     15  C   UNL     1      35.134 -17.398 -21.164  0.00  0.00    +0.208 C 
ATOM     16  C   UNL     1      35.204 -18.851 -21.463  0.00  0.00    +0.129 C 
ENDROOT
BRANCH  16  18
ATOM     17  O   UNL     1      34.846 -20.774 -20.113  0.00  0.00    -0.245 OA
ATOM     18  C   UNL     1      35.572 -19.866 -20.476  0.00  0.00    +0.342 C 
BRANCH  18  19
ATOM     19  O   UNL     1      36.829 -19.637 -20.037  0.00  0.00    -0.477 OA
ATOM     20  H   UNL     1      36.968 -19.179 -19.231  0.00  0.00    +0.295 HD
ENDBRANCH  18  19
ENDBRANCH  16  18
BRANCH   3  21
ATOM     21  C   UNL     1      34.240 -18.897 -25.092  0.00  0.00    +0.098 C 
ATOM     22  C   UNL     1      34.822 -20.274 -25.336  0.00  0.00    +0.024 C 
ENDBRANCH   3  21
TORSDOF 3
ENDMDL
MODEL 8
REMARK VINA RESULT:      -8.1      1.301      2.973
REMARK  Name = 4855
REMARK  3 active torsions:
REMARK  status: ('A' for Active; 'I' for Inactive)
REMARK    1  A    between atoms: N_3  and  C_21
REMARK    2  A    between atoms: C_16  and  C_18
REMARK    3  A    between atoms: C_18  and  O_19
REMARK                            x       y       z     vdW  Elec       q    Type
REMARK                         _______ _______ _______ _____ _____    ______ ____
ROOT
ATOM      1  O   UNL     1      33.469 -24.615 -13.006  0.00  0.00    -0.286 OA
ATOM      2  N   UNL     1      34.687 -21.984 -18.535  0.00  0.00    -0.244 N 
ATOM      3  N   UNL     1      37.013 -23.752 -14.804  0.00  0.00    -0.260 N 
ATOM      4  N   UNL     1      35.840 -22.845 -16.718  0.00  0.00    -0.322 NA
ATOM      5  N   UNL     1      33.430 -22.820 -16.781  0.00  0.00    -0.170 NA
ATOM      6  C   UNL     1      35.446 -21.310 -20.656  0.00  0.00    +0.024 C 
ATOM      7  C   UNL     1      34.054 -20.744 -20.430  0.00  0.00    +0.024 C 
ATOM      8  C   UNL     1      35.919 -21.643 -19.243  0.00  0.00    +0.102 C 
ATOM      9  C   UNL     1      33.503 -21.619 -19.307  0.00  0.00    +0.102 C 
ATOM     10  C   UNL     1      34.649 -22.575 -17.291  0.00  0.00    +0.149 C 
ATOM     11  C   UNL     1      35.816 -23.427 -15.493  0.00  0.00    +0.204 C 
ATOM     12  C   UNL     1      34.592 -23.720 -14.882  0.00  0.00    +0.104 C 
ATOM     13  C   UNL     1      33.432 -23.398 -15.566  0.00  0.00    +0.119 C 
ATOM     14  C   UNL     1      36.956 -24.343 -13.558  0.00  0.00    +0.077 C 
ATOM     15  C   UNL     1      34.537 -24.356 -13.544  0.00  0.00    +0.208 C 
ATOM     16  C   UNL     1      35.837 -24.661 -12.894  0.00  0.00    +0.129 C 
ENDROOT
BRANCH  16  18
ATOM     17  O   UNL     1      35.340 -24.938 -10.586  0.00  0.00    -0.245 OA
ATOM     18  C   UNL     1      35.958 -25.286 -11.577  0.00  0.00    +0.342 C 
BRANCH  18  19
ATOM     19  O   UNL     1      36.852 -26.297 -11.633  0.00  0.00    -0.477 OA
ATOM     20  H   UNL     1      36.687 -27.095 -11.172  0.00  0.00    +0.295 HD
ENDBRANCH  18  19
ENDBRANCH  16  18
BRANCH   3  21
ATOM     21  C   UNL     1      38.260 -23.425 -15.483  0.00  0.00    +0.098 C 
ATOM     22  C   UNL     1      39.310 -24.494 -15.260  0.00  0.00    +0.024 C 
ENDBRANCH   3  21
TORSDOF 3
ENDMDL
MODEL 9
REMARK VINA RESULT:      -8.1      9.621     11.910
REMARK  Name = 4855
REMARK  3 active torsions:
REMARK  status: ('A' for Active; 'I' for Inactive)
REMARK    1  A    between atoms: N_3  and  C_21
REMARK    2  A    between atoms: C_16  and  C_18
REMARK    3  A    between atoms: C_18  and  O_19
REMARK                            x       y       z     vdW  Elec       q    Type
REMARK                         _______ _______ _______ _____ _____    ______ ____
ROOT
ATOM      1  O   UNL     1      34.603 -17.861 -21.112  0.00  0.00    -0.286 OA
ATOM      2  N   UNL     1      31.971 -12.199 -21.110  0.00  0.00    -0.244 N 
ATOM      3  N   UNL     1      33.755 -15.335 -24.183  0.00  0.00    -0.260 N 
ATOM      4  N   UNL     1      32.840 -13.722 -22.627  0.00  0.00    -0.322 NA
ATOM      5  N   UNL     1      32.804 -14.184 -20.261  0.00  0.00    -0.170 NA
ATOM      6  C   UNL     1      30.751 -10.219 -21.451  0.00  0.00    +0.024 C 
ATOM      7  C   UNL     1      31.281 -10.229 -20.027  0.00  0.00    +0.024 C 
ATOM      8  C   UNL     1      31.638 -11.239 -22.160  0.00  0.00    +0.102 C 
ATOM      9  C   UNL     1      31.600 -11.703 -19.788  0.00  0.00    +0.102 C 
ATOM     10  C   UNL     1      32.564 -13.422 -21.341  0.00  0.00    +0.149 C 
ATOM     11  C   UNL     1      33.424 -14.922 -22.867  0.00  0.00    +0.204 C 
ATOM     12  C   UNL     1      33.713 -15.785 -21.804  0.00  0.00    +0.104 C 
ATOM     13  C   UNL     1      33.383 -15.370 -20.525  0.00  0.00    +0.119 C 
ATOM     14  C   UNL     1      34.350 -16.563 -24.395  0.00  0.00    +0.077 C 
ATOM     15  C   UNL     1      34.349 -17.102 -22.038  0.00  0.00    +0.208 C 
ATOM     16  C   UNL     1      34.663 -17.454 -23.447  0.00  0.00    +0.129 C 
ENDROOT
BRANCH  16  18
ATOM     17  O   UNL     1      34.777 -19.541 -24.578  0.00  0.00    -0.245 OA
ATOM     18  C   UNL     1      35.292 -18.712 -23.848  0.00  0.00    +0.342 C 
BRANCH  18  19
ATOM     19  O   UNL     1      36.516 -18.808 -23.286  0.00  0.00    -0.477 OA
ATOM     20  H   UNL     1      36.659 -18.492 -22.415  0.00  0.00    +0.295 HD
ENDBRANCH  18  19
ENDBRANCH  16  18
BRANCH   3  21
ATOM     21  C   UNL     1      33.435 -14.400 -25.254  0.00  0.00    +0.098 C 
ATOM     22  C   UNL     1      32.836 -15.109 -26.450  0.00  0.00    +0.024 C 
ENDBRANCH   3  21
TORSDOF 3
ENDMDL
