MODEL 1
REMARK VINA RESULT:      -6.0      0.000      0.000
REMARK  Name = 444809
REMARK  6 active torsions:
REMARK  status: ('A' for Active; 'I' for Inactive)
REMARK    1  A    between atoms: C_2  and  O_9
REMARK    2  A    between atoms: C_3  and  O_11
REMARK    3  A    between atoms: C_4  and  C_15
REMARK    4  A    between atoms: C_5  and  O_13
REMARK    5  A    between atoms: C_6  and  S_7
REMARK    6  A    between atoms: C_15  and  O_16
REMARK                            x       y       z     vdW  Elec       q    Type
REMARK                         _______ _______ _______ _____ _____    ______ ____
ROOT
ATOM      1  O   UNL     1      38.763 -24.391 -13.045  0.00  0.00    -0.340 OA
ATOM      2  C   UNL     1      38.102 -26.185 -14.539  0.00  0.00    +0.169 C 
ATOM      3  C   UNL     1      36.735 -26.253 -13.859  0.00  0.00    +0.170 C 
ATOM      4  C   UNL     1      39.162 -25.659 -13.568  0.00  0.00    +0.175 C 
ATOM      5  C   UNL     1      36.393 -24.936 -13.154  0.00  0.00    +0.177 C 
ATOM      6  C   UNL     1      37.560 -24.466 -12.279  0.00  0.00    +0.188 C 
ENDROOT
BRANCH   6   7
ATOM      7  S   UNL     1      37.188 -22.827 -11.556  0.00  0.00    -0.137 S 
ATOM      8  H   UNL     1      38.328 -22.287 -11.045  0.00  0.00    +0.105 HD
ENDBRANCH   6   7
BRANCH   2   9
ATOM      9  O   UNL     1      38.481 -27.487 -14.978  0.00  0.00    -0.379 OA
ATOM     10  H   UNL     1      39.142 -27.411 -15.684  0.00  0.00    +0.211 HD
ENDBRANCH   2   9
BRANCH   3  11
ATOM     11  O   UNL     1      35.726 -26.501 -14.840  0.00  0.00    -0.379 OA
ATOM     12  H   UNL     1      35.584 -25.700 -15.368  0.00  0.00    +0.211 HD
ENDBRANCH   3  11
BRANCH   5  13
ATOM     13  O   UNL     1      35.240 -25.144 -12.341  0.00  0.00    -0.379 OA
ATOM     14  H   UNL     1      34.775 -24.301 -12.216  0.00  0.00    +0.211 HD
ENDBRANCH   5  13
BRANCH   4  15
ATOM     15  C   UNL     1      40.511 -25.467 -14.254  0.00  0.00    +0.169 C 
BRANCH  15  16
ATOM     16  O   UNL     1      41.204 -26.701 -14.240  0.00  0.00    -0.379 OA
ATOM     17  H   UNL     1      40.566 -27.430 -14.177  0.00  0.00    +0.211 HD
ENDBRANCH  15  16
ENDBRANCH   4  15
TORSDOF 6
ENDMDL
MODEL 2
REMARK VINA RESULT:      -5.8      2.264      3.532
REMARK  Name = 444809
REMARK  6 active torsions:
REMARK  status: ('A' for Active; 'I' for Inactive)
REMARK    1  A    between atoms: C_2  and  O_9
REMARK    2  A    between atoms: C_3  and  O_11
REMARK    3  A    between atoms: C_4  and  C_15
REMARK    4  A    between atoms: C_5  and  O_13
REMARK    5  A    between atoms: C_6  and  S_7
REMARK    6  A    between atoms: C_15  and  O_16
REMARK                            x       y       z     vdW  Elec       q    Type
REMARK                         _______ _______ _______ _____ _____    ______ ____
ROOT
ATOM      1  O   UNL     1      35.993 -23.548 -13.600  0.00  0.00    -0.340 OA
ATOM      2  C   UNL     1      37.688 -25.112 -12.848  0.00  0.00    +0.169 C 
ATOM      3  C   UNL     1      37.164 -26.158 -13.832  0.00  0.00    +0.170 C 
ATOM      4  C   UNL     1      36.571 -24.149 -12.440  0.00  0.00    +0.175 C 
ATOM      5  C   UNL     1      36.395 -25.507 -14.986  0.00  0.00    +0.177 C 
ATOM      6  C   UNL     1      35.367 -24.502 -14.459  0.00  0.00    +0.188 C 
ENDROOT
BRANCH   6   7
ATOM      7  S   UNL     1      34.557 -23.636 -15.853  0.00  0.00    -0.137 S 
ATOM      8  H   UNL     1      34.081 -22.436 -15.426  0.00  0.00    +0.105 HD
ENDBRANCH   6   7
BRANCH   2   9
ATOM      9  O   UNL     1      38.188 -25.762 -11.682  0.00  0.00    -0.379 OA
ATOM     10  H   UNL     1      37.830 -25.329 -10.892  0.00  0.00    +0.211 HD
ENDBRANCH   2   9
BRANCH   3  11
ATOM     11  O   UNL     1      38.264 -26.882 -14.388  0.00  0.00    -0.379 OA
ATOM     12  H   UNL     1      38.575 -26.432 -15.189  0.00  0.00    +0.211 HD
ENDBRANCH   3  11
BRANCH   5  13
ATOM     13  O   UNL     1      35.729 -26.533 -15.721  0.00  0.00    -0.379 OA
ATOM     14  H   UNL     1      34.772 -26.374 -15.701  0.00  0.00    +0.211 HD
ENDBRANCH   5  13
BRANCH   4  15
ATOM     15  C   UNL     1      37.092 -23.022 -11.553  0.00  0.00    +0.169 C 
BRANCH  15  16
ATOM     16  O   UNL     1      38.502 -22.976 -11.665  0.00  0.00    -0.379 OA
ATOM     17  H   UNL     1      38.771 -23.344 -12.521  0.00  0.00    +0.211 HD
ENDBRANCH  15  16
ENDBRANCH   4  15
TORSDOF 6
ENDMDL
MODEL 3
REMARK VINA RESULT:      -5.8      2.240      3.196
REMARK  Name = 444809
REMARK  6 active torsions:
REMARK  status: ('A' for Active; 'I' for Inactive)
REMARK    1  A    between atoms: C_2  and  O_9
REMARK    2  A    between atoms: C_3  and  O_11
REMARK    3  A    between atoms: C_4  and  C_15
REMARK    4  A    between atoms: C_5  and  O_13
REMARK    5  A    between atoms: C_6  and  S_7
REMARK    6  A    between atoms: C_15  and  O_16
REMARK                            x       y       z     vdW  Elec       q    Type
REMARK                         _______ _______ _______ _____ _____    ______ ____
ROOT
ATOM      1  O   UNL     1      36.483 -24.316 -14.570  0.00  0.00    -0.340 OA
ATOM      2  C   UNL     1      37.058 -24.942 -12.298  0.00  0.00    +0.169 C 
ATOM      3  C   UNL     1      35.763 -24.306 -11.792  0.00  0.00    +0.170 C 
ATOM      4  C   UNL     1      37.522 -24.266 -13.590  0.00  0.00    +0.175 C 
ATOM      5  C   UNL     1      34.713 -24.211 -12.904  0.00  0.00    +0.177 C 
ATOM      6  C   UNL     1      35.316 -23.597 -14.172  0.00  0.00    +0.188 C 
ENDROOT
BRANCH   6   7
ATOM      7  S   UNL     1      34.088 -23.618 -15.529  0.00  0.00    -0.137 S 
ATOM      8  H   UNL     1      33.044 -24.418 -15.184  0.00  0.00    +0.105 HD
ENDBRANCH   6   7
BRANCH   2   9
ATOM      9  O   UNL     1      38.076 -24.802 -11.310  0.00  0.00    -0.379 OA
ATOM     10  H   UNL     1      38.645 -24.050 -11.537  0.00  0.00    +0.211 HD
ENDBRANCH   2   9
BRANCH   3  11
ATOM     11  O   UNL     1      35.219 -25.107 -10.740  0.00  0.00    -0.379 OA
ATOM     12  H   UNL     1      34.281 -25.279 -10.918  0.00  0.00    +0.211 HD
ENDBRANCH   3  11
BRANCH   5  13
ATOM     13  O   UNL     1      33.639 -23.394 -12.442  0.00  0.00    -0.379 OA
ATOM     14  H   UNL     1      32.924 -23.958 -12.108  0.00  0.00    +0.211 HD
ENDBRANCH   5  13
BRANCH   4  15
ATOM     15  C   UNL     1      38.745 -24.958 -14.183  0.00  0.00    +0.169 C 
BRANCH  15  16
ATOM     16  O   UNL     1      38.861 -26.244 -13.602  0.00  0.00    -0.379 OA
ATOM     17  H   UNL     1      39.727 -26.328 -13.173  0.00  0.00    +0.211 HD
ENDBRANCH  15  16
ENDBRANCH   4  15
TORSDOF 6
ENDMDL
MODEL 4
REMARK VINA RESULT:      -5.7      2.360      2.803
REMARK  Name = 444809
REMARK  6 active torsions:
REMARK  status: ('A' for Active; 'I' for Inactive)
REMARK    1  A    between atoms: C_2  and  O_9
REMARK    2  A    between atoms: C_3  and  O_11
REMARK    3  A    between atoms: C_4  and  C_15
REMARK    4  A    between atoms: C_5  and  O_13
REMARK    5  A    between atoms: C_6  and  S_7
REMARK    6  A    between atoms: C_15  and  O_16
REMARK                            x       y       z     vdW  Elec       q    Type
REMARK                         _______ _______ _______ _____ _____    ______ ____
ROOT
ATOM      1  O   UNL     1      38.051 -23.979 -14.972  0.00  0.00    -0.340 OA
ATOM      2  C   UNL     1      36.661 -25.446 -13.630  0.00  0.00    +0.169 C 
ATOM      3  C   UNL     1      35.531 -24.417 -13.668  0.00  0.00    +0.170 C 
ATOM      4  C   UNL     1      38.021 -24.759 -13.775  0.00  0.00    +0.175 C 
ATOM      5  C   UNL     1      35.673 -23.474 -14.868  0.00  0.00    +0.177 C 
ATOM      6  C   UNL     1      37.097 -22.917 -14.960  0.00  0.00    +0.188 C 
ENDROOT
BRANCH   6   7
ATOM      7  S   UNL     1      37.284 -21.905 -16.473  0.00  0.00    -0.137 S 
ATOM      8  H   UNL     1      37.873 -20.721 -16.157  0.00  0.00    +0.105 HD
ENDBRANCH   6   7
BRANCH   2   9
ATOM      9  O   UNL     1      36.626 -26.145 -12.388  0.00  0.00    -0.379 OA
ATOM     10  H   UNL     1      36.236 -27.023 -12.522  0.00  0.00    +0.211 HD
ENDBRANCH   2   9
BRANCH   3  11
ATOM     11  O   UNL     1      34.276 -25.091 -13.784  0.00  0.00    -0.379 OA
ATOM     12  H   UNL     1      33.607 -24.474 -14.116  0.00  0.00    +0.211 HD
ENDBRANCH   3  11
BRANCH   5  13
ATOM     13  O   UNL     1      34.748 -22.399 -14.710  0.00  0.00    -0.379 OA
ATOM     14  H   UNL     1      34.621 -21.953 -15.562  0.00  0.00    +0.211 HD
ENDBRANCH   5  13
BRANCH   4  15
ATOM     15  C   UNL     1      39.159 -25.772 -13.861  0.00  0.00    +0.169 C 
BRANCH  15  16
ATOM     16  O   UNL     1      38.711 -26.892 -14.601  0.00  0.00    -0.379 OA
ATOM     17  H   UNL     1      38.386 -27.574 -13.992  0.00  0.00    +0.211 HD
ENDBRANCH  15  16
ENDBRANCH   4  15
TORSDOF 6
ENDMDL
MODEL 5
REMARK VINA RESULT:      -5.7     11.062     12.058
REMARK  Name = 444809
REMARK  6 active torsions:
REMARK  status: ('A' for Active; 'I' for Inactive)
REMARK    1  A    between atoms: C_2  and  O_9
REMARK    2  A    between atoms: C_3  and  O_11
REMARK    3  A    between atoms: C_4  and  C_15
REMARK    4  A    between atoms: C_5  and  O_13
REMARK    5  A    between atoms: C_6  and  S_7
REMARK    6  A    between atoms: C_15  and  O_16
REMARK                            x       y       z     vdW  Elec       q    Type
REMARK                         _______ _______ _______ _____ _____    ______ ____
ROOT
ATOM      1  O   UNL     1      43.041 -14.161 -17.837  0.00  0.00    -0.340 OA
ATOM      2  C   UNL     1      41.850 -16.122 -17.050  0.00  0.00    +0.169 C 
ATOM      3  C   UNL     1      41.457 -15.376 -15.775  0.00  0.00    +0.170 C 
ATOM      4  C   UNL     1      43.159 -15.568 -17.618  0.00  0.00    +0.175 C 
ATOM      5  C   UNL     1      41.501 -13.858 -15.978  0.00  0.00    +0.177 C 
ATOM      6  C   UNL     1      42.821 -13.432 -16.630  0.00  0.00    +0.188 C 
ENDROOT
BRANCH   6   7
ATOM      7  S   UNL     1      42.798 -11.638 -16.989  0.00  0.00    -0.137 S 
ATOM      8  H   UNL     1      42.320 -11.433 -18.246  0.00  0.00    +0.105 HD
ENDBRANCH   6   7
BRANCH   2   9
ATOM      9  O   UNL     1      42.022 -17.506 -16.758  0.00  0.00    -0.379 OA
ATOM     10  H   UNL     1      41.175 -17.967 -16.866  0.00  0.00    +0.211 HD
ENDBRANCH   2   9
BRANCH   3  11
ATOM     11  O   UNL     1      40.123 -15.732 -15.407  0.00  0.00    -0.379 OA
ATOM     12  H   UNL     1      39.900 -15.318 -14.559  0.00  0.00    +0.211 HD
ENDBRANCH   3  11
BRANCH   5  13
ATOM     13  O   UNL     1      41.372 -13.228 -14.704  0.00  0.00    -0.379 OA
ATOM     14  H   UNL     1      42.008 -12.498 -14.639  0.00  0.00    +0.211 HD
ENDBRANCH   5  13
BRANCH   4  15
ATOM     15  C   UNL     1      43.513 -16.212 -18.955  0.00  0.00    +0.169 C 
BRANCH  15  16
ATOM     16  O   UNL     1      42.313 -16.506 -19.645  0.00  0.00    -0.379 OA
ATOM     17  H   UNL     1      42.398 -17.364 -20.091  0.00  0.00    +0.211 HD
ENDBRANCH  15  16
ENDBRANCH   4  15
TORSDOF 6
ENDMDL
MODEL 6
REMARK VINA RESULT:      -5.6     13.260     13.819
REMARK  Name = 444809
REMARK  6 active torsions:
REMARK  status: ('A' for Active; 'I' for Inactive)
REMARK    1  A    between atoms: C_2  and  O_9
REMARK    2  A    between atoms: C_3  and  O_11
REMARK    3  A    between atoms: C_4  and  C_15
REMARK    4  A    between atoms: C_5  and  O_13
REMARK    5  A    between atoms: C_6  and  S_7
REMARK    6  A    between atoms: C_15  and  O_16
REMARK                            x       y       z     vdW  Elec       q    Type
REMARK                         _______ _______ _______ _____ _____    ______ ____
ROOT
ATOM      1  O   UNL     1      33.666 -15.560 -23.622  0.00  0.00    -0.340 OA
ATOM      2  C   UNL     1      34.967 -17.534 -23.077  0.00  0.00    +0.169 C 
ATOM      3  C   UNL     1      35.288 -16.947 -21.703  0.00  0.00    +0.170 C 
ATOM      4  C   UNL     1      34.707 -16.419 -24.093  0.00  0.00    +0.175 C 
ATOM      5  C   UNL     1      34.252 -15.897 -21.285  0.00  0.00    +0.177 C 
ATOM      6  C   UNL     1      34.013 -14.887 -22.412  0.00  0.00    +0.188 C 
ENDROOT
BRANCH   6   7
ATOM      7  S   UNL     1      32.677 -13.727 -21.947  0.00  0.00    -0.137 S 
ATOM      8  H   UNL     1      33.020 -12.466 -22.323  0.00  0.00    +0.105 HD
ENDBRANCH   6   7
BRANCH   2   9
ATOM      9  O   UNL     1      36.064 -18.323 -23.526  0.00  0.00    -0.379 OA
ATOM     10  H   UNL     1      36.791 -18.262 -22.886  0.00  0.00    +0.211 HD
ENDBRANCH   2   9
BRANCH   3  11
ATOM     11  O   UNL     1      35.278 -17.989 -20.725  0.00  0.00    -0.379 OA
ATOM     12  H   UNL     1      35.974 -17.825 -20.070  0.00  0.00    +0.211 HD
ENDBRANCH   3  11
BRANCH   5  13
ATOM     13  O   UNL     1      34.739 -15.218 -20.128  0.00  0.00    -0.379 OA
ATOM     14  H   UNL     1      34.481 -14.283 -20.171  0.00  0.00    +0.211 HD
ENDBRANCH   5  13
BRANCH   4  15
ATOM     15  C   UNL     1      34.265 -16.975 -25.443  0.00  0.00    +0.169 C 
BRANCH  15  16
ATOM     16  O   UNL     1      33.801 -15.904 -26.242  0.00  0.00    -0.379 OA
ATOM     17  H   UNL     1      33.192 -16.244 -26.917  0.00  0.00    +0.211 HD
ENDBRANCH  15  16
ENDBRANCH   4  15
TORSDOF 6
ENDMDL
MODEL 7
REMARK VINA RESULT:      -5.6      2.662      3.242
REMARK  Name = 444809
REMARK  6 active torsions:
REMARK  status: ('A' for Active; 'I' for Inactive)
REMARK    1  A    between atoms: C_2  and  O_9
REMARK    2  A    between atoms: C_3  and  O_11
REMARK    3  A    between atoms: C_4  and  C_15
REMARK    4  A    between atoms: C_5  and  O_13
REMARK    5  A    between atoms: C_6  and  S_7
REMARK    6  A    between atoms: C_15  and  O_16
REMARK                            x       y       z     vdW  Elec       q    Type
REMARK                         _______ _______ _______ _____ _____    ______ ____
ROOT
ATOM      1  O   UNL     1      37.697 -23.190 -14.098  0.00  0.00    -0.340 OA
ATOM      2  C   UNL     1      36.950 -25.404 -13.447  0.00  0.00    +0.169 C 
ATOM      3  C   UNL     1      35.838 -25.341 -14.494  0.00  0.00    +0.170 C 
ATOM      4  C   UNL     1      37.330 -23.998 -12.978  0.00  0.00    +0.175 C 
ATOM      5  C   UNL     1      36.170 -24.340 -15.605  0.00  0.00    +0.177 C 
ATOM      6  C   UNL     1      36.619 -22.999 -15.015  0.00  0.00    +0.188 C 
ENDROOT
BRANCH   6   7
ATOM      7  S   UNL     1      37.142 -21.864 -16.351  0.00  0.00    -0.137 S 
ATOM      8  H   UNL     1      37.763 -22.573 -17.332  0.00  0.00    +0.105 HD
ENDBRANCH   6   7
BRANCH   2   9
ATOM      9  O   UNL     1      36.505 -26.162 -12.324  0.00  0.00    -0.379 OA
ATOM     10  H   UNL     1      36.660 -25.657 -11.511  0.00  0.00    +0.211 HD
ENDBRANCH   2   9
BRANCH   3  11
ATOM     11  O   UNL     1      35.676 -26.628 -15.095  0.00  0.00    -0.379 OA
ATOM     12  H   UNL     1      35.052 -26.563 -15.834  0.00  0.00    +0.211 HD
ENDBRANCH   3  11
BRANCH   5  13
ATOM     13  O   UNL     1      35.003 -24.145 -16.402  0.00  0.00    -0.379 OA
ATOM     14  H   UNL     1      35.027 -23.261 -16.800  0.00  0.00    +0.211 HD
ENDBRANCH   5  13
BRANCH   4  15
ATOM     15  C   UNL     1      38.519 -24.022 -12.023  0.00  0.00    +0.169 C 
BRANCH  15  16
ATOM     16  O   UNL     1      38.814 -22.693 -11.636  0.00  0.00    -0.379 OA
ATOM     17  H   UNL     1      38.550 -22.084 -12.344  0.00  0.00    +0.211 HD
ENDBRANCH  15  16
ENDBRANCH   4  15
TORSDOF 6
ENDMDL
MODEL 8
REMARK VINA RESULT:      -5.5      2.593      4.653
REMARK  Name = 444809
REMARK  6 active torsions:
REMARK  status: ('A' for Active; 'I' for Inactive)
REMARK    1  A    between atoms: C_2  and  O_9
REMARK    2  A    between atoms: C_3  and  O_11
REMARK    3  A    between atoms: C_4  and  C_15
REMARK    4  A    between atoms: C_5  and  O_13
REMARK    5  A    between atoms: C_6  and  S_7
REMARK    6  A    between atoms: C_15  and  O_16
REMARK                            x       y       z     vdW  Elec       q    Type
REMARK                         _______ _______ _______ _____ _____    ______ ____
ROOT
ATOM      1  O   UNL     1      35.548 -23.229 -14.932  0.00  0.00    -0.340 OA
ATOM      2  C   UNL     1      36.494 -24.584 -13.157  0.00  0.00    +0.169 C 
ATOM      3  C   UNL     1      37.808 -24.687 -13.930  0.00  0.00    +0.170 C 
ATOM      4  C   UNL     1      35.319 -24.378 -14.115  0.00  0.00    +0.175 C 
ATOM      5  C   UNL     1      37.962 -23.536 -14.930  0.00  0.00    +0.177 C 
ATOM      6  C   UNL     1      36.693 -23.371 -15.773  0.00  0.00    +0.188 C 
ENDROOT
BRANCH   6   7
ATOM      7  S   UNL     1      36.843 -21.908 -16.862  0.00  0.00    -0.137 S 
ATOM      8  H   UNL     1      35.622 -21.329 -17.014  0.00  0.00    +0.105 HD
ENDBRANCH   6   7
BRANCH   2   9
ATOM      9  O   UNL     1      36.283 -25.783 -12.416  0.00  0.00    -0.379 OA
ATOM     10  H   UNL     1      35.528 -25.665 -11.817  0.00  0.00    +0.211 HD
ENDBRANCH   2   9
BRANCH   3  11
ATOM     11  O   UNL     1      38.905 -24.626 -13.016  0.00  0.00    -0.379 OA
ATOM     12  H   UNL     1      38.570 -24.649 -12.107  0.00  0.00    +0.211 HD
ENDBRANCH   3  11
BRANCH   5  13
ATOM     13  O   UNL     1      39.069 -23.823 -15.783  0.00  0.00    -0.379 OA
ATOM     14  H   UNL     1      39.820 -24.126 -15.248  0.00  0.00    +0.211 HD
ENDBRANCH   5  13
BRANCH   4  15
ATOM     15  C   UNL     1      34.010 -24.151 -13.364  0.00  0.00    +0.169 C 
BRANCH  15  16
ATOM     16  O   UNL     1      34.304 -23.542 -12.120  0.00  0.00    -0.379 OA
ATOM     17  H   UNL     1      33.512 -23.553 -11.560  0.00  0.00    +0.211 HD
ENDBRANCH  15  16
ENDBRANCH   4  15
TORSDOF 6
ENDMDL
MODEL 9
REMARK VINA RESULT:      -5.5     13.949     14.566
REMARK  Name = 444809
REMARK  6 active torsions:
REMARK  status: ('A' for Active; 'I' for Inactive)
REMARK    1  A    between atoms: C_2  and  O_9
REMARK    2  A    between atoms: C_3  and  O_11
REMARK    3  A    between atoms: C_4  and  C_15
REMARK    4  A    between atoms: C_5  and  O_13
REMARK    5  A    between atoms: C_6  and  S_7
REMARK    6  A    between atoms: C_15  and  O_16
REMARK                            x       y       z     vdW  Elec       q    Type
REMARK                         _______ _______ _______ _____ _____    ______ ____
ROOT
ATOM      1  O   UNL     1      33.182 -15.093 -23.346  0.00  0.00    -0.340 OA
ATOM      2  C   UNL     1      34.226 -16.811 -24.702  0.00  0.00    +0.169 C 
ATOM      3  C   UNL     1      35.043 -17.273 -23.495  0.00  0.00    +0.170 C 
ATOM      4  C   UNL     1      33.869 -15.329 -24.576  0.00  0.00    +0.175 C 
ATOM      5  C   UNL     1      34.377 -16.862 -22.178  0.00  0.00    +0.177 C 
ATOM      6  C   UNL     1      33.987 -15.380 -22.202  0.00  0.00    +0.188 C 
ENDROOT
BRANCH   6   7
ATOM      7  S   UNL     1      33.072 -14.942 -20.680  0.00  0.00    -0.137 S 
ATOM      8  H   UNL     1      33.280 -15.897 -19.734  0.00  0.00    +0.105 HD
ENDBRANCH   6   7
BRANCH   2   9
ATOM      9  O   UNL     1      34.985 -17.005 -25.893  0.00  0.00    -0.379 OA
ATOM     10  H   UNL     1      35.362 -16.158 -26.178  0.00  0.00    +0.211 HD
ENDBRANCH   2   9
BRANCH   3  11
ATOM     11  O   UNL     1      35.148 -18.698 -23.508  0.00  0.00    -0.379 OA
ATOM     12  H   UNL     1      35.649 -18.979 -24.290  0.00  0.00    +0.211 HD
ENDBRANCH   3  11
BRANCH   5  13
ATOM     13  O   UNL     1      35.298 -17.096 -21.113  0.00  0.00    -0.379 OA
ATOM     14  H   UNL     1      35.540 -16.251 -20.703  0.00  0.00    +0.211 HD
ENDBRANCH   5  13
BRANCH   4  15
ATOM     15  C   UNL     1      32.953 -14.870 -25.707  0.00  0.00    +0.169 C 
BRANCH  15  16
ATOM     16  O   UNL     1      33.693 -14.865 -26.913  0.00  0.00    -0.379 OA
ATOM     17  H   UNL     1      33.656 -13.982 -27.312  0.00  0.00    +0.211 HD
ENDBRANCH  15  16
ENDBRANCH   4  15
TORSDOF 6
ENDMDL
