MODEL 1
REMARK VINA RESULT:     -10.3      0.000      0.000
REMARK  Name = 71354
REMARK  7 active torsions:
REMARK  status: ('A' for Active; 'I' for Inactive)
REMARK    1  A    between atoms: N_1  and  C_19
REMARK    2  A    between atoms: C_5  and  C_10
REMARK    3  A    between atoms: C_10  and  O_11
REMARK    4  A    between atoms: O_11  and  C_12
REMARK    5  A    between atoms: C_12  and  C_16
REMARK    6  A    between atoms: C_16  and  O_17
REMARK    7  A    between atoms: C_19  and  C_20
REMARK                            x       y       z     vdW  Elec       q    Type
REMARK                         _______ _______ _______ _____ _____    ______ ____
ROOT
ATOM      1  N   UNL     1      33.814 -23.386 -17.381  0.00  0.00    -0.247 N 
ATOM      2  N   UNL     1      34.991 -23.484 -16.742  0.00  0.00    -0.171 NA
ATOM      3  C   UNL     1      33.263 -23.208 -15.266  0.00  0.00    +0.035 A 
ATOM      4  C   UNL     1      32.737 -23.219 -16.552  0.00  0.00    +0.079 A 
ATOM      5  C   UNL     1      34.652 -23.375 -15.455  0.00  0.00    +0.110 A 
ATOM      6  C   UNL     1      32.399 -23.050 -14.170  0.00  0.00    +0.003 C 
ATOM      7  C   UNL     1      31.373 -23.079 -16.819  0.00  0.00    +0.019 C 
ATOM      8  C   UNL     1      31.028 -22.909 -14.414  0.00  0.00    +0.000 C 
ATOM      9  C   UNL     1      30.525 -22.922 -15.717  0.00  0.00    +0.002 C 
ENDROOT
BRANCH   5  10
ATOM     10  C   UNL     1      35.701 -23.439 -14.422  0.00  0.00    +0.190 C 
BRANCH  10  11
ATOM     11  O   UNL     1      35.874 -24.758 -13.896  0.00  0.00    -0.341 OA
BRANCH  11  12
ATOM     12  C   UNL     1      37.207 -25.208 -14.069  0.00  0.00    +0.182 C 
ATOM     13  C   UNL     1      37.775 -25.546 -12.693  0.00  0.00    +0.041 C 
ATOM     14  C   UNL     1      37.992 -24.101 -14.764  0.00  0.00    +0.041 C 
BRANCH  12  16
ATOM     15  O   UNL     1      36.194 -26.676 -15.727  0.00  0.00    -0.248 OA
ATOM     16  C   UNL     1      37.110 -26.449 -14.945  0.00  0.00    +0.338 C 
BRANCH  16  17
ATOM     17  O   UNL     1      38.152 -27.305 -14.784  0.00  0.00    -0.479 OA
ATOM     18  H   UNL     1      38.402 -27.876 -15.484  0.00  0.00    +0.295 HD
ENDBRANCH  16  17
ENDBRANCH  12  16
ENDBRANCH  11  12
ENDBRANCH  10  11
ENDBRANCH   5  10
BRANCH   1  19
ATOM     19  C   UNL     1      33.787 -23.466 -18.824  0.00  0.00    +0.154 C 
BRANCH  19  20
ATOM     20  C   UNL     1      34.105 -22.136 -19.453  0.00  0.00    +0.002 C 
ATOM     21  C   UNL     1      33.069 -21.279 -19.802  0.00  0.00    -0.002 C 
ATOM     22  C   UNL     1      35.429 -21.784 -19.677  0.00  0.00    -0.002 C 
ATOM     23  C   UNL     1      33.363 -20.047 -20.386  0.00  0.00    -0.000 C 
ATOM     24  C   UNL     1      35.723 -20.552 -20.260  0.00  0.00    -0.000 C 
ATOM     25  C   UNL     1      34.691 -19.683 -20.615  0.00  0.00    -0.000 C 
ENDBRANCH  19  20
ENDBRANCH   1  19
TORSDOF 7
ENDMDL
MODEL 2
REMARK VINA RESULT:     -10.1      1.313      2.311
REMARK  Name = 71354
REMARK  7 active torsions:
REMARK  status: ('A' for Active; 'I' for Inactive)
REMARK    1  A    between atoms: N_1  and  C_19
REMARK    2  A    between atoms: C_5  and  C_10
REMARK    3  A    between atoms: C_10  and  O_11
REMARK    4  A    between atoms: O_11  and  C_12
REMARK    5  A    between atoms: C_12  and  C_16
REMARK    6  A    between atoms: C_16  and  O_17
REMARK    7  A    between atoms: C_19  and  C_20
REMARK                            x       y       z     vdW  Elec       q    Type
REMARK                         _______ _______ _______ _____ _____    ______ ____
ROOT
ATOM      1  N   UNL     1      33.957 -23.369 -17.272  0.00  0.00    -0.247 N 
ATOM      2  N   UNL     1      35.162 -23.399 -16.680  0.00  0.00    -0.171 NA
ATOM      3  C   UNL     1      33.484 -23.188 -15.138  0.00  0.00    +0.035 A 
ATOM      4  C   UNL     1      32.907 -23.244 -16.401  0.00  0.00    +0.079 A 
ATOM      5  C   UNL     1      34.870 -23.289 -15.382  0.00  0.00    +0.110 A 
ATOM      6  C   UNL     1      32.658 -23.059 -14.010  0.00  0.00    +0.003 C 
ATOM      7  C   UNL     1      31.528 -23.176 -16.614  0.00  0.00    +0.019 C 
ATOM      8  C   UNL     1      31.272 -22.990 -14.199  0.00  0.00    +0.000 C 
ATOM      9  C   UNL     1      30.719 -23.046 -15.480  0.00  0.00    +0.002 C 
ENDROOT
BRANCH   5  10
ATOM     10  C   UNL     1      35.962 -23.286 -14.392  0.00  0.00    +0.190 C 
BRANCH  10  11
ATOM     11  O   UNL     1      35.957 -24.454 -13.565  0.00  0.00    -0.341 OA
BRANCH  11  12
ATOM     12  C   UNL     1      36.764 -24.270 -12.414  0.00  0.00    +0.182 C 
ATOM     13  C   UNL     1      37.318 -22.849 -12.447  0.00  0.00    +0.041 C 
ATOM     14  C   UNL     1      37.868 -25.323 -12.440  0.00  0.00    +0.041 C 
BRANCH  12  16
ATOM     15  O   UNL     1      36.111 -24.166 -10.071  0.00  0.00    -0.248 OA
ATOM     16  C   UNL     1      35.836 -24.473 -11.225  0.00  0.00    +0.338 C 
BRANCH  16  17
ATOM     17  O   UNL     1      34.647 -25.036 -11.560  0.00  0.00    -0.479 OA
ATOM     18  H   UNL     1      34.554 -25.969 -11.563  0.00  0.00    +0.295 HD
ENDBRANCH  16  17
ENDBRANCH  12  16
ENDBRANCH  11  12
ENDBRANCH  10  11
ENDBRANCH   5  10
BRANCH   1  19
ATOM     19  C   UNL     1      33.876 -23.470 -18.711  0.00  0.00    +0.154 C 
BRANCH  19  20
ATOM     20  C   UNL     1      34.184 -22.153 -19.372  0.00  0.00    +0.002 C 
ATOM     21  C   UNL     1      35.506 -21.800 -19.610  0.00  0.00    -0.002 C 
ATOM     22  C   UNL     1      33.143 -21.310 -19.734  0.00  0.00    -0.002 C 
ATOM     23  C   UNL     1      35.792 -20.579 -20.222  0.00  0.00    -0.000 C 
ATOM     24  C   UNL     1      33.429 -20.089 -20.346  0.00  0.00    -0.000 C 
ATOM     25  C   UNL     1      34.753 -19.724 -20.590  0.00  0.00    -0.000 C 
ENDBRANCH  19  20
ENDBRANCH   1  19
TORSDOF 7
ENDMDL
MODEL 3
REMARK VINA RESULT:      -9.6      3.215      5.550
REMARK  Name = 71354
REMARK  7 active torsions:
REMARK  status: ('A' for Active; 'I' for Inactive)
REMARK    1  A    between atoms: N_1  and  C_19
REMARK    2  A    between atoms: C_5  and  C_10
REMARK    3  A    between atoms: C_10  and  O_11
REMARK    4  A    between atoms: O_11  and  C_12
REMARK    5  A    between atoms: C_12  and  C_16
REMARK    6  A    between atoms: C_16  and  O_17
REMARK    7  A    between atoms: C_19  and  C_20
REMARK                            x       y       z     vdW  Elec       q    Type
REMARK                         _______ _______ _______ _____ _____    ______ ____
ROOT
ATOM      1  N   UNL     1      34.328 -22.717 -18.486  0.00  0.00    -0.247 N 
ATOM      2  N   UNL     1      33.061 -23.062 -18.206  0.00  0.00    -0.171 NA
ATOM      3  C   UNL     1      34.329 -22.943 -16.304  0.00  0.00    +0.035 A 
ATOM      4  C   UNL     1      35.141 -22.628 -17.387  0.00  0.00    +0.079 A 
ATOM      5  C   UNL     1      33.065 -23.199 -16.878  0.00  0.00    +0.110 A 
ATOM      6  C   UNL     1      34.875 -22.940 -15.011  0.00  0.00    +0.003 C 
ATOM      7  C   UNL     1      36.494 -22.304 -17.257  0.00  0.00    +0.019 C 
ATOM      8  C   UNL     1      36.229 -22.618 -14.856  0.00  0.00    +0.000 C 
ATOM      9  C   UNL     1      37.023 -22.307 -15.962  0.00  0.00    +0.002 C 
ENDROOT
BRANCH   5  10
ATOM     10  C   UNL     1      31.821 -23.579 -16.186  0.00  0.00    +0.190 C 
BRANCH  10  11
ATOM     11  O   UNL     1      30.650 -23.121 -16.870  0.00  0.00    -0.341 OA
BRANCH  11  12
ATOM     12  C   UNL     1      29.488 -23.312 -16.081  0.00  0.00    +0.182 C 
ATOM     13  C   UNL     1      29.628 -22.464 -14.820  0.00  0.00    +0.041 C 
ATOM     14  C   UNL     1      29.370 -24.801 -15.768  0.00  0.00    +0.041 C 
BRANCH  12  16
ATOM     15  O   UNL     1      27.900 -21.686 -16.954  0.00  0.00    -0.248 OA
ATOM     16  C   UNL     1      28.326 -22.835 -16.940  0.00  0.00    +0.338 C 
BRANCH  16  17
ATOM     17  O   UNL     1      27.787 -23.815 -17.710  0.00  0.00    -0.479 OA
ATOM     18  H   UNL     1      28.061 -23.916 -18.600  0.00  0.00    +0.295 HD
ENDBRANCH  16  17
ENDBRANCH  12  16
ENDBRANCH  11  12
ENDBRANCH  10  11
ENDBRANCH   5  10
BRANCH   1  19
ATOM     19  C   UNL     1      34.707 -22.476 -19.860  0.00  0.00    +0.154 C 
BRANCH  19  20
ATOM     20  C   UNL     1      34.427 -21.054 -20.265  0.00  0.00    +0.002 C 
ATOM     21  C   UNL     1      33.115 -20.599 -20.302  0.00  0.00    -0.002 C 
ATOM     22  C   UNL     1      35.483 -20.218 -20.598  0.00  0.00    -0.002 C 
ATOM     23  C   UNL     1      32.855 -19.281 -20.678  0.00  0.00    -0.000 C 
ATOM     24  C   UNL     1      35.223 -18.900 -20.974  0.00  0.00    -0.000 C 
ATOM     25  C   UNL     1      33.910 -18.431 -21.015  0.00  0.00    -0.000 C 
ENDBRANCH  19  20
ENDBRANCH   1  19
TORSDOF 7
ENDMDL
MODEL 4
REMARK VINA RESULT:      -9.4      7.298     11.227
REMARK  Name = 71354
REMARK  7 active torsions:
REMARK  status: ('A' for Active; 'I' for Inactive)
REMARK    1  A    between atoms: N_1  and  C_19
REMARK    2  A    between atoms: C_5  and  C_10
REMARK    3  A    between atoms: C_10  and  O_11
REMARK    4  A    between atoms: O_11  and  C_12
REMARK    5  A    between atoms: C_12  and  C_16
REMARK    6  A    between atoms: C_16  and  O_17
REMARK    7  A    between atoms: C_19  and  C_20
REMARK                            x       y       z     vdW  Elec       q    Type
REMARK                         _______ _______ _______ _____ _____    ______ ____
ROOT
ATOM      1  N   UNL     1      35.590 -17.904 -21.668  0.00  0.00    -0.247 N 
ATOM      2  N   UNL     1      35.328 -16.714 -21.103  0.00  0.00    -0.171 NA
ATOM      3  C   UNL     1      34.589 -16.786 -23.268  0.00  0.00    +0.035 A 
ATOM      4  C   UNL     1      35.171 -18.012 -22.968  0.00  0.00    +0.079 A 
ATOM      5  C   UNL     1      34.719 -16.036 -22.079  0.00  0.00    +0.110 A 
ATOM      6  C   UNL     1      34.053 -16.574 -24.548  0.00  0.00    +0.003 C 
ATOM      7  C   UNL     1      35.255 -19.061 -23.886  0.00  0.00    +0.019 C 
ATOM      8  C   UNL     1      34.125 -17.613 -25.485  0.00  0.00    +0.000 C 
ATOM      9  C   UNL     1      34.718 -18.834 -25.157  0.00  0.00    +0.002 C 
ENDROOT
BRANCH   5  10
ATOM     10  C   UNL     1      34.268 -14.656 -21.829  0.00  0.00    +0.190 C 
BRANCH  10  11
ATOM     11  O   UNL     1      34.417 -13.814 -22.977  0.00  0.00    -0.341 OA
BRANCH  11  12
ATOM     12  C   UNL     1      33.189 -13.195 -23.322  0.00  0.00    +0.182 C 
ATOM     13  C   UNL     1      32.239 -13.337 -22.136  0.00  0.00    +0.041 C 
ATOM     14  C   UNL     1      32.655 -13.876 -24.578  0.00  0.00    +0.041 C 
BRANCH  12  16
ATOM     15  O   UNL     1      32.940 -10.785 -23.080  0.00  0.00    -0.248 OA
ATOM     16  C   UNL     1      33.526 -11.735 -23.587  0.00  0.00    +0.338 C 
BRANCH  16  17
ATOM     17  O   UNL     1      34.558 -11.568 -24.453  0.00  0.00    -0.479 OA
ATOM     18  H   UNL     1      35.330 -11.112 -24.180  0.00  0.00    +0.295 HD
ENDBRANCH  16  17
ENDBRANCH  12  16
ENDBRANCH  11  12
ENDBRANCH  10  11
ENDBRANCH   5  10
BRANCH   1  19
ATOM     19  C   UNL     1      36.257 -18.922 -20.890  0.00  0.00    +0.154 C 
BRANCH  19  20
ATOM     20  C   UNL     1      35.284 -19.956 -20.390  0.00  0.00    +0.002 C 
ATOM     21  C   UNL     1      33.924 -19.775 -20.602  0.00  0.00    -0.002 C 
ATOM     22  C   UNL     1      35.760 -21.077 -19.724  0.00  0.00    -0.002 C 
ATOM     23  C   UNL     1      33.022 -20.733 -20.139  0.00  0.00    -0.000 C 
ATOM     24  C   UNL     1      34.858 -22.035 -19.260  0.00  0.00    -0.000 C 
ATOM     25  C   UNL     1      33.489 -21.864 -19.468  0.00  0.00    -0.000 C 
ENDBRANCH  19  20
ENDBRANCH   1  19
TORSDOF 7
ENDMDL
MODEL 5
REMARK VINA RESULT:      -9.1      1.655      2.489
REMARK  Name = 71354
REMARK  7 active torsions:
REMARK  status: ('A' for Active; 'I' for Inactive)
REMARK    1  A    between atoms: N_1  and  C_19
REMARK    2  A    between atoms: C_5  and  C_10
REMARK    3  A    between atoms: C_10  and  O_11
REMARK    4  A    between atoms: O_11  and  C_12
REMARK    5  A    between atoms: C_12  and  C_16
REMARK    6  A    between atoms: C_16  and  O_17
REMARK    7  A    between atoms: C_19  and  C_20
REMARK                            x       y       z     vdW  Elec       q    Type
REMARK                         _______ _______ _______ _____ _____    ______ ____
ROOT
ATOM      1  N   UNL     1      35.513 -22.306 -18.609  0.00  0.00    -0.247 N 
ATOM      2  N   UNL     1      36.677 -22.181 -17.952  0.00  0.00    -0.171 NA
ATOM      3  C   UNL     1      34.972 -22.723 -16.525  0.00  0.00    +0.035 A 
ATOM      4  C   UNL     1      34.449 -22.630 -17.810  0.00  0.00    +0.079 A 
ATOM      5  C   UNL     1      36.345 -22.436 -16.684  0.00  0.00    +0.110 A 
ATOM      6  C   UNL     1      34.119 -23.047 -15.457  0.00  0.00    +0.003 C 
ATOM      7  C   UNL     1      33.100 -22.845 -18.102  0.00  0.00    +0.019 C 
ATOM      8  C   UNL     1      32.763 -23.267 -15.727  0.00  0.00    +0.000 C 
ATOM      9  C   UNL     1      32.264 -23.166 -17.027  0.00  0.00    +0.002 C 
ENDROOT
BRANCH   5  10
ATOM     10  C   UNL     1      37.384 -22.395 -15.640  0.00  0.00    +0.190 C 
BRANCH  10  11
ATOM     11  O   UNL     1      38.194 -23.574 -15.626  0.00  0.00    -0.341 OA
BRANCH  11  12
ATOM     12  C   UNL     1      37.845 -24.422 -14.545  0.00  0.00    +0.182 C 
ATOM     13  C   UNL     1      36.788 -25.406 -15.039  0.00  0.00    +0.041 C 
ATOM     14  C   UNL     1      37.335 -23.547 -13.405  0.00  0.00    +0.041 C 
BRANCH  12  16
ATOM     15  O   UNL     1      40.226 -24.602 -14.069  0.00  0.00    -0.248 OA
ATOM     16  C   UNL     1      39.129 -25.142 -14.157  0.00  0.00    +0.338 C 
BRANCH  16  17
ATOM     17  O   UNL     1      38.952 -26.465 -13.911  0.00  0.00    -0.479 OA
ATOM     18  H   UNL     1      39.147 -27.096 -14.576  0.00  0.00    +0.295 HD
ENDBRANCH  16  17
ENDBRANCH  12  16
ENDBRANCH  11  12
ENDBRANCH  10  11
ENDBRANCH   5  10
BRANCH   1  19
ATOM     19  C   UNL     1      35.486 -22.100 -20.039  0.00  0.00    +0.154 C 
BRANCH  19  20
ATOM     20  C   UNL     1      35.030 -20.709 -20.385  0.00  0.00    +0.002 C 
ATOM     21  C   UNL     1      35.974 -19.727 -20.656  0.00  0.00    -0.002 C 
ATOM     22  C   UNL     1      33.672 -20.424 -20.428  0.00  0.00    -0.002 C 
ATOM     23  C   UNL     1      35.552 -18.436 -20.976  0.00  0.00    -0.000 C 
ATOM     24  C   UNL     1      33.250 -19.134 -20.748  0.00  0.00    -0.000 C 
ATOM     25  C   UNL     1      34.189 -18.140 -21.022  0.00  0.00    -0.000 C 
ENDBRANCH  19  20
ENDBRANCH   1  19
TORSDOF 7
ENDMDL
MODEL 6
REMARK VINA RESULT:      -9.1      2.710      4.861
REMARK  Name = 71354
REMARK  7 active torsions:
REMARK  status: ('A' for Active; 'I' for Inactive)
REMARK    1  A    between atoms: N_1  and  C_19
REMARK    2  A    between atoms: C_5  and  C_10
REMARK    3  A    between atoms: C_10  and  O_11
REMARK    4  A    between atoms: O_11  and  C_12
REMARK    5  A    between atoms: C_12  and  C_16
REMARK    6  A    between atoms: C_16  and  O_17
REMARK    7  A    between atoms: C_19  and  C_20
REMARK                            x       y       z     vdW  Elec       q    Type
REMARK                         _______ _______ _______ _____ _____    ______ ____
ROOT
ATOM      1  N   UNL     1      34.827 -22.487 -18.510  0.00  0.00    -0.247 N 
ATOM      2  N   UNL     1      33.541 -22.867 -18.442  0.00  0.00    -0.171 NA
ATOM      3  C   UNL     1      34.550 -22.981 -16.391  0.00  0.00    +0.035 A 
ATOM      4  C   UNL     1      35.490 -22.533 -17.312  0.00  0.00    +0.079 A 
ATOM      5  C   UNL     1      33.376 -23.167 -17.151  0.00  0.00    +0.110 A 
ATOM      6  C   UNL     1      34.925 -23.138 -15.047  0.00  0.00    +0.003 C 
ATOM      7  C   UNL     1      36.808 -22.225 -16.968  0.00  0.00    +0.019 C 
ATOM      8  C   UNL     1      36.242 -22.834 -14.679  0.00  0.00    +0.000 C 
ATOM      9  C   UNL     1      37.166 -22.387 -15.625  0.00  0.00    +0.002 C 
ENDROOT
BRANCH   5  10
ATOM     10  C   UNL     1      32.060 -23.633 -16.679  0.00  0.00    +0.190 C 
BRANCH  10  11
ATOM     11  O   UNL     1      31.554 -22.844 -15.598  0.00  0.00    -0.341 OA
BRANCH  11  12
ATOM     12  C   UNL     1      30.506 -23.516 -14.919  0.00  0.00    +0.182 C 
ATOM     13  C   UNL     1      30.237 -24.829 -15.648  0.00  0.00    +0.041 C 
ATOM     14  C   UNL     1      29.287 -22.598 -14.908  0.00  0.00    +0.041 C 
BRANCH  12  16
ATOM     15  O   UNL     1      31.945 -23.145 -12.991  0.00  0.00    -0.248 OA
ATOM     16  C   UNL     1      31.023 -23.764 -13.509  0.00  0.00    +0.338 C 
BRANCH  16  17
ATOM     17  O   UNL     1      30.359 -24.752 -12.858  0.00  0.00    -0.479 OA
ATOM     18  H   UNL     1      30.671 -25.634 -12.900  0.00  0.00    +0.295 HD
ENDBRANCH  16  17
ENDBRANCH  12  16
ENDBRANCH  11  12
ENDBRANCH  10  11
ENDBRANCH   5  10
BRANCH   1  19
ATOM     19  C   UNL     1      35.375 -22.078 -19.783  0.00  0.00    +0.154 C 
BRANCH  19  20
ATOM     20  C   UNL     1      34.764 -20.785 -20.253  0.00  0.00    +0.002 C 
ATOM     21  C   UNL     1      35.587 -19.770 -20.723  0.00  0.00    -0.002 C 
ATOM     22  C   UNL     1      33.386 -20.624 -20.210  0.00  0.00    -0.002 C 
ATOM     23  C   UNL     1      35.021 -18.572 -21.158  0.00  0.00    -0.000 C 
ATOM     24  C   UNL     1      32.820 -19.426 -20.645  0.00  0.00    -0.000 C 
ATOM     25  C   UNL     1      33.637 -18.399 -21.119  0.00  0.00    -0.000 C 
ENDBRANCH  19  20
ENDBRANCH   1  19
TORSDOF 7
ENDMDL
MODEL 7
REMARK VINA RESULT:      -9.1      1.822      5.098
REMARK  Name = 71354
REMARK  7 active torsions:
REMARK  status: ('A' for Active; 'I' for Inactive)
REMARK    1  A    between atoms: N_1  and  C_19
REMARK    2  A    between atoms: C_5  and  C_10
REMARK    3  A    between atoms: C_10  and  O_11
REMARK    4  A    between atoms: O_11  and  C_12
REMARK    5  A    between atoms: C_12  and  C_16
REMARK    6  A    between atoms: C_16  and  O_17
REMARK    7  A    between atoms: C_19  and  C_20
REMARK                            x       y       z     vdW  Elec       q    Type
REMARK                         _______ _______ _______ _____ _____    ______ ____
ROOT
ATOM      1  N   UNL     1      33.611 -23.022 -17.016  0.00  0.00    -0.247 N 
ATOM      2  N   UNL     1      34.286 -23.470 -15.946  0.00  0.00    -0.171 NA
ATOM      3  C   UNL     1      35.674 -22.393 -17.413  0.00  0.00    +0.035 A 
ATOM      4  C   UNL     1      34.386 -22.365 -17.935  0.00  0.00    +0.079 A 
ATOM      5  C   UNL     1      35.542 -23.086 -16.190  0.00  0.00    +0.110 A 
ATOM      6  C   UNL     1      36.720 -21.791 -18.131  0.00  0.00    +0.003 C 
ATOM      7  C   UNL     1      34.070 -21.764 -19.155  0.00  0.00    +0.019 C 
ATOM      8  C   UNL     1      36.426 -21.181 -19.357  0.00  0.00    +0.000 C 
ATOM      9  C   UNL     1      35.123 -21.170 -19.859  0.00  0.00    +0.002 C 
ENDROOT
BRANCH   5  10
ATOM     10  C   UNL     1      36.599 -23.404 -15.215  0.00  0.00    +0.190 C 
BRANCH  10  11
ATOM     11  O   UNL     1      36.314 -22.893 -13.910  0.00  0.00    -0.341 OA
BRANCH  11  12
ATOM     12  C   UNL     1      36.384 -23.916 -12.932  0.00  0.00    +0.182 C 
ATOM     13  C   UNL     1      37.133 -25.100 -13.539  0.00  0.00    +0.041 C 
ATOM     14  C   UNL     1      34.959 -24.278 -12.525  0.00  0.00    +0.041 C 
BRANCH  12  16
ATOM     15  O   UNL     1      38.034 -22.469 -11.877  0.00  0.00    -0.248 OA
ATOM     16  C   UNL     1      37.155 -23.316 -11.764  0.00  0.00    +0.338 C 
BRANCH  16  17
ATOM     17  O   UNL     1      36.778 -23.812 -10.558  0.00  0.00    -0.479 OA
ATOM     18  H   UNL     1      37.196 -23.510  -9.776  0.00  0.00    +0.295 HD
ENDBRANCH  16  17
ENDBRANCH  12  16
ENDBRANCH  11  12
ENDBRANCH  10  11
ENDBRANCH   5  10
BRANCH   1  19
ATOM     19  C   UNL     1      32.187 -23.257 -17.100  0.00  0.00    +0.154 C 
BRANCH  19  20
ATOM     20  C   UNL     1      31.615 -23.641 -15.763  0.00  0.00    +0.002 C 
ATOM     21  C   UNL     1      31.879 -22.851 -14.652  0.00  0.00    -0.002 C 
ATOM     22  C   UNL     1      30.830 -24.781 -15.656  0.00  0.00    -0.002 C 
ATOM     23  C   UNL     1      31.349 -23.207 -13.412  0.00  0.00    -0.000 C 
ATOM     24  C   UNL     1      30.300 -25.138 -14.416  0.00  0.00    -0.000 C 
ATOM     25  C   UNL     1      30.559 -24.351 -13.294  0.00  0.00    -0.000 C 
ENDBRANCH  19  20
ENDBRANCH   1  19
TORSDOF 7
ENDMDL
MODEL 8
REMARK VINA RESULT:      -8.9      1.375      4.718
REMARK  Name = 71354
REMARK  7 active torsions:
REMARK  status: ('A' for Active; 'I' for Inactive)
REMARK    1  A    between atoms: N_1  and  C_19
REMARK    2  A    between atoms: C_5  and  C_10
REMARK    3  A    between atoms: C_10  and  O_11
REMARK    4  A    between atoms: O_11  and  C_12
REMARK    5  A    between atoms: C_12  and  C_16
REMARK    6  A    between atoms: C_16  and  O_17
REMARK    7  A    between atoms: C_19  and  C_20
REMARK                            x       y       z     vdW  Elec       q    Type
REMARK                         _______ _______ _______ _____ _____    ______ ____
ROOT
ATOM      1  N   UNL     1      33.688 -23.071 -16.921  0.00  0.00    -0.247 N 
ATOM      2  N   UNL     1      34.334 -23.389 -15.787  0.00  0.00    -0.171 NA
ATOM      3  C   UNL     1      35.725 -22.335 -17.269  0.00  0.00    +0.035 A 
ATOM      4  C   UNL     1      34.467 -22.437 -17.851  0.00  0.00    +0.079 A 
ATOM      5  C   UNL     1      35.573 -22.940 -16.002  0.00  0.00    +0.110 A 
ATOM      6  C   UNL     1      36.767 -21.721 -17.982  0.00  0.00    +0.003 C 
ATOM      7  C   UNL     1      34.178 -21.954 -19.130  0.00  0.00    +0.019 C 
ATOM      8  C   UNL     1      36.499 -21.229 -19.266  0.00  0.00    +0.000 C 
ATOM      9  C   UNL     1      35.226 -21.345 -19.828  0.00  0.00    +0.002 C 
ENDROOT
BRANCH   5  10
ATOM     10  C   UNL     1      36.597 -23.109 -14.955  0.00  0.00    +0.190 C 
BRANCH  10  11
ATOM     11  O   UNL     1      37.509 -24.172 -15.246  0.00  0.00    -0.341 OA
BRANCH  11  12
ATOM     12  C   UNL     1      37.560 -25.109 -14.185  0.00  0.00    +0.182 C 
ATOM     13  C   UNL     1      36.588 -24.649 -13.101  0.00  0.00    +0.041 C 
ATOM     14  C   UNL     1      38.999 -25.176 -13.683  0.00  0.00    +0.041 C 
BRANCH  12  16
ATOM     15  O   UNL     1      37.859 -27.407 -14.933  0.00  0.00    -0.248 OA
ATOM     16  C   UNL     1      37.124 -26.437 -14.789  0.00  0.00    +0.338 C 
BRANCH  16  17
ATOM     17  O   UNL     1      35.820 -26.456 -15.163  0.00  0.00    -0.479 OA
ATOM     18  H   UNL     1      35.575 -26.815 -15.993  0.00  0.00    +0.295 HD
ENDBRANCH  16  17
ENDBRANCH  12  16
ENDBRANCH  11  12
ENDBRANCH  10  11
ENDBRANCH   5  10
BRANCH   1  19
ATOM     19  C   UNL     1      32.289 -23.409 -17.053  0.00  0.00    +0.154 C 
BRANCH  19  20
ATOM     20  C   UNL     1      31.668 -23.708 -15.715  0.00  0.00    +0.002 C 
ATOM     21  C   UNL     1      31.878 -22.838 -14.653  0.00  0.00    -0.002 C 
ATOM     22  C   UNL     1      30.894 -24.849 -15.560  0.00  0.00    -0.002 C 
ATOM     23  C   UNL     1      31.303 -23.115 -13.413  0.00  0.00    -0.000 C 
ATOM     24  C   UNL     1      30.319 -25.127 -14.320  0.00  0.00    -0.000 C 
ATOM     25  C   UNL     1      30.523 -24.260 -13.246  0.00  0.00    -0.000 C 
ENDBRANCH  19  20
ENDBRANCH   1  19
TORSDOF 7
ENDMDL
MODEL 9
REMARK VINA RESULT:      -8.8      2.204      6.386
REMARK  Name = 71354
REMARK  7 active torsions:
REMARK  status: ('A' for Active; 'I' for Inactive)
REMARK    1  A    between atoms: N_1  and  C_19
REMARK    2  A    between atoms: C_5  and  C_10
REMARK    3  A    between atoms: C_10  and  O_11
REMARK    4  A    between atoms: O_11  and  C_12
REMARK    5  A    between atoms: C_12  and  C_16
REMARK    6  A    between atoms: C_16  and  O_17
REMARK    7  A    between atoms: C_19  and  C_20
REMARK                            x       y       z     vdW  Elec       q    Type
REMARK                         _______ _______ _______ _____ _____    ______ ____
ROOT
ATOM      1  N   UNL     1      35.403 -22.828 -15.739  0.00  0.00    -0.247 N 
ATOM      2  N   UNL     1      34.175 -23.264 -15.416  0.00  0.00    -0.171 NA
ATOM      3  C   UNL     1      34.258 -22.552 -17.589  0.00  0.00    +0.035 A 
ATOM      4  C   UNL     1      35.520 -22.386 -17.031  0.00  0.00    +0.079 A 
ATOM      5  C   UNL     1      33.481 -23.095 -16.544  0.00  0.00    +0.110 A 
ATOM      6  C   UNL     1      34.045 -22.185 -18.928  0.00  0.00    +0.003 C 
ATOM      7  C   UNL     1      36.606 -21.866 -17.740  0.00  0.00    +0.019 C 
ATOM      8  C   UNL     1      35.120 -21.662 -19.658  0.00  0.00    +0.000 C 
ATOM      9  C   UNL     1      36.377 -21.505 -19.072  0.00  0.00    +0.002 C 
ENDROOT
BRANCH   5  10
ATOM     10  C   UNL     1      32.057 -23.472 -16.581  0.00  0.00    +0.190 C 
BRANCH  10  11
ATOM     11  O   UNL     1      31.762 -24.588 -15.735  0.00  0.00    -0.341 OA
BRANCH  11  12
ATOM     12  C   UNL     1      30.664 -24.309 -14.884  0.00  0.00    +0.182 C 
ATOM     13  C   UNL     1      29.605 -25.384 -15.112  0.00  0.00    +0.041 C 
ATOM     14  C   UNL     1      30.152 -22.911 -15.216  0.00  0.00    +0.041 C 
BRANCH  12  16
ATOM     15  O   UNL     1      30.759 -23.749 -12.516  0.00  0.00    -0.248 OA
ATOM     16  C   UNL     1      31.217 -24.372 -13.467  0.00  0.00    +0.338 C 
BRANCH  16  17
ATOM     17  O   UNL     1      32.287 -25.198 -13.343  0.00  0.00    -0.479 OA
ATOM     18  H   UNL     1      32.864 -25.330 -14.069  0.00  0.00    +0.295 HD
ENDBRANCH  16  17
ENDBRANCH  12  16
ENDBRANCH  11  12
ENDBRANCH  10  11
ENDBRANCH   5  10
BRANCH   1  19
ATOM     19  C   UNL     1      36.449 -22.863 -14.743  0.00  0.00    +0.154 C 
BRANCH  19  20
ATOM     20  C   UNL     1      36.727 -24.271 -14.290  0.00  0.00    +0.002 C 
ATOM     21  C   UNL     1      36.759 -24.559 -12.932  0.00  0.00    -0.002 C 
ATOM     22  C   UNL     1      36.949 -25.263 -15.235  0.00  0.00    -0.002 C 
ATOM     23  C   UNL     1      37.017 -25.864 -12.511  0.00  0.00    -0.000 C 
ATOM     24  C   UNL     1      37.208 -26.567 -14.814  0.00  0.00    -0.000 C 
ATOM     25  C   UNL     1      37.242 -26.869 -13.453  0.00  0.00    -0.000 C 
ENDBRANCH  19  20
ENDBRANCH   1  19
TORSDOF 7
ENDMDL
