MODEL 1
REMARK VINA RESULT:      -4.0      0.000      0.000
REMARK  Name = 3332061
REMARK  2 active torsions:
REMARK  status: ('A' for Active; 'I' for Inactive)
REMARK    1  A    between atoms: C_1  and  C_5
REMARK    2  A    between atoms: C_1  and  N_8
REMARK                            x       y       z     vdW  Elec       q    Type
REMARK                         _______ _______ _______ _____ _____    ______ ____
ROOT
ATOM      1  C   UNL     1      33.503 -21.236 -19.619  0.00  0.00    +0.095 C 
ATOM      2  C   UNL     1      33.011 -20.263 -20.401  0.00  0.00    +0.020 C 
ENDROOT
BRANCH   1   5
ATOM      3  O   UNL     1      35.567 -22.277 -18.993  0.00  0.00    -0.269 OA
ATOM      4  N   UNL     1      35.672 -20.287 -20.118  0.00  0.00    -0.324 N 
ATOM      5  C   UNL     1      34.997 -21.337 -19.540  0.00  0.00    +0.256 C 
ATOM      6  H   UNL     1      36.656 -20.270 -20.112  0.00  0.00    +0.145 HD
ATOM      7  H   UNL     1      35.170 -19.550 -20.538  0.00  0.00    +0.145 HD
ENDBRANCH   1   5
BRANCH   1   8
ATOM      8  N   UNL     1      32.742 -22.108 -18.897  0.00  0.00    -0.353 N 
ATOM      9  H   UNL     1      32.607 -21.963 -17.933  0.00  0.00    +0.142 HD
ATOM     10  H   UNL     1      32.328 -22.884 -19.340  0.00  0.00    +0.142 HD
ENDBRANCH   1   8
TORSDOF 2
ENDMDL
MODEL 2
REMARK VINA RESULT:      -4.0      9.718      9.884
REMARK  Name = 3332061
REMARK  2 active torsions:
REMARK  status: ('A' for Active; 'I' for Inactive)
REMARK    1  A    between atoms: C_1  and  C_5
REMARK    2  A    between atoms: C_1  and  N_8
REMARK                            x       y       z     vdW  Elec       q    Type
REMARK                         _______ _______ _______ _____ _____    ______ ____
ROOT
ATOM      1  C   UNL     1      41.725 -15.469 -17.620  0.00  0.00    +0.095 C 
ATOM      2  C   UNL     1      41.289 -14.237 -17.922  0.00  0.00    +0.020 C 
ENDROOT
BRANCH   1   5
ATOM      3  O   UNL     1      42.496 -16.620 -15.667  0.00  0.00    -0.269 OA
ATOM      4  N   UNL     1      40.633 -15.305 -15.468  0.00  0.00    -0.324 N 
ATOM      5  C   UNL     1      41.676 -15.859 -16.174  0.00  0.00    +0.256 C 
ATOM      6  H   UNL     1      40.524 -15.507 -14.510  0.00  0.00    +0.145 HD
ATOM      7  H   UNL     1      39.995 -14.706 -15.920  0.00  0.00    +0.145 HD
ENDBRANCH   1   5
BRANCH   1   8
ATOM      8  N   UNL     1      42.186 -16.372 -18.534  0.00  0.00    -0.353 N 
ATOM      9  H   UNL     1      41.651 -17.170 -18.750  0.00  0.00    +0.142 HD
ATOM     10  H   UNL     1      43.053 -16.227 -18.976  0.00  0.00    +0.142 HD
ENDBRANCH   1   8
TORSDOF 2
ENDMDL
MODEL 3
REMARK VINA RESULT:      -4.0      9.861     10.488
REMARK  Name = 3332061
REMARK  2 active torsions:
REMARK  status: ('A' for Active; 'I' for Inactive)
REMARK    1  A    between atoms: C_1  and  C_5
REMARK    2  A    between atoms: C_1  and  N_8
REMARK                            x       y       z     vdW  Elec       q    Type
REMARK                         _______ _______ _______ _____ _____    ______ ____
ROOT
ATOM      1  C   UNL     1      41.612 -14.220 -16.587  0.00  0.00    +0.095 C 
ATOM      2  C   UNL     1      41.267 -14.198 -17.883  0.00  0.00    +0.020 C 
ENDROOT
BRANCH   1   5
ATOM      3  O   UNL     1      42.532 -16.344 -15.970  0.00  0.00    -0.269 OA
ATOM      4  N   UNL     1      40.423 -15.838 -15.238  0.00  0.00    -0.324 N 
ATOM      5  C   UNL     1      41.589 -15.559 -15.913  0.00  0.00    +0.256 C 
ATOM      6  H   UNL     1      40.320 -16.696 -14.766  0.00  0.00    +0.145 HD
ATOM      7  H   UNL     1      39.690 -15.180 -15.227  0.00  0.00    +0.145 HD
ENDBRANCH   1   5
BRANCH   1   8
ATOM      8  N   UNL     1      41.990 -13.124 -15.868  0.00  0.00    -0.353 N 
ATOM      9  H   UNL     1      42.862 -13.112 -15.410  0.00  0.00    +0.142 HD
ATOM     10  H   UNL     1      41.391 -12.345 -15.806  0.00  0.00    +0.142 HD
ENDBRANCH   1   8
TORSDOF 2
ENDMDL
MODEL 4
REMARK VINA RESULT:      -4.0      0.774      2.231
REMARK  Name = 3332061
REMARK  2 active torsions:
REMARK  status: ('A' for Active; 'I' for Inactive)
REMARK    1  A    between atoms: C_1  and  C_5
REMARK    2  A    between atoms: C_1  and  N_8
REMARK                            x       y       z     vdW  Elec       q    Type
REMARK                         _______ _______ _______ _____ _____    ______ ____
ROOT
ATOM      1  C   UNL     1      34.045 -20.667 -20.074  0.00  0.00    +0.095 C 
ATOM      2  C   UNL     1      32.899 -20.118 -20.504  0.00  0.00    +0.020 C 
ENDROOT
BRANCH   1   5
ATOM      3  O   UNL     1      34.834 -22.805 -19.339  0.00  0.00    -0.269 OA
ATOM      4  N   UNL     1      32.721 -22.176 -18.723  0.00  0.00    -0.324 N 
ATOM      5  C   UNL     1      33.928 -21.976 -19.353  0.00  0.00    +0.256 C 
ATOM      6  H   UNL     1      32.557 -23.010 -18.225  0.00  0.00    +0.145 HD
ATOM      7  H   UNL     1      32.020 -21.485 -18.770  0.00  0.00    +0.145 HD
ENDBRANCH   1   5
BRANCH   1   8
ATOM      8  N   UNL     1      35.282 -20.124 -20.263  0.00  0.00    -0.353 N 
ATOM      9  H   UNL     1      35.753 -19.699 -19.511  0.00  0.00    +0.142 HD
ATOM     10  H   UNL     1      35.703 -20.156 -21.152  0.00  0.00    +0.142 HD
ENDBRANCH   1   8
TORSDOF 2
ENDMDL
MODEL 5
REMARK VINA RESULT:      -4.0      8.077      8.382
REMARK  Name = 3332061
REMARK  2 active torsions:
REMARK  status: ('A' for Active; 'I' for Inactive)
REMARK    1  A    between atoms: C_1  and  C_5
REMARK    2  A    between atoms: C_1  and  N_8
REMARK                            x       y       z     vdW  Elec       q    Type
REMARK                         _______ _______ _______ _____ _____    ______ ____
ROOT
ATOM      1  C   UNL     1      37.024 -25.818 -13.289  0.00  0.00    +0.095 C 
ATOM      2  C   UNL     1      38.068 -25.636 -12.466  0.00  0.00    +0.020 C 
ENDROOT
BRANCH   1   5
ATOM      3  O   UNL     1      38.356 -27.189 -14.733  0.00  0.00    -0.269 OA
ATOM      4  N   UNL     1      36.139 -26.938 -15.243  0.00  0.00    -0.324 N 
ATOM      5  C   UNL     1      37.256 -26.710 -14.472  0.00  0.00    +0.256 C 
ATOM      6  H   UNL     1      36.199 -27.512 -16.040  0.00  0.00    +0.145 HD
ATOM      7  H   UNL     1      35.279 -26.525 -14.998  0.00  0.00    +0.145 HD
ENDBRANCH   1   5
BRANCH   1   8
ATOM      8  N   UNL     1      35.790 -25.264 -13.110  0.00  0.00    -0.353 N 
ATOM      9  H   UNL     1      34.994 -25.841 -13.058  0.00  0.00    +0.142 HD
ATOM     10  H   UNL     1      35.695 -24.288 -13.034  0.00  0.00    +0.142 HD
ENDBRANCH   1   8
TORSDOF 2
ENDMDL
MODEL 6
REMARK VINA RESULT:      -4.0      9.710      9.815
REMARK  Name = 3332061
REMARK  2 active torsions:
REMARK  status: ('A' for Active; 'I' for Inactive)
REMARK    1  A    between atoms: C_1  and  C_5
REMARK    2  A    between atoms: C_1  and  N_8
REMARK                            x       y       z     vdW  Elec       q    Type
REMARK                         _______ _______ _______ _____ _____    ______ ____
ROOT
ATOM      1  C   UNL     1      41.252 -14.976 -16.784  0.00  0.00    +0.095 C 
ATOM      2  C   UNL     1      41.228 -14.239 -17.904  0.00  0.00    +0.020 C 
ENDROOT
BRANCH   1   5
ATOM      3  O   UNL     1      42.594 -16.716 -15.832  0.00  0.00    -0.269 OA
ATOM      4  N   UNL     1      42.186 -16.792 -18.083  0.00  0.00    -0.324 N 
ATOM      5  C   UNL     1      42.067 -16.234 -16.831  0.00  0.00    +0.256 C 
ATOM      6  H   UNL     1      42.704 -17.620 -18.206  0.00  0.00    +0.145 HD
ATOM      7  H   UNL     1      41.752 -16.363 -18.856  0.00  0.00    +0.145 HD
ENDBRANCH   1   5
BRANCH   1   8
ATOM      8  N   UNL     1      40.606 -14.649 -15.628  0.00  0.00    -0.353 N 
ATOM      9  H   UNL     1      39.852 -14.016 -15.647  0.00  0.00    +0.142 HD
ATOM     10  H   UNL     1      40.894 -15.045 -14.774  0.00  0.00    +0.142 HD
ENDBRANCH   1   8
TORSDOF 2
ENDMDL
MODEL 7
REMARK VINA RESULT:      -3.9      7.312      8.109
REMARK  Name = 3332061
REMARK  2 active torsions:
REMARK  status: ('A' for Active; 'I' for Inactive)
REMARK    1  A    between atoms: C_1  and  C_5
REMARK    2  A    between atoms: C_1  and  N_8
REMARK                            x       y       z     vdW  Elec       q    Type
REMARK                         _______ _______ _______ _____ _____    ______ ____
ROOT
ATOM      1  C   UNL     1      38.259 -25.503 -14.857  0.00  0.00    +0.095 C 
ATOM      2  C   UNL     1      39.442 -25.773 -14.285  0.00  0.00    +0.020 C 
ENDROOT
BRANCH   1   5
ATOM      3  O   UNL     1      36.837 -27.109 -15.921  0.00  0.00    -0.269 OA
ATOM      4  N   UNL     1      36.841 -27.035 -13.633  0.00  0.00    -0.324 N 
ATOM      5  C   UNL     1      37.257 -26.618 -14.877  0.00  0.00    +0.256 C 
ATOM      6  H   UNL     1      36.184 -27.763 -13.552  0.00  0.00    +0.145 HD
ATOM      7  H   UNL     1      37.201 -26.604 -12.823  0.00  0.00    +0.145 HD
ENDBRANCH   1   5
BRANCH   1   8
ATOM      8  N   UNL     1      37.916 -24.296 -15.395  0.00  0.00    -0.353 N 
ATOM      9  H   UNL     1      37.376 -23.660 -14.873  0.00  0.00    +0.142 HD
ATOM     10  H   UNL     1      38.208 -24.063 -16.306  0.00  0.00    +0.142 HD
ENDBRANCH   1   8
TORSDOF 2
ENDMDL
MODEL 8
REMARK VINA RESULT:      -3.8      1.535      2.773
REMARK  Name = 3332061
REMARK  2 active torsions:
REMARK  status: ('A' for Active; 'I' for Inactive)
REMARK    1  A    between atoms: C_1  and  C_5
REMARK    2  A    between atoms: C_1  and  N_8
REMARK                            x       y       z     vdW  Elec       q    Type
REMARK                         _______ _______ _______ _____ _____    ______ ____
ROOT
ATOM      1  C   UNL     1      34.927 -20.913 -19.825  0.00  0.00    +0.095 C 
ATOM      2  C   UNL     1      35.748 -21.750 -19.174  0.00  0.00    +0.020 C 
ENDROOT
BRANCH   1   5
ATOM      3  O   UNL     1      33.045 -22.325 -19.380  0.00  0.00    -0.269 OA
ATOM      4  N   UNL     1      32.639 -20.238 -20.229  0.00  0.00    -0.324 N 
ATOM      5  C   UNL     1      33.465 -21.242 -19.779  0.00  0.00    +0.256 C 
ATOM      6  H   UNL     1      31.663 -20.368 -20.234  0.00  0.00    +0.145 HD
ATOM      7  H   UNL     1      33.024 -19.389 -20.547  0.00  0.00    +0.145 HD
ENDBRANCH   1   5
BRANCH   1   8
ATOM      8  N   UNL     1      35.333 -19.798 -20.499  0.00  0.00    -0.353 N 
ATOM      9  H   UNL     1      35.964 -19.879 -21.250  0.00  0.00    +0.142 HD
ATOM     10  H   UNL     1      34.996 -18.913 -20.233  0.00  0.00    +0.142 HD
ENDBRANCH   1   8
TORSDOF 2
ENDMDL
MODEL 9
REMARK VINA RESULT:      -3.8      8.295      8.532
REMARK  Name = 3332061
REMARK  2 active torsions:
REMARK  status: ('A' for Active; 'I' for Inactive)
REMARK    1  A    between atoms: C_1  and  C_5
REMARK    2  A    between atoms: C_1  and  N_8
REMARK                            x       y       z     vdW  Elec       q    Type
REMARK                         _______ _______ _______ _____ _____    ______ ____
ROOT
ATOM      1  C   UNL     1      38.043 -25.959 -13.472  0.00  0.00    +0.095 C 
ATOM      2  C   UNL     1      38.089 -25.057 -12.480  0.00  0.00    +0.020 C 
ENDROOT
BRANCH   1   5
ATOM      3  O   UNL     1      39.991 -26.670 -14.669  0.00  0.00    -0.269 OA
ATOM      4  N   UNL     1      38.985 -24.721 -15.325  0.00  0.00    -0.324 N 
ATOM      5  C   UNL     1      39.096 -25.839 -14.532  0.00  0.00    +0.256 C 
ATOM      6  H   UNL     1      39.636 -24.561 -16.047  0.00  0.00    +0.145 HD
ATOM      7  H   UNL     1      38.255 -24.078 -15.171  0.00  0.00    +0.145 HD
ENDBRANCH   1   5
BRANCH   1   8
ATOM      8  N   UNL     1      37.124 -26.963 -13.563  0.00  0.00    -0.353 N 
ATOM      9  H   UNL     1      37.358 -27.873 -13.267  0.00  0.00    +0.142 HD
ATOM     10  H   UNL     1      36.228 -26.780 -13.926  0.00  0.00    +0.142 HD
ENDBRANCH   1   8
TORSDOF 2
ENDMDL
