MODEL 1
REMARK VINA RESULT:     -12.4      0.000      0.000
REMARK  Name = 10298385
REMARK  4 active torsions:
REMARK  status: ('A' for Active; 'I' for Inactive)
REMARK    1  A    between atoms: C_1  and  C_21
REMARK    2  A    between atoms: C_2  and  C_16
REMARK    3  A    between atoms: C_21  and  N_24
REMARK    4  A    between atoms: C_25  and  C_33
REMARK                            x       y       z     vdW  Elec       q    Type
REMARK                         _______ _______ _______ _____ _____    ______ ____
ROOT
ATOM      1  C   UNL     1      34.964 -20.663 -20.345  0.00  0.00    -0.006 C 
ATOM      2  C   UNL     1      34.214 -18.112 -21.189  0.00  0.00    +0.054 C 
ATOM      3  C   UNL     1      35.933 -19.678 -20.535  0.00  0.00    -0.024 C 
ATOM      4  C   UNL     1      35.559 -18.403 -20.958  0.00  0.00    +0.000 C 
ATOM      5  C   UNL     1      33.620 -20.372 -20.578  0.00  0.00    -0.003 C 
ATOM      6  C   UNL     1      33.244 -19.096 -20.999  0.00  0.00    +0.004 C 
ATOM      7  C   UNL     1      37.379 -19.966 -20.296  0.00  0.00    +0.031 C 
ENDROOT
BRANCH   2  16
ATOM      8  O   UNL     1      33.030 -16.184 -20.894  0.00  0.00    -0.270 OA
ATOM      9  N   UNL     1      34.334 -16.297 -22.859  0.00  0.00    -0.255 N 
ATOM     10  C   UNL     1      34.568 -17.958 -24.694  0.00  0.00    +0.022 C 
ATOM     11  C   UNL     1      33.505 -17.222 -25.501  0.00  0.00    +0.006 C 
ATOM     12  C   UNL     1      35.278 -17.068 -23.682  0.00  0.00    +0.099 C 
ATOM     13  C   UNL     1      33.919 -15.801 -25.876  0.00  0.00    +0.028 C 
ATOM     14  C   UNL     1      33.771 -14.768 -24.773  0.00  0.00    -0.008 C 
ATOM     15  C   UNL     1      33.911 -15.020 -23.386  0.00  0.00    +0.050 C 
ATOM     16  C   UNL     1      33.819 -16.769 -21.636  0.00  0.00    +0.253 C 
ATOM     17  C   UNL     1      33.443 -13.462 -25.198  0.00  0.00    -0.003 C 
ATOM     18  C   UNL     1      33.677 -13.959 -22.485  0.00  0.00    +0.015 C 
ATOM     19  C   UNL     1      33.220 -12.432 -24.288  0.00  0.00    -0.000 C 
ATOM     20  C   UNL     1      33.332 -12.683 -22.930  0.00  0.00    +0.001 C 
ENDBRANCH   2  16
BRANCH   1  21
ATOM     21  C   UNL     1      35.341 -22.035 -19.894  0.00  0.00    +0.117 C 
BRANCH  21  24
ATOM     22  O   UNL     1      36.300 -22.438 -17.259  0.00  0.00    -0.253 OA
ATOM     23  N   UNL     1      34.204 -23.080 -16.527  0.00  0.00    -0.257 N 
ATOM     24  N   UNL     1      34.555 -22.475 -18.765  0.00  0.00    -0.285 N 
ATOM     25  C   UNL     1      34.565 -23.161 -15.117  0.00  0.00    +0.153 C 
ATOM     26  C   UNL     1      33.231 -23.199 -14.379  0.00  0.00    +0.031 C 
ATOM     27  C   UNL     1      32.291 -23.868 -15.376  0.00  0.00    +0.024 C 
ATOM     28  C   UNL     1      32.781 -23.351 -16.721  0.00  0.00    +0.095 C 
ATOM     29  C   UNL     1      35.107 -22.647 -17.500  0.00  0.00    +0.305 C 
ATOM     30  H   UNL     1      33.596 -22.659 -18.895  0.00  0.00    +0.151 HD
BRANCH  25  33
ATOM     31  O   UNL     1      35.167 -25.363 -15.718  0.00  0.00    -0.273 OA
ATOM     32  N   UNL     1      36.230 -24.467 -13.855  0.00  0.00    -0.275 N 
ATOM     33  C   UNL     1      35.342 -24.430 -14.930  0.00  0.00    +0.244 C 
ATOM     34  C   UNL     1      37.047 -25.637 -13.560  0.00  0.00    +0.115 C 
ATOM     35  C   UNL     1      36.406 -23.336 -12.948  0.00  0.00    +0.115 C 
ENDBRANCH  25  33
ENDBRANCH  21  24
ENDBRANCH   1  21
TORSDOF 4
ENDMDL
MODEL 2
REMARK VINA RESULT:     -12.2      1.236      2.424
REMARK  Name = 10298385
REMARK  4 active torsions:
REMARK  status: ('A' for Active; 'I' for Inactive)
REMARK    1  A    between atoms: C_1  and  C_21
REMARK    2  A    between atoms: C_2  and  C_16
REMARK    3  A    between atoms: C_21  and  N_24
REMARK    4  A    between atoms: C_25  and  C_33
REMARK                            x       y       z     vdW  Elec       q    Type
REMARK                         _______ _______ _______ _____ _____    ______ ____
ROOT
ATOM      1  C   UNL     1      36.338 -20.479 -20.038  0.00  0.00    -0.006 C 
ATOM      2  C   UNL     1      35.514 -18.742 -22.061  0.00  0.00    +0.054 C 
ATOM      3  C   UNL     1      35.019 -20.509 -20.488  0.00  0.00    -0.024 C 
ATOM      4  C   UNL     1      34.606 -19.640 -21.498  0.00  0.00    +0.000 C 
ATOM      5  C   UNL     1      37.246 -19.580 -20.599  0.00  0.00    -0.003 C 
ATOM      6  C   UNL     1      36.834 -18.712 -21.611  0.00  0.00    +0.004 C 
ATOM      7  C   UNL     1      34.028 -21.459 -19.901  0.00  0.00    +0.031 C 
ENDROOT
BRANCH   2  16
ATOM      8  O   UNL     1      35.580 -18.036 -24.229  0.00  0.00    -0.270 OA
ATOM      9  N   UNL     1      34.184 -16.793 -22.787  0.00  0.00    -0.255 N 
ATOM     10  C   UNL     1      34.501 -15.711 -20.571  0.00  0.00    +0.022 C 
ATOM     11  C   UNL     1      34.873 -14.402 -21.258  0.00  0.00    +0.006 C 
ATOM     12  C   UNL     1      33.634 -16.619 -21.433  0.00  0.00    +0.099 C 
ATOM     13  C   UNL     1      33.732 -13.822 -22.090  0.00  0.00    +0.028 C 
ATOM     14  C   UNL     1      33.529 -14.459 -23.453  0.00  0.00    -0.008 C 
ATOM     15  C   UNL     1      33.793 -15.814 -23.774  0.00  0.00    +0.050 C 
ATOM     16  C   UNL     1      35.080 -17.826 -23.124  0.00  0.00    +0.253 C 
ATOM     17  C   UNL     1      33.062 -13.597 -24.468  0.00  0.00    -0.003 C 
ATOM     18  C   UNL     1      33.611 -16.233 -25.109  0.00  0.00    +0.015 C 
ATOM     19  C   UNL     1      32.889 -14.037 -25.778  0.00  0.00    -0.000 C 
ATOM     20  C   UNL     1      33.169 -15.356 -26.099  0.00  0.00    +0.001 C 
ENDBRANCH   2  16
BRANCH   1  21
ATOM     21  C   UNL     1      36.803 -21.398 -18.957  0.00  0.00    +0.117 C 
BRANCH  21  24
ATOM     22  O   UNL     1      36.860 -22.188 -16.238  0.00  0.00    -0.253 OA
ATOM     23  N   UNL     1      34.658 -22.882 -16.328  0.00  0.00    -0.257 N 
ATOM     24  N   UNL     1      35.703 -21.976 -18.220  0.00  0.00    -0.285 N 
ATOM     25  C   UNL     1      34.540 -23.169 -14.904  0.00  0.00    +0.153 C 
ATOM     26  C   UNL     1      33.041 -23.283 -14.654  0.00  0.00    +0.031 C 
ATOM     27  C   UNL     1      32.495 -23.784 -15.987  0.00  0.00    +0.024 C 
ATOM     28  C   UNL     1      33.383 -23.093 -17.012  0.00  0.00    +0.095 C 
ATOM     29  C   UNL     1      35.817 -22.336 -16.882  0.00  0.00    +0.305 C 
ATOM     30  H   UNL     1      34.844 -22.118 -18.680  0.00  0.00    +0.151 HD
BRANCH  25  33
ATOM     31  O   UNL     1      35.130 -25.383 -15.472  0.00  0.00    -0.273 OA
ATOM     32  N   UNL     1      36.006 -24.552 -13.486  0.00  0.00    -0.275 N 
ATOM     33  C   UNL     1      35.247 -24.468 -14.653  0.00  0.00    +0.244 C 
ATOM     34  C   UNL     1      36.744 -25.755 -13.122  0.00  0.00    +0.115 C 
ATOM     35  C   UNL     1      36.118 -23.442 -12.545  0.00  0.00    +0.115 C 
ENDBRANCH  25  33
ENDBRANCH  21  24
ENDBRANCH   1  21
TORSDOF 4
ENDMDL
MODEL 3
REMARK VINA RESULT:     -11.5      1.689      2.780
REMARK  Name = 10298385
REMARK  4 active torsions:
REMARK  status: ('A' for Active; 'I' for Inactive)
REMARK    1  A    between atoms: C_1  and  C_21
REMARK    2  A    between atoms: C_2  and  C_16
REMARK    3  A    between atoms: C_21  and  N_24
REMARK    4  A    between atoms: C_25  and  C_33
REMARK                            x       y       z     vdW  Elec       q    Type
REMARK                         _______ _______ _______ _____ _____    ______ ____
ROOT
ATOM      1  C   UNL     1      34.356 -21.405 -19.965  0.00  0.00    -0.006 C 
ATOM      2  C   UNL     1      33.845 -18.810 -20.854  0.00  0.00    +0.054 C 
ATOM      3  C   UNL     1      35.414 -20.523 -20.190  0.00  0.00    -0.024 C 
ATOM      4  C   UNL     1      35.158 -19.227 -20.636  0.00  0.00    +0.000 C 
ATOM      5  C   UNL     1      33.043 -20.988 -20.185  0.00  0.00    -0.003 C 
ATOM      6  C   UNL     1      32.787 -19.691 -20.629  0.00  0.00    +0.004 C 
ATOM      7  C   UNL     1      36.828 -20.947 -19.965  0.00  0.00    +0.031 C 
ENDROOT
BRANCH   2  16
ATOM      8  O   UNL     1      32.700 -16.843 -20.705  0.00  0.00    -0.270 OA
ATOM      9  N   UNL     1      34.297 -16.971 -22.439  0.00  0.00    -0.255 N 
ATOM     10  C   UNL     1      34.761 -18.606 -24.253  0.00  0.00    +0.022 C 
ATOM     11  C   UNL     1      33.869 -17.814 -25.201  0.00  0.00    +0.006 C 
ATOM     12  C   UNL     1      35.332 -17.764 -23.120  0.00  0.00    +0.099 C 
ATOM     13  C   UNL     1      34.389 -16.403 -25.470  0.00  0.00    +0.028 C 
ATOM     14  C   UNL     1      34.103 -15.386 -24.380  0.00  0.00    -0.008 C 
ATOM     15  C   UNL     1      34.010 -15.669 -22.995  0.00  0.00    +0.050 C 
ATOM     16  C   UNL     1      33.576 -17.445 -21.325  0.00  0.00    +0.253 C 
ATOM     17  C   UNL     1      33.895 -14.061 -24.819  0.00  0.00    -0.003 C 
ATOM     18  C   UNL     1      33.674 -14.616 -22.117  0.00  0.00    +0.015 C 
ATOM     19  C   UNL     1      33.567 -13.039 -23.932  0.00  0.00    -0.000 C 
ATOM     20  C   UNL     1      33.451 -13.319 -22.579  0.00  0.00    +0.001 C 
ENDBRANCH   2  16
BRANCH   1  21
ATOM     21  C   UNL     1      34.605 -22.798 -19.489  0.00  0.00    +0.117 C 
BRANCH  21  24
ATOM     22  O   UNL     1      32.469 -23.790 -17.915  0.00  0.00    -0.253 OA
ATOM     23  N   UNL     1      33.649 -23.416 -15.964  0.00  0.00    -0.257 N 
ATOM     24  N   UNL     1      34.588 -22.894 -18.048  0.00  0.00    -0.285 N 
ATOM     25  C   UNL     1      32.676 -24.052 -15.084  0.00  0.00    +0.153 C 
ATOM     26  C   UNL     1      33.423 -24.268 -13.773  0.00  0.00    +0.031 C 
ATOM     27  C   UNL     1      34.438 -23.129 -13.750  0.00  0.00    +0.024 C 
ATOM     28  C   UNL     1      34.823 -22.972 -15.214  0.00  0.00    +0.095 C 
ATOM     29  C   UNL     1      33.494 -23.397 -17.351  0.00  0.00    +0.305 C 
ATOM     30  H   UNL     1      35.379 -22.596 -17.541  0.00  0.00    +0.151 HD
BRANCH  25  33
ATOM     31  O   UNL     1      31.758 -21.952 -14.519  0.00  0.00    -0.273 OA
ATOM     32  N   UNL     1      30.264 -23.577 -15.249  0.00  0.00    -0.275 N 
ATOM     33  C   UNL     1      31.533 -23.095 -14.923  0.00  0.00    +0.244 C 
ATOM     34  C   UNL     1      29.067 -22.753 -15.140  0.00  0.00    +0.115 C 
ATOM     35  C   UNL     1      30.044 -24.939 -15.725  0.00  0.00    +0.115 C 
ENDBRANCH  25  33
ENDBRANCH  21  24
ENDBRANCH   1  21
TORSDOF 4
ENDMDL
MODEL 4
REMARK VINA RESULT:     -10.9      4.550      9.080
REMARK  Name = 10298385
REMARK  4 active torsions:
REMARK  status: ('A' for Active; 'I' for Inactive)
REMARK    1  A    between atoms: C_1  and  C_21
REMARK    2  A    between atoms: C_2  and  C_16
REMARK    3  A    between atoms: C_21  and  N_24
REMARK    4  A    between atoms: C_25  and  C_33
REMARK                            x       y       z     vdW  Elec       q    Type
REMARK                         _______ _______ _______ _____ _____    ______ ____
ROOT
ATOM      1  C   UNL     1      32.453 -12.479 -21.625  0.00  0.00    -0.006 C 
ATOM      2  C   UNL     1      31.825 -10.010 -22.764  0.00  0.00    +0.054 C 
ATOM      3  C   UNL     1      31.886 -11.473 -20.843  0.00  0.00    -0.024 C 
ATOM      4  C   UNL     1      31.574 -10.239 -21.411  0.00  0.00    +0.000 C 
ATOM      5  C   UNL     1      32.706 -12.250 -22.978  0.00  0.00    -0.003 C 
ATOM      6  C   UNL     1      32.391 -11.016 -23.548  0.00  0.00    +0.004 C 
ATOM      7  C   UNL     1      31.609 -11.693 -19.392  0.00  0.00    +0.031 C 
ENDROOT
BRANCH   2  16
ATOM      8  O   UNL     1      30.333  -8.590 -23.744  0.00  0.00    -0.270 OA
ATOM      9  N   UNL     1      32.525  -7.754 -23.482  0.00  0.00    -0.255 N 
ATOM     10  C   UNL     1      34.788  -8.605 -24.060  0.00  0.00    +0.022 C 
ATOM     11  C   UNL     1      34.724  -7.878 -25.398  0.00  0.00    +0.006 C 
ATOM     12  C   UNL     1      33.894  -7.984 -22.995  0.00  0.00    +0.099 C 
ATOM     13  C   UNL     1      34.636  -6.361 -25.248  0.00  0.00    +0.028 C 
ATOM     14  C   UNL     1      33.260  -5.819 -24.909  0.00  0.00    -0.008 C 
ATOM     15  C   UNL     1      32.277  -6.492 -24.141  0.00  0.00    +0.050 C 
ATOM     16  C   UNL     1      31.497  -8.710 -23.364  0.00  0.00    +0.253 C 
ATOM     17  C   UNL     1      32.956  -4.546 -25.438  0.00  0.00    -0.003 C 
ATOM     18  C   UNL     1      31.020  -5.874 -23.971  0.00  0.00    +0.015 C 
ATOM     19  C   UNL     1      31.708  -3.957 -25.253  0.00  0.00    -0.000 C 
ATOM     20  C   UNL     1      30.737  -4.625 -24.523  0.00  0.00    +0.001 C 
ENDBRANCH   2  16
BRANCH   1  21
ATOM     21  C   UNL     1      32.797 -13.808 -21.039  0.00  0.00    +0.117 C 
BRANCH  21  24
ATOM     22  O   UNL     1      33.380 -16.548 -20.620  0.00  0.00    -0.253 OA
ATOM     23  N   UNL     1      34.083 -16.798 -22.807  0.00  0.00    -0.257 N 
ATOM     24  N   UNL     1      33.320 -14.723 -22.026  0.00  0.00    -0.285 N 
ATOM     25  C   UNL     1      34.262 -18.242 -22.735  0.00  0.00    +0.153 C 
ATOM     26  C   UNL     1      34.360 -18.693 -24.188  0.00  0.00    +0.031 C 
ATOM     27  C   UNL     1      34.962 -17.483 -24.896  0.00  0.00    +0.024 C 
ATOM     28  C   UNL     1      34.348 -16.303 -24.157  0.00  0.00    +0.095 C 
ATOM     29  C   UNL     1      33.578 -16.058 -21.736  0.00  0.00    +0.305 C 
ATOM     30  H   UNL     1      33.499 -14.391 -22.936  0.00  0.00    +0.151 HD
BRANCH  25  33
ATOM     31  O   UNL     1      36.548 -17.855 -22.289  0.00  0.00    -0.273 OA
ATOM     32  N   UNL     1      35.490 -19.456 -20.977  0.00  0.00    -0.275 N 
ATOM     33  C   UNL     1      35.537 -18.494 -21.986  0.00  0.00    +0.244 C 
ATOM     34  C   UNL     1      36.655 -19.798 -20.172  0.00  0.00    +0.115 C 
ATOM     35  C   UNL     1      34.269 -20.189 -20.653  0.00  0.00    +0.115 C 
ENDBRANCH  25  33
ENDBRANCH  21  24
ENDBRANCH   1  21
TORSDOF 4
ENDMDL
MODEL 5
REMARK VINA RESULT:     -10.3      1.348      2.474
REMARK  Name = 10298385
REMARK  4 active torsions:
REMARK  status: ('A' for Active; 'I' for Inactive)
REMARK    1  A    between atoms: C_1  and  C_21
REMARK    2  A    between atoms: C_2  and  C_16
REMARK    3  A    between atoms: C_21  and  N_24
REMARK    4  A    between atoms: C_25  and  C_33
REMARK                            x       y       z     vdW  Elec       q    Type
REMARK                         _______ _______ _______ _____ _____    ______ ____
ROOT
ATOM      1  C   UNL     1      35.194 -20.507 -20.476  0.00  0.00    -0.006 C 
ATOM      2  C   UNL     1      34.459 -17.931 -21.255  0.00  0.00    +0.054 C 
ATOM      3  C   UNL     1      33.845 -20.168 -20.578  0.00  0.00    -0.024 C 
ATOM      4  C   UNL     1      33.477 -18.879 -20.965  0.00  0.00    +0.000 C 
ATOM      5  C   UNL     1      36.175 -19.558 -20.764  0.00  0.00    -0.003 C 
ATOM      6  C   UNL     1      35.808 -18.270 -21.154  0.00  0.00    +0.004 C 
ATOM      7  C   UNL     1      32.776 -21.165 -20.272  0.00  0.00    +0.031 C 
ENDROOT
BRANCH   2  16
ATOM      8  O   UNL     1      33.376 -15.964 -20.851  0.00  0.00    -0.270 OA
ATOM      9  N   UNL     1      34.488 -16.116 -22.928  0.00  0.00    -0.255 N 
ATOM     10  C   UNL     1      34.492 -17.777 -24.777  0.00  0.00    +0.022 C 
ATOM     11  C   UNL     1      33.386 -17.002 -25.483  0.00  0.00    +0.006 C 
ATOM     12  C   UNL     1      35.324 -16.917 -23.835  0.00  0.00    +0.099 C 
ATOM     13  C   UNL     1      33.814 -15.595 -25.893  0.00  0.00    +0.028 C 
ATOM     14  C   UNL     1      33.804 -14.561 -24.782  0.00  0.00    -0.008 C 
ATOM     15  C   UNL     1      34.063 -14.823 -23.413  0.00  0.00    +0.050 C 
ATOM     16  C   UNL     1      34.072 -16.574 -21.662  0.00  0.00    +0.253 C 
ATOM     17  C   UNL     1      33.485 -13.244 -25.174  0.00  0.00    -0.003 C 
ATOM     18  C   UNL     1      33.951 -13.758 -22.495  0.00  0.00    +0.015 C 
ATOM     19  C   UNL     1      33.383 -12.209 -24.248  0.00  0.00    -0.000 C 
ATOM     20  C   UNL     1      33.612 -12.469 -22.905  0.00  0.00    +0.001 C 
ENDBRANCH   2  16
BRANCH   1  21
ATOM     21  C   UNL     1      35.612 -21.879 -20.062  0.00  0.00    +0.117 C 
BRANCH  21  24
ATOM     22  O   UNL     1      33.803 -23.608 -18.735  0.00  0.00    -0.253 OA
ATOM     23  N   UNL     1      34.643 -23.005 -16.669  0.00  0.00    -0.257 N 
ATOM     24  N   UNL     1      35.518 -22.072 -18.633  0.00  0.00    -0.285 N 
ATOM     25  C   UNL     1      33.866 -23.978 -15.910  0.00  0.00    +0.153 C 
ATOM     26  C   UNL     1      34.540 -24.030 -14.543  0.00  0.00    +0.031 C 
ATOM     27  C   UNL     1      35.123 -22.629 -14.381  0.00  0.00    +0.024 C 
ATOM     28  C   UNL     1      35.547 -22.259 -15.795  0.00  0.00    +0.095 C 
ATOM     29  C   UNL     1      34.598 -22.945 -18.063  0.00  0.00    +0.305 C 
ATOM     30  H   UNL     1      36.127 -21.570 -18.044  0.00  0.00    +0.151 HD
BRANCH  25  33
ATOM     31  O   UNL     1      32.109 -22.554 -16.588  0.00  0.00    -0.273 OA
ATOM     32  N   UNL     1      31.640 -24.031 -14.855  0.00  0.00    -0.275 N 
ATOM     33  C   UNL     1      32.464 -23.453 -15.821  0.00  0.00    +0.244 C 
ATOM     34  C   UNL     1      30.257 -23.616 -14.662  0.00  0.00    +0.115 C 
ATOM     35  C   UNL     1      32.103 -25.094 -13.968  0.00  0.00    +0.115 C 
ENDBRANCH  25  33
ENDBRANCH  21  24
ENDBRANCH   1  21
TORSDOF 4
ENDMDL
MODEL 6
REMARK VINA RESULT:      -9.8      4.317     11.981
REMARK  Name = 10298385
REMARK  4 active torsions:
REMARK  status: ('A' for Active; 'I' for Inactive)
REMARK    1  A    between atoms: C_1  and  C_21
REMARK    2  A    between atoms: C_2  and  C_16
REMARK    3  A    between atoms: C_21  and  N_24
REMARK    4  A    between atoms: C_25  and  C_33
REMARK                            x       y       z     vdW  Elec       q    Type
REMARK                         _______ _______ _______ _____ _____    ______ ____
ROOT
ATOM      1  C   UNL     1      33.112 -14.113 -23.931  0.00  0.00    -0.006 C 
ATOM      2  C   UNL     1      34.531 -16.283 -22.900  0.00  0.00    +0.054 C 
ATOM      3  C   UNL     1      33.458 -15.178 -24.762  0.00  0.00    -0.024 C 
ATOM      4  C   UNL     1      34.169 -16.263 -24.247  0.00  0.00    +0.000 C 
ATOM      5  C   UNL     1      33.475 -14.134 -22.583  0.00  0.00    -0.003 C 
ATOM      6  C   UNL     1      34.184 -15.219 -22.068  0.00  0.00    +0.004 C 
ATOM      7  C   UNL     1      33.084 -15.178 -26.208  0.00  0.00    +0.031 C 
ENDROOT
BRANCH   2  16
ATOM      8  O   UNL     1      36.308 -17.712 -22.971  0.00  0.00    -0.270 OA
ATOM      9  N   UNL     1      34.751 -18.096 -21.238  0.00  0.00    -0.255 N 
ATOM     10  C   UNL     1      32.280 -18.359 -21.151  0.00  0.00    +0.022 C 
ATOM     11  C   UNL     1      32.432 -19.870 -21.281  0.00  0.00    +0.006 C 
ATOM     12  C   UNL     1      33.510 -17.679 -20.566  0.00  0.00    +0.099 C 
ATOM     13  C   UNL     1      33.179 -20.497 -20.106  0.00  0.00    +0.028 C 
ATOM     14  C   UNL     1      34.690 -20.360 -20.146  0.00  0.00    -0.008 C 
ATOM     15  C   UNL     1      35.402 -19.276 -20.718  0.00  0.00    +0.050 C 
ATOM     16  C   UNL     1      35.280 -17.425 -22.358  0.00  0.00    +0.253 C 
ATOM     17  C   UNL     1      35.417 -21.428 -19.580  0.00  0.00    -0.003 C 
ATOM     18  C   UNL     1      36.812 -19.333 -20.730  0.00  0.00    +0.015 C 
ATOM     19  C   UNL     1      36.809 -21.459 -19.602  0.00  0.00    -0.000 C 
ATOM     20  C   UNL     1      37.507 -20.411 -20.183  0.00  0.00    +0.001 C 
ENDBRANCH   2  16
BRANCH   1  21
ATOM     21  C   UNL     1      32.352 -12.942 -24.459  0.00  0.00    +0.117 C 
BRANCH  21  24
ATOM     22  O   UNL     1      31.586 -10.804 -22.766  0.00  0.00    -0.253 OA
ATOM     23  N   UNL     1      33.437  -9.567 -23.383  0.00  0.00    -0.257 N 
ATOM     24  N   UNL     1      33.070 -11.700 -24.284  0.00  0.00    -0.285 N 
ATOM     25  C   UNL     1      33.213  -8.489 -22.429  0.00  0.00    +0.153 C 
ATOM     26  C   UNL     1      34.534  -7.729 -22.386  0.00  0.00    +0.031 C 
ATOM     27  C   UNL     1      35.113  -7.942 -23.781  0.00  0.00    +0.024 C 
ATOM     28  C   UNL     1      34.677  -9.358 -24.130  0.00  0.00    +0.095 C 
ATOM     29  C   UNL     1      32.622 -10.700 -23.428  0.00  0.00    +0.305 C 
ATOM     30  H   UNL     1      33.906 -11.558 -24.786  0.00  0.00    +0.151 HD
BRANCH  25  33
ATOM     31  O   UNL     1      31.744  -7.795 -24.142  0.00  0.00    -0.273 OA
ATOM     32  N   UNL     1      31.533  -6.718 -22.092  0.00  0.00    -0.275 N 
ATOM     33  C   UNL     1      32.101  -7.641 -22.971  0.00  0.00    +0.244 C 
ATOM     34  C   UNL     1      30.445  -5.833 -22.488  0.00  0.00    +0.115 C 
ATOM     35  C   UNL     1      31.987  -6.571 -20.712  0.00  0.00    +0.115 C 
ENDBRANCH  25  33
ENDBRANCH  21  24
ENDBRANCH   1  21
TORSDOF 4
ENDMDL
MODEL 7
REMARK VINA RESULT:      -9.8      5.038      9.938
REMARK  Name = 10298385
REMARK  4 active torsions:
REMARK  status: ('A' for Active; 'I' for Inactive)
REMARK    1  A    between atoms: C_1  and  C_21
REMARK    2  A    between atoms: C_2  and  C_16
REMARK    3  A    between atoms: C_21  and  N_24
REMARK    4  A    between atoms: C_25  and  C_33
REMARK                            x       y       z     vdW  Elec       q    Type
REMARK                         _______ _______ _______ _____ _____    ______ ____
ROOT
ATOM      1  C   UNL     1      32.822 -11.912 -22.663  0.00  0.00    -0.006 C 
ATOM      2  C   UNL     1      33.245  -9.375 -23.745  0.00  0.00    +0.054 C 
ATOM      3  C   UNL     1      32.251 -10.792 -22.059  0.00  0.00    -0.024 C 
ATOM      4  C   UNL     1      32.464  -9.523 -22.599  0.00  0.00    +0.000 C 
ATOM      5  C   UNL     1      33.605 -11.763 -23.809  0.00  0.00    -0.003 C 
ATOM      6  C   UNL     1      33.816 -10.495 -24.350  0.00  0.00    +0.004 C 
ATOM      7  C   UNL     1      31.412 -10.925 -20.831  0.00  0.00    +0.031 C 
ENDROOT
BRANCH   2  16
ATOM      8  O   UNL     1      34.637  -7.790 -24.612  0.00  0.00    -0.270 OA
ATOM      9  N   UNL     1      32.366  -7.171 -24.428  0.00  0.00    -0.255 N 
ATOM     10  C   UNL     1      30.695  -7.233 -22.589  0.00  0.00    +0.022 C 
ATOM     11  C   UNL     1      31.063  -5.806 -22.200  0.00  0.00    +0.006 C 
ATOM     12  C   UNL     1      30.999  -7.558 -24.045  0.00  0.00    +0.099 C 
ATOM     13  C   UNL     1      30.759  -4.792 -23.300  0.00  0.00    +0.028 C 
ATOM     14  C   UNL     1      31.775  -4.728 -24.427  0.00  0.00    -0.008 C 
ATOM     15  C   UNL     1      32.547  -5.818 -24.900  0.00  0.00    +0.050 C 
ATOM     16  C   UNL     1      33.470  -8.039 -24.314  0.00  0.00    +0.253 C 
ATOM     17  C   UNL     1      31.958  -3.458 -25.014  0.00  0.00    -0.003 C 
ATOM     18  C   UNL     1      33.496  -5.575 -25.915  0.00  0.00    +0.015 C 
ATOM     19  C   UNL     1      32.901  -3.245 -26.017  0.00  0.00    -0.000 C 
ATOM     20  C   UNL     1      33.674  -4.305 -26.464  0.00  0.00    +0.001 C 
ENDBRANCH   2  16
BRANCH   1  21
ATOM     21  C   UNL     1      32.610 -13.279 -22.103  0.00  0.00    +0.117 C 
BRANCH  21  24
ATOM     22  O   UNL     1      33.197 -15.941 -21.333  0.00  0.00    -0.253 OA
ATOM     23  N   UNL     1      33.920 -16.465 -23.464  0.00  0.00    -0.257 N 
ATOM     24  N   UNL     1      33.144 -14.311 -22.961  0.00  0.00    -0.285 N 
ATOM     25  C   UNL     1      34.102 -17.888 -23.207  0.00  0.00    +0.153 C 
ATOM     26  C   UNL     1      34.213 -18.521 -24.589  0.00  0.00    +0.031 C 
ATOM     27  C   UNL     1      34.818 -17.409 -25.441  0.00  0.00    +0.024 C 
ATOM     28  C   UNL     1      34.195 -16.146 -24.864  0.00  0.00    +0.095 C 
ATOM     29  C   UNL     1      33.404 -15.597 -22.500  0.00  0.00    +0.305 C 
ATOM     30  H   UNL     1      33.330 -14.097 -23.905  0.00  0.00    +0.151 HD
BRANCH  25  33
ATOM     31  O   UNL     1      36.337 -17.321 -22.698  0.00  0.00    -0.273 OA
ATOM     32  N   UNL     1      35.372 -18.999 -21.411  0.00  0.00    -0.275 N 
ATOM     33  C   UNL     1      35.371 -18.038 -22.422  0.00  0.00    +0.244 C 
ATOM     34  C   UNL     1      36.538 -19.247 -20.572  0.00  0.00    +0.115 C 
ATOM     35  C   UNL     1      34.205 -19.826 -21.118  0.00  0.00    +0.115 C 
ENDBRANCH  25  33
ENDBRANCH  21  24
ENDBRANCH   1  21
TORSDOF 4
ENDMDL
MODEL 8
REMARK VINA RESULT:      -9.6      6.742     14.569
REMARK  Name = 10298385
REMARK  4 active torsions:
REMARK  status: ('A' for Active; 'I' for Inactive)
REMARK    1  A    between atoms: C_1  and  C_21
REMARK    2  A    between atoms: C_2  and  C_16
REMARK    3  A    between atoms: C_21  and  N_24
REMARK    4  A    between atoms: C_25  and  C_33
REMARK                            x       y       z     vdW  Elec       q    Type
REMARK                         _______ _______ _______ _____ _____    ______ ____
ROOT
ATOM      1  C   UNL     1      32.510  -9.937 -22.835  0.00  0.00    -0.006 C 
ATOM      2  C   UNL     1      33.027 -12.560 -23.630  0.00  0.00    +0.054 C 
ATOM      3  C   UNL     1      31.831 -10.995 -22.232  0.00  0.00    -0.024 C 
ATOM      4  C   UNL     1      32.087 -12.307 -22.630  0.00  0.00    +0.000 C 
ATOM      5  C   UNL     1      33.448 -10.191 -23.836  0.00  0.00    -0.003 C 
ATOM      6  C   UNL     1      33.707 -11.502 -24.233  0.00  0.00    +0.004 C 
ATOM      7  C   UNL     1      30.820 -10.748 -21.160  0.00  0.00    +0.031 C 
ENDROOT
BRANCH   2  16
ATOM      8  O   UNL     1      32.812 -14.261 -25.136  0.00  0.00    -0.270 OA
ATOM      9  N   UNL     1      34.035 -14.769 -23.182  0.00  0.00    -0.255 N 
ATOM     10  C   UNL     1      33.605 -14.506 -20.747  0.00  0.00    +0.022 C 
ATOM     11  C   UNL     1      33.027 -15.916 -20.692  0.00  0.00    +0.006 C 
ATOM     12  C   UNL     1      34.580 -14.299 -21.898  0.00  0.00    +0.099 C 
ATOM     13  C   UNL     1      34.052 -16.992 -21.043  0.00  0.00    +0.028 C 
ATOM     14  C   UNL     1      34.319 -17.179 -22.525  0.00  0.00    -0.008 C 
ATOM     15  C   UNL     1      34.255 -16.159 -23.507  0.00  0.00    +0.050 C 
ATOM     16  C   UNL     1      33.297 -13.942 -24.051  0.00  0.00    +0.253 C 
ATOM     17  C   UNL     1      34.632 -18.495 -22.930  0.00  0.00    -0.003 C 
ATOM     18  C   UNL     1      34.470 -16.513 -24.856  0.00  0.00    +0.015 C 
ATOM     19  C   UNL     1      34.842 -18.817 -24.268  0.00  0.00    -0.000 C 
ATOM     20  C   UNL     1      34.756 -17.825 -25.233  0.00  0.00    +0.001 C 
ENDBRANCH   2  16
BRANCH   1  21
ATOM     21  C   UNL     1      32.251  -8.524 -22.426  0.00  0.00    +0.117 C 
BRANCH  21  24
ATOM     22  O   UNL     1      32.049  -5.703 -22.268  0.00  0.00    -0.253 OA
ATOM     23  N   UNL     1      32.402  -5.488 -24.542  0.00  0.00    -0.257 N 
ATOM     24  N   UNL     1      32.372  -7.603 -23.532  0.00  0.00    -0.285 N 
ATOM     25  C   UNL     1      32.473  -4.032 -24.538  0.00  0.00    +0.153 C 
ATOM     26  C   UNL     1      33.086  -3.671 -25.886  0.00  0.00    +0.031 C 
ATOM     27  C   UNL     1      32.636  -4.808 -26.798  0.00  0.00    +0.024 C 
ATOM     28  C   UNL     1      32.652  -6.022 -25.880  0.00  0.00    +0.095 C 
ATOM     29  C   UNL     1      32.260  -6.227 -23.366  0.00  0.00    +0.305 C 
ATOM     30  H   UNL     1      32.541  -7.962 -24.434  0.00  0.00    +0.151 HD
BRANCH  25  33
ATOM     31  O   UNL     1      30.165  -4.082 -25.032  0.00  0.00    -0.273 OA
ATOM     32  N   UNL     1      30.879  -2.419 -23.574  0.00  0.00    -0.275 N 
ATOM     33  C   UNL     1      31.069  -3.520 -24.409  0.00  0.00    +0.244 C 
ATOM     34  C   UNL     1      29.568  -1.822 -23.358  0.00  0.00    +0.115 C 
ATOM     35  C   UNL     1      31.980  -1.785 -22.854  0.00  0.00    +0.115 C 
ENDBRANCH  25  33
ENDBRANCH  21  24
ENDBRANCH   1  21
TORSDOF 4
ENDMDL
