MODEL 1
REMARK VINA RESULT:      -8.8      0.000      0.000
REMARK  Name = 11120251
REMARK  3 active torsions:
REMARK  status: ('A' for Active; 'I' for Inactive)
REMARK    1  A    between atoms: C_2  and  N_17
REMARK    2  A    between atoms: C_3  and  C_11
REMARK    3  A    between atoms: C_18  and  C_20
REMARK                            x       y       z     vdW  Elec       q    Type
REMARK                         _______ _______ _______ _____ _____    ______ ____
ROOT
ATOM      1  N   UNL     1      34.503 -22.650 -17.875  0.00  0.00    -0.238 NA
ATOM      2  C   UNL     1      35.951 -22.692 -15.962  0.00  0.00    +0.073 C 
ATOM      3  C   UNL     1      34.764 -22.984 -16.592  0.00  0.00    +0.148 C 
ATOM      4  C   UNL     1      36.940 -22.024 -16.657  0.00  0.00    +0.018 C 
ATOM      5  C   UNL     1      36.708 -21.666 -17.980  0.00  0.00    +0.022 C 
ATOM      6  C   UNL     1      35.484 -21.998 -18.538  0.00  0.00    +0.099 C 
ENDROOT
BRANCH   3  11
ATOM      7  S   UNL     1      29.782 -22.998 -16.339  0.00  0.00    -0.051 S 
ATOM      8  O   UNL     1      33.962 -24.612 -15.142  0.00  0.00    -0.268 OA
ATOM      9  N   UNL     1      32.389 -23.248 -16.233  0.00  0.00    -0.259 N 
ATOM     10  N   UNL     1      31.042 -24.746 -14.911  0.00  0.00    -0.222 NA
ATOM     11  C   UNL     1      33.682 -23.684 -15.915  0.00  0.00    +0.270 C 
ATOM     12  C   UNL     1      31.184 -23.766 -15.748  0.00  0.00    +0.166 C 
ATOM     13  C   UNL     1      28.851 -24.079 -15.387  0.00  0.00    +0.059 C 
ATOM     14  C   UNL     1      29.691 -24.931 -14.700  0.00  0.00    +0.108 C 
ATOM     15  H   UNL     1      32.322 -22.497 -16.867  0.00  0.00    +0.157 HD
ENDBRANCH   3  11
BRANCH   2  17
ATOM     16  O   UNL     1      37.689 -24.832 -14.824  0.00  0.00    -0.275 OA
ATOM     17  N   UNL     1      36.180 -23.061 -14.614  0.00  0.00    -0.283 N 
ATOM     18  C   UNL     1      37.006 -24.074 -14.137  0.00  0.00    +0.225 C 
ATOM     19  H   UNL     1      35.698 -22.537 -13.934  0.00  0.00    +0.155 HD
BRANCH  18  20
ATOM     20  C   UNL     1      37.005 -24.184 -12.592  0.00  0.00    +0.069 C 
ATOM     21  C   UNL     1      37.896 -25.364 -12.162  0.00  0.00    +0.009 C 
ATOM     22  C   UNL     1      35.579 -24.442 -12.080  0.00  0.00    +0.009 C 
ATOM     23  C   UNL     1      37.568 -22.897 -11.968  0.00  0.00    +0.009 C 
ENDBRANCH  18  20
ENDBRANCH   2  17
TORSDOF 3
ENDMDL
MODEL 2
REMARK VINA RESULT:      -8.8      2.552      5.953
REMARK  Name = 11120251
REMARK  3 active torsions:
REMARK  status: ('A' for Active; 'I' for Inactive)
REMARK    1  A    between atoms: C_2  and  N_17
REMARK    2  A    between atoms: C_3  and  C_11
REMARK    3  A    between atoms: C_18  and  C_20
REMARK                            x       y       z     vdW  Elec       q    Type
REMARK                         _______ _______ _______ _____ _____    ______ ____
ROOT
ATOM      1  N   UNL     1      35.741 -22.447 -17.565  0.00  0.00    -0.238 NA
ATOM      2  C   UNL     1      33.410 -22.928 -17.267  0.00  0.00    +0.073 C 
ATOM      3  C   UNL     1      34.710 -22.905 -16.822  0.00  0.00    +0.148 C 
ATOM      4  C   UNL     1      33.120 -22.464 -18.535  0.00  0.00    +0.018 C 
ATOM      5  C   UNL     1      34.155 -21.984 -19.329  0.00  0.00    +0.022 C 
ATOM      6  C   UNL     1      35.437 -21.997 -18.803  0.00  0.00    +0.099 C 
ENDROOT
BRANCH   3  11
ATOM      7  S   UNL     1      38.338 -25.470 -14.553  0.00  0.00    -0.051 S 
ATOM      8  O   UNL     1      34.350 -23.103 -14.535  0.00  0.00    -0.268 OA
ATOM      9  N   UNL     1      36.281 -24.103 -15.429  0.00  0.00    -0.259 N 
ATOM     10  N   UNL     1      36.420 -24.574 -13.070  0.00  0.00    -0.222 NA
ATOM     11  C   UNL     1      35.083 -23.381 -15.497  0.00  0.00    +0.270 C 
ATOM     12  C   UNL     1      36.873 -24.643 -14.283  0.00  0.00    +0.166 C 
ATOM     13  C   UNL     1      38.410 -25.789 -12.869  0.00  0.00    +0.059 C 
ATOM     14  C   UNL     1      37.309 -25.237 -12.247  0.00  0.00    +0.108 C 
ATOM     15  H   UNL     1      36.757 -24.245 -16.279  0.00  0.00    +0.157 HD
ENDBRANCH   3  11
BRANCH   2  17
ATOM     16  O   UNL     1      30.529 -22.163 -17.177  0.00  0.00    -0.275 OA
ATOM     17  N   UNL     1      32.360 -23.418 -16.452  0.00  0.00    -0.283 N 
ATOM     18  C   UNL     1      31.026 -23.023 -16.452  0.00  0.00    +0.225 C 
ATOM     19  H   UNL     1      32.605 -24.124 -15.810  0.00  0.00    +0.155 HD
BRANCH  18  20
ATOM     20  C   UNL     1      30.165 -23.787 -15.416  0.00  0.00    +0.069 C 
ATOM     21  C   UNL     1      30.704 -23.511 -14.000  0.00  0.00    +0.009 C 
ATOM     22  C   UNL     1      30.240 -25.299 -15.677  0.00  0.00    +0.009 C 
ATOM     23  C   UNL     1      28.706 -23.308 -15.482  0.00  0.00    +0.009 C 
ENDBRANCH  18  20
ENDBRANCH   2  17
TORSDOF 3
ENDMDL
MODEL 3
REMARK VINA RESULT:      -8.4      2.404      4.912
REMARK  Name = 11120251
REMARK  3 active torsions:
REMARK  status: ('A' for Active; 'I' for Inactive)
REMARK    1  A    between atoms: C_2  and  N_17
REMARK    2  A    between atoms: C_3  and  C_11
REMARK    3  A    between atoms: C_18  and  C_20
REMARK                            x       y       z     vdW  Elec       q    Type
REMARK                         _______ _______ _______ _____ _____    ______ ____
ROOT
ATOM      1  N   UNL     1      31.579 -23.244 -17.271  0.00  0.00    -0.238 NA
ATOM      2  C   UNL     1      33.340 -23.469 -15.657  0.00  0.00    +0.073 C 
ATOM      3  C   UNL     1      32.872 -23.117 -16.902  0.00  0.00    +0.148 C 
ATOM      4  C   UNL     1      32.461 -23.979 -14.723  0.00  0.00    +0.018 C 
ATOM      5  C   UNL     1      31.121 -24.122 -15.067  0.00  0.00    +0.022 C 
ATOM      6  C   UNL     1      30.734 -23.744 -16.342  0.00  0.00    +0.099 C 
ENDROOT
BRANCH   3  11
ATOM      7  S   UNL     1      32.783 -19.854 -20.674  0.00  0.00    -0.051 S 
ATOM      8  O   UNL     1      34.927 -22.957 -17.974  0.00  0.00    -0.268 OA
ATOM      9  N   UNL     1      33.164 -21.629 -18.783  0.00  0.00    -0.259 N 
ATOM     10  N   UNL     1      35.024 -21.055 -20.204  0.00  0.00    -0.222 NA
ATOM     11  C   UNL     1      33.747 -22.576 -17.932  0.00  0.00    +0.270 C 
ATOM     12  C   UNL     1      33.787 -20.941 -19.829  0.00  0.00    +0.166 C 
ATOM     13  C   UNL     1      34.126 -19.466 -21.668  0.00  0.00    +0.059 C 
ATOM     14  C   UNL     1      35.224 -20.201 -21.269  0.00  0.00    +0.108 C 
ATOM     15  H   UNL     1      32.212 -21.426 -18.628  0.00  0.00    +0.157 HD
ENDBRANCH   3  11
BRANCH   2  17
ATOM     16  O   UNL     1      35.507 -25.509 -15.464  0.00  0.00    -0.275 OA
ATOM     17  N   UNL     1      34.706 -23.320 -15.314  0.00  0.00    -0.283 N 
ATOM     18  C   UNL     1      35.679 -24.312 -15.238  0.00  0.00    +0.225 C 
ATOM     19  H   UNL     1      35.002 -22.404 -15.104  0.00  0.00    +0.155 HD
BRANCH  18  20
ATOM     20  C   UNL     1      37.070 -23.771 -14.829  0.00  0.00    +0.069 C 
ATOM     21  C   UNL     1      38.092 -24.924 -14.839  0.00  0.00    +0.009 C 
ATOM     22  C   UNL     1      37.015 -23.185 -13.409  0.00  0.00    +0.009 C 
ATOM     23  C   UNL     1      37.538 -22.700 -15.827  0.00  0.00    +0.009 C 
ENDBRANCH  18  20
ENDBRANCH   2  17
TORSDOF 3
ENDMDL
MODEL 4
REMARK VINA RESULT:      -8.2      1.987      4.721
REMARK  Name = 11120251
REMARK  3 active torsions:
REMARK  status: ('A' for Active; 'I' for Inactive)
REMARK    1  A    between atoms: C_2  and  N_17
REMARK    2  A    between atoms: C_3  and  C_11
REMARK    3  A    between atoms: C_18  and  C_20
REMARK                            x       y       z     vdW  Elec       q    Type
REMARK                         _______ _______ _______ _____ _____    ______ ____
ROOT
ATOM      1  N   UNL     1      31.822 -23.703 -16.086  0.00  0.00    -0.238 NA
ATOM      2  C   UNL     1      33.427 -24.456 -14.470  0.00  0.00    +0.073 C 
ATOM      3  C   UNL     1      33.096 -23.871 -15.669  0.00  0.00    +0.148 C 
ATOM      4  C   UNL     1      32.422 -24.902 -13.634  0.00  0.00    +0.018 C 
ATOM      5  C   UNL     1      31.099 -24.745 -14.029  0.00  0.00    +0.022 C 
ATOM      6  C   UNL     1      30.853 -24.146 -15.254  0.00  0.00    +0.099 C 
ENDROOT
BRANCH   3  11
ATOM      7  S   UNL     1      33.484 -21.096 -19.797  0.00  0.00    -0.051 S 
ATOM      8  O   UNL     1      35.296 -23.662 -16.385  0.00  0.00    -0.268 OA
ATOM      9  N   UNL     1      33.628 -22.596 -17.652  0.00  0.00    -0.259 N 
ATOM     10  N   UNL     1      35.674 -22.035 -18.795  0.00  0.00    -0.222 NA
ATOM     11  C   UNL     1      34.107 -23.381 -16.596  0.00  0.00    +0.270 C 
ATOM     12  C   UNL     1      34.386 -21.985 -18.656  0.00  0.00    +0.166 C 
ATOM     13  C   UNL     1      34.957 -20.714 -20.588  0.00  0.00    +0.059 C 
ATOM     14  C   UNL     1      36.009 -21.299 -19.913  0.00  0.00    +0.108 C 
ATOM     15  H   UNL     1      32.653 -22.458 -17.691  0.00  0.00    +0.157 HD
ENDBRANCH   3  11
BRANCH   2  17
ATOM     16  O   UNL     1      34.763 -23.789 -11.888  0.00  0.00    -0.275 OA
ATOM     17  N   UNL     1      34.778 -24.612 -14.074  0.00  0.00    -0.283 N 
ATOM     18  C   UNL     1      35.351 -24.282 -12.850  0.00  0.00    +0.225 C 
ATOM     19  H   UNL     1      35.383 -25.002 -14.746  0.00  0.00    +0.155 HD
BRANCH  18  20
ATOM     20  C   UNL     1      36.865 -24.597 -12.781  0.00  0.00    +0.069 C 
ATOM     21  C   UNL     1      37.525 -23.708 -11.710  0.00  0.00    +0.009 C 
ATOM     22  C   UNL     1      37.531 -24.300 -14.134  0.00  0.00    +0.009 C 
ATOM     23  C   UNL     1      37.083 -26.068 -12.394  0.00  0.00    +0.009 C 
ENDBRANCH  18  20
ENDBRANCH   2  17
TORSDOF 3
ENDMDL
MODEL 5
REMARK VINA RESULT:      -7.9      9.942     12.174
REMARK  Name = 11120251
REMARK  3 active torsions:
REMARK  status: ('A' for Active; 'I' for Inactive)
REMARK    1  A    between atoms: C_2  and  N_17
REMARK    2  A    between atoms: C_3  and  C_11
REMARK    3  A    between atoms: C_18  and  C_20
REMARK                            x       y       z     vdW  Elec       q    Type
REMARK                         _______ _______ _______ _____ _____    ______ ____
ROOT
ATOM      1  N   UNL     1      32.426 -13.615 -24.997  0.00  0.00    -0.238 NA
ATOM      2  C   UNL     1      33.676 -15.481 -24.155  0.00  0.00    +0.073 C 
ATOM      3  C   UNL     1      32.916 -14.350 -23.975  0.00  0.00    +0.148 C 
ATOM      4  C   UNL     1      33.967 -15.906 -25.436  0.00  0.00    +0.018 C 
ATOM      5  C   UNL     1      33.479 -15.175 -26.514  0.00  0.00    +0.022 C 
ATOM      6  C   UNL     1      32.721 -14.047 -26.244  0.00  0.00    +0.099 C 
ENDROOT
BRANCH   3  11
ATOM      7  S   UNL     1      31.856 -10.060 -21.659  0.00  0.00    -0.051 S 
ATOM      8  O   UNL     1      32.463 -14.658 -21.717  0.00  0.00    -0.268 OA
ATOM      9  N   UNL     1      32.376 -12.466 -22.561  0.00  0.00    -0.259 N 
ATOM     10  N   UNL     1      31.802 -12.217 -20.234  0.00  0.00    -0.222 NA
ATOM     11  C   UNL     1      32.575 -13.849 -22.651  0.00  0.00    +0.270 C 
ATOM     12  C   UNL     1      32.016 -11.740 -21.421  0.00  0.00    +0.166 C 
ATOM     13  C   UNL     1      31.451  -9.915 -19.998  0.00  0.00    +0.059 C 
ATOM     14  C   UNL     1      31.474 -11.161 -19.407  0.00  0.00    +0.108 C 
ATOM     15  H   UNL     1      32.501 -11.949 -23.390  0.00  0.00    +0.157 HD
ENDBRANCH   3  11
BRANCH   2  17
ATOM     16  O   UNL     1      34.552 -18.327 -23.986  0.00  0.00    -0.275 OA
ATOM     17  N   UNL     1      34.169 -16.221 -23.052  0.00  0.00    -0.283 N 
ATOM     18  C   UNL     1      34.565 -17.555 -23.029  0.00  0.00    +0.225 C 
ATOM     19  H   UNL     1      34.240 -15.732 -22.200  0.00  0.00    +0.155 HD
BRANCH  18  20
ATOM     20  C   UNL     1      35.051 -18.022 -21.635  0.00  0.00    +0.069 C 
ATOM     21  C   UNL     1      34.113 -19.124 -21.109  0.00  0.00    +0.009 C 
ATOM     22  C   UNL     1      35.024 -16.848 -20.643  0.00  0.00    +0.009 C 
ATOM     23  C   UNL     1      36.471 -18.599 -21.734  0.00  0.00    +0.009 C 
ENDBRANCH  18  20
ENDBRANCH   2  17
TORSDOF 3
ENDMDL
MODEL 6
REMARK VINA RESULT:      -7.8      2.910      5.689
REMARK  Name = 11120251
REMARK  3 active torsions:
REMARK  status: ('A' for Active; 'I' for Inactive)
REMARK    1  A    between atoms: C_2  and  N_17
REMARK    2  A    between atoms: C_3  and  C_11
REMARK    3  A    between atoms: C_18  and  C_20
REMARK                            x       y       z     vdW  Elec       q    Type
REMARK                         _______ _______ _______ _____ _____    ______ ____
ROOT
ATOM      1  N   UNL     1      35.163 -23.275 -16.340  0.00  0.00    -0.238 NA
ATOM      2  C   UNL     1      35.387 -21.764 -18.190  0.00  0.00    +0.073 C 
ATOM      3  C   UNL     1      34.638 -22.571 -17.366  0.00  0.00    +0.148 C 
ATOM      4  C   UNL     1      36.746 -21.653 -17.976  0.00  0.00    +0.018 C 
ATOM      5  C   UNL     1      37.322 -22.362 -16.928  0.00  0.00    +0.022 C 
ATOM      6  C   UNL     1      36.496 -23.153 -16.146  0.00  0.00    +0.099 C 
ENDROOT
BRANCH   3  11
ATOM      7  S   UNL     1      30.508 -23.260 -14.654  0.00  0.00    -0.051 S 
ATOM      8  O   UNL     1      32.728 -22.678 -18.684  0.00  0.00    -0.268 OA
ATOM      9  N   UNL     1      32.467 -22.910 -16.359  0.00  0.00    -0.259 N 
ATOM     10  N   UNL     1      30.219 -23.061 -17.215  0.00  0.00    -0.222 NA
ATOM     11  C   UNL     1      33.201 -22.732 -17.539  0.00  0.00    +0.270 C 
ATOM     12  C   UNL     1      31.081 -23.059 -16.246  0.00  0.00    +0.166 C 
ATOM     13  C   UNL     1      28.919 -23.363 -15.293  0.00  0.00    +0.059 C 
ATOM     14  C   UNL     1      28.965 -23.236 -16.666  0.00  0.00    +0.108 C 
ATOM     15  H   UNL     1      32.982 -22.932 -15.520  0.00  0.00    +0.157 HD
ENDBRANCH   3  11
BRANCH   2  17
ATOM     16  O   UNL     1      36.595 -19.831 -20.113  0.00  0.00    -0.275 OA
ATOM     17  N   UNL     1      34.792 -21.044 -19.255  0.00  0.00    -0.283 N 
ATOM     18  C   UNL     1      35.406 -20.149 -20.126  0.00  0.00    +0.225 C 
ATOM     19  H   UNL     1      33.829 -21.196 -19.395  0.00  0.00    +0.155 HD
BRANCH  18  20
ATOM     20  C   UNL     1      34.433 -19.551 -21.171  0.00  0.00    +0.069 C 
ATOM     21  C   UNL     1      34.412 -18.018 -21.032  0.00  0.00    +0.009 C 
ATOM     22  C   UNL     1      33.009 -20.079 -20.932  0.00  0.00    +0.009 C 
ATOM     23  C   UNL     1      34.898 -19.904 -22.592  0.00  0.00    +0.009 C 
ENDBRANCH  18  20
ENDBRANCH   2  17
TORSDOF 3
ENDMDL
MODEL 7
REMARK VINA RESULT:      -7.8      2.638      6.555
REMARK  Name = 11120251
REMARK  3 active torsions:
REMARK  status: ('A' for Active; 'I' for Inactive)
REMARK    1  A    between atoms: C_2  and  N_17
REMARK    2  A    between atoms: C_3  and  C_11
REMARK    3  A    between atoms: C_18  and  C_20
REMARK                            x       y       z     vdW  Elec       q    Type
REMARK                         _______ _______ _______ _____ _____    ______ ____
ROOT
ATOM      1  N   UNL     1      32.385 -24.490 -13.536  0.00  0.00    -0.238 NA
ATOM      2  C   UNL     1      32.561 -23.521 -15.724  0.00  0.00    +0.073 C 
ATOM      3  C   UNL     1      33.108 -24.131 -14.620  0.00  0.00    +0.148 C 
ATOM      4  C   UNL     1      31.206 -23.253 -15.748  0.00  0.00    +0.018 C 
ATOM      5  C   UNL     1      30.430 -23.610 -14.651  0.00  0.00    +0.022 C 
ATOM      6  C   UNL     1      31.062 -24.220 -13.580  0.00  0.00    +0.099 C 
ENDROOT
BRANCH   3  11
ATOM      7  S   UNL     1      37.004 -23.395 -11.592  0.00  0.00    -0.051 S 
ATOM      8  O   UNL     1      35.049 -25.117 -15.429  0.00  0.00    -0.268 OA
ATOM      9  N   UNL     1      35.182 -23.950 -13.393  0.00  0.00    -0.259 N 
ATOM     10  N   UNL     1      37.419 -24.780 -13.735  0.00  0.00    -0.222 NA
ATOM     11  C   UNL     1      34.528 -24.439 -14.531  0.00  0.00    +0.270 C 
ATOM     12  C   UNL     1      36.528 -24.128 -13.055  0.00  0.00    +0.166 C 
ATOM     13  C   UNL     1      38.586 -23.999 -11.864  0.00  0.00    +0.059 C 
ATOM     14  C   UNL     1      38.613 -24.708 -13.047  0.00  0.00    +0.108 C 
ATOM     15  H   UNL     1      34.636 -23.425 -12.764  0.00  0.00    +0.157 HD
ENDBRANCH   3  11
BRANCH   2  17
ATOM     16  O   UNL     1      31.836 -22.034 -18.206  0.00  0.00    -0.275 OA
ATOM     17  N   UNL     1      33.358 -23.161 -16.837  0.00  0.00    -0.283 N 
ATOM     18  C   UNL     1      32.966 -22.463 -17.976  0.00  0.00    +0.225 C 
ATOM     19  H   UNL     1      34.303 -23.437 -16.801  0.00  0.00    +0.155 HD
BRANCH  18  20
ATOM     20  C   UNL     1      34.119 -22.252 -18.988  0.00  0.00    +0.069 C 
ATOM     21  C   UNL     1      34.253 -23.502 -19.878  0.00  0.00    +0.009 C 
ATOM     22  C   UNL     1      35.447 -22.043 -18.243  0.00  0.00    +0.009 C 
ATOM     23  C   UNL     1      33.819 -21.044 -19.889  0.00  0.00    +0.009 C 
ENDBRANCH  18  20
ENDBRANCH   2  17
TORSDOF 3
ENDMDL
MODEL 8
REMARK VINA RESULT:      -7.7     11.769     14.088
REMARK  Name = 11120251
REMARK  3 active torsions:
REMARK  status: ('A' for Active; 'I' for Inactive)
REMARK    1  A    between atoms: C_2  and  N_17
REMARK    2  A    between atoms: C_3  and  C_11
REMARK    3  A    between atoms: C_18  and  C_20
REMARK                            x       y       z     vdW  Elec       q    Type
REMARK                         _______ _______ _______ _____ _____    ______ ____
ROOT
ATOM      1  N   UNL     1      33.147 -12.231 -26.013  0.00  0.00    -0.238 NA
ATOM      2  C   UNL     1      33.284 -14.193 -24.639  0.00  0.00    +0.073 C 
ATOM      3  C   UNL     1      33.121 -12.838 -24.806  0.00  0.00    +0.148 C 
ATOM      4  C   UNL     1      33.487 -14.993 -25.746  0.00  0.00    +0.018 C 
ATOM      5  C   UNL     1      33.519 -14.404 -27.005  0.00  0.00    +0.022 C 
ATOM      6  C   UNL     1      33.346 -13.031 -27.084  0.00  0.00    +0.099 C 
ENDROOT
BRANCH   3  11
ATOM      7  S   UNL     1      33.473  -7.999 -23.646  0.00  0.00    -0.051 S 
ATOM      8  O   UNL     1      32.475 -12.409 -22.616  0.00  0.00    -0.268 OA
ATOM      9  N   UNL     1      33.185 -10.589 -23.923  0.00  0.00    -0.259 N 
ATOM     10  N   UNL     1      32.614  -9.596 -21.804  0.00  0.00    -0.222 NA
ATOM     11  C   UNL     1      32.905 -11.940 -23.681  0.00  0.00    +0.270 C 
ATOM     12  C   UNL     1      33.038  -9.526 -23.027  0.00  0.00    +0.166 C 
ATOM     13  C   UNL     1      33.058  -7.321 -22.126  0.00  0.00    +0.059 C 
ATOM     14  C   UNL     1      32.624  -8.319 -21.278  0.00  0.00    +0.108 C 
ATOM     15  H   UNL     1      33.522 -10.365 -24.821  0.00  0.00    +0.157 HD
ENDBRANCH   3  11
BRANCH   2  17
ATOM     16  O   UNL     1      35.360 -15.773 -23.195  0.00  0.00    -0.275 OA
ATOM     17  N   UNL     1      33.249 -14.786 -23.353  0.00  0.00    -0.283 N 
ATOM     18  C   UNL     1      34.253 -15.517 -22.725  0.00  0.00    +0.225 C 
ATOM     19  H   UNL     1      32.416 -14.665 -22.843  0.00  0.00    +0.155 HD
BRANCH  18  20
ATOM     20  C   UNL     1      33.853 -16.011 -21.313  0.00  0.00    +0.069 C 
ATOM     21  C   UNL     1      34.739 -15.321 -20.259  0.00  0.00    +0.009 C 
ATOM     22  C   UNL     1      34.064 -17.530 -21.203  0.00  0.00    +0.009 C 
ATOM     23  C   UNL     1      32.387 -15.658 -21.022  0.00  0.00    +0.009 C 
ENDBRANCH  18  20
ENDBRANCH   2  17
TORSDOF 3
ENDMDL
MODEL 9
REMARK VINA RESULT:      -7.5      2.851      6.678
REMARK  Name = 11120251
REMARK  3 active torsions:
REMARK  status: ('A' for Active; 'I' for Inactive)
REMARK    1  A    between atoms: C_2  and  N_17
REMARK    2  A    between atoms: C_3  and  C_11
REMARK    3  A    between atoms: C_18  and  C_20
REMARK                            x       y       z     vdW  Elec       q    Type
REMARK                         _______ _______ _______ _____ _____    ______ ____
ROOT
ATOM      1  N   UNL     1      33.178 -24.028 -14.592  0.00  0.00    -0.238 NA
ATOM      2  C   UNL     1      33.436 -23.100 -16.790  0.00  0.00    +0.073 C 
ATOM      3  C   UNL     1      33.947 -23.545 -15.593  0.00  0.00    +0.148 C 
ATOM      4  C   UNL     1      32.073 -23.141 -17.001  0.00  0.00    +0.018 C 
ATOM      5  C   UNL     1      31.250 -23.633 -15.995  0.00  0.00    +0.022 C 
ATOM      6  C   UNL     1      31.846 -24.060 -14.820  0.00  0.00    +0.099 C 
ENDROOT
BRANCH   3  11
ATOM      7  S   UNL     1      37.666 -26.675 -14.471  0.00  0.00    -0.051 S 
ATOM      8  O   UNL     1      35.977 -22.444 -15.343  0.00  0.00    -0.268 OA
ATOM      9  N   UNL     1      35.951 -24.774 -15.035  0.00  0.00    -0.259 N 
ATOM     10  N   UNL     1      38.259 -24.169 -14.701  0.00  0.00    -0.222 NA
ATOM     11  C   UNL     1      35.374 -23.527 -15.306  0.00  0.00    +0.270 C 
ATOM     12  C   UNL     1      37.297 -25.036 -14.759  0.00  0.00    +0.166 C 
ATOM     13  C   UNL     1      39.301 -26.213 -14.239  0.00  0.00    +0.059 C 
ATOM     14  C   UNL     1      39.423 -24.848 -14.400  0.00  0.00    +0.108 C 
ATOM     15  H   UNL     1      35.344 -25.550 -15.041  0.00  0.00    +0.157 HD
ENDBRANCH   3  11
BRANCH   2  17
ATOM     16  O   UNL     1      32.809 -21.338 -19.112  0.00  0.00    -0.275 OA
ATOM     17  N   UNL     1      34.281 -22.600 -17.810  0.00  0.00    -0.283 N 
ATOM     18  C   UNL     1      33.934 -21.777 -18.877  0.00  0.00    +0.225 C 
ATOM     19  H   UNL     1      35.228 -22.867 -17.758  0.00  0.00    +0.155 HD
BRANCH  18  20
ATOM     20  C   UNL     1      35.131 -21.433 -19.797  0.00  0.00    +0.069 C 
ATOM     21  C   UNL     1      34.801 -20.173 -20.618  0.00  0.00    +0.009 C 
ATOM     22  C   UNL     1      35.401 -22.590 -20.772  0.00  0.00    +0.009 C 
ATOM     23  C   UNL     1      36.383 -21.148 -18.953  0.00  0.00    +0.009 C 
ENDBRANCH  18  20
ENDBRANCH   2  17
TORSDOF 3
ENDMDL
