MODEL 1
REMARK VINA RESULT:     -11.9      0.000      0.000
REMARK  Name = 10275777
REMARK  5 active torsions:
REMARK  status: ('A' for Active; 'I' for Inactive)
REMARK    1  A    between atoms: C_1  and  N_19
REMARK    2  A    between atoms: C_2  and  C_11
REMARK    3  A    between atoms: C_5  and  O_34
REMARK    4  A    between atoms: C_20  and  C_22
REMARK    5  A    between atoms: C_23  and  C_30
REMARK                            x       y       z     vdW  Elec       q    Type
REMARK                         _______ _______ _______ _____ _____    ______ ____
ROOT
ATOM      1  C   UNL     1      35.987 -22.637 -16.719  0.00  0.00    +0.055 C 
ATOM      2  C   UNL     1      34.964 -23.362 -16.130  0.00  0.00    +0.070 C 
ATOM      3  C   UNL     1      37.307 -22.812 -16.337  0.00  0.00    +0.018 C 
ATOM      4  C   UNL     1      35.270 -24.287 -15.131  0.00  0.00    +0.043 C 
ATOM      5  C   UNL     1      36.594 -24.475 -14.736  0.00  0.00    +0.139 C 
ATOM      6  C   UNL     1      37.613 -23.737 -15.338  0.00  0.00    +0.038 C 
ENDROOT
BRANCH   2  11
ATOM      7 CL   UNL     1      26.870 -22.301 -15.785  0.00  0.00    -0.081 Cl
ATOM      8  O   UNL     1      33.273 -23.259 -17.724  0.00  0.00    -0.270 OA
ATOM      9  N   UNL     1      32.664 -22.992 -15.474  0.00  0.00    -0.266 N 
ATOM     10  N   UNL     1      30.587 -22.641 -14.396  0.00  0.00    -0.228 NA
ATOM     11  C   UNL     1      33.571 -23.194 -16.522  0.00  0.00    +0.252 C 
ATOM     12  C   UNL     1      31.259 -22.822 -15.546  0.00  0.00    +0.134 C 
ATOM     13  C   UNL     1      30.692 -22.860 -16.802  0.00  0.00    +0.035 C 
ATOM     14  C   UNL     1      29.313 -22.696 -16.884  0.00  0.00    +0.016 C 
ATOM     15  C   UNL     1      29.250 -22.486 -14.515  0.00  0.00    +0.112 C 
ATOM     16  C   UNL     1      28.571 -22.505 -15.723  0.00  0.00    +0.077 C 
ATOM     17  H   UNL     1      33.053 -22.964 -14.569  0.00  0.00    +0.157 HD
ENDBRANCH   2  11
BRANCH   1  19
ATOM     18  O   UNL     1      35.354 -23.046 -19.620  0.00  0.00    -0.270 OA
ATOM     19  N   UNL     1      35.701 -21.693 -17.734  0.00  0.00    -0.280 N 
ATOM     20  C   UNL     1      35.408 -21.927 -19.086  0.00  0.00    +0.249 C 
ATOM     21  H   UNL     1      35.708 -20.749 -17.456  0.00  0.00    +0.155 HD
BRANCH  20  22
ATOM     22  C   UNL     1      35.183 -20.743 -19.900  0.00  0.00    +0.054 C 
ATOM     23  C   UNL     1      34.754 -18.500 -21.441  0.00  0.00    +0.031 C 
ATOM     24  C   UNL     1      33.886 -20.389 -20.272  0.00  0.00    +0.005 C 
ATOM     25  C   UNL     1      36.263 -19.961 -20.309  0.00  0.00    +0.005 C 
ATOM     26  C   UNL     1      33.669 -19.253 -21.052  0.00  0.00    +0.003 C 
ATOM     27  C   UNL     1      36.046 -18.825 -21.089  0.00  0.00    +0.003 C 
BRANCH  23  30
ATOM     28  N   UNL     1      34.490 -17.389 -23.668  0.00  0.00    -0.290 N 
ATOM     29  N   UNL     1      34.356 -16.185 -21.600  0.00  0.00    -0.285 NA
ATOM     30  C   UNL     1      34.523 -17.288 -22.273  0.00  0.00    +0.123 C 
ATOM     31  C   UNL     1      34.346 -16.206 -24.513  0.00  0.00    +0.114 C 
ATOM     32  C   UNL     1      34.672 -18.647 -24.387  0.00  0.00    +0.114 C 
ATOM     33  H   UNL     1      34.197 -15.338 -22.074  0.00  0.00    +0.188 HD
ENDBRANCH  23  30
ENDBRANCH  20  22
ENDBRANCH   1  19
BRANCH   5  34
ATOM     34  O   UNL     1      36.892 -25.378 -13.762  0.00  0.00    -0.471 OA
ATOM     35  C   UNL     1      37.323 -26.671 -14.185  0.00  0.00    +0.252 C 
ENDBRANCH   5  34
TORSDOF 5
ENDMDL
MODEL 2
REMARK VINA RESULT:     -11.5      3.201      5.537
REMARK  Name = 10275777
REMARK  5 active torsions:
REMARK  status: ('A' for Active; 'I' for Inactive)
REMARK    1  A    between atoms: C_1  and  N_19
REMARK    2  A    between atoms: C_2  and  C_11
REMARK    3  A    between atoms: C_5  and  O_34
REMARK    4  A    between atoms: C_20  and  C_22
REMARK    5  A    between atoms: C_23  and  C_30
REMARK                            x       y       z     vdW  Elec       q    Type
REMARK                         _______ _______ _______ _____ _____    ______ ____
ROOT
ATOM      1  C   UNL     1      31.934 -22.942 -16.723  0.00  0.00    +0.055 C 
ATOM      2  C   UNL     1      32.694 -23.578 -15.755  0.00  0.00    +0.070 C 
ATOM      3  C   UNL     1      30.555 -23.077 -16.760  0.00  0.00    +0.018 C 
ATOM      4  C   UNL     1      32.060 -24.372 -14.799  0.00  0.00    +0.043 C 
ATOM      5  C   UNL     1      30.673 -24.517 -14.824  0.00  0.00    +0.139 C 
ATOM      6  C   UNL     1      29.921 -23.870 -15.804  0.00  0.00    +0.038 C 
ENDROOT
BRANCH   2  11
ATOM      7 CL   UNL     1      40.617 -25.266 -14.688  0.00  0.00    -0.081 Cl
ATOM      8  O   UNL     1      34.656 -22.340 -15.942  0.00  0.00    -0.270 OA
ATOM      9  N   UNL     1      34.849 -24.600 -15.342  0.00  0.00    -0.266 N 
ATOM     10  N   UNL     1      36.702 -25.981 -14.832  0.00  0.00    -0.228 NA
ATOM     11  C   UNL     1      34.145 -23.443 -15.699  0.00  0.00    +0.252 C 
ATOM     12  C   UNL     1      36.248 -24.765 -15.184  0.00  0.00    +0.134 C 
ATOM     13  C   UNL     1      37.034 -23.655 -15.404  0.00  0.00    +0.035 C 
ATOM     14  C   UNL     1      38.408 -23.806 -15.251  0.00  0.00    +0.016 C 
ATOM     15  C   UNL     1      38.041 -26.089 -14.692  0.00  0.00    +0.112 C 
ATOM     16  C   UNL     1      38.929 -25.043 -14.888  0.00  0.00    +0.077 C 
ATOM     17  H   UNL     1      34.302 -25.403 -15.179  0.00  0.00    +0.157 HD
ENDBRANCH   2  11
BRANCH   1  19
ATOM     18  O   UNL     1      33.736 -23.692 -18.998  0.00  0.00    -0.270 OA
ATOM     19  N   UNL     1      32.557 -22.131 -17.702  0.00  0.00    -0.280 N 
ATOM     20  C   UNL     1      33.396 -22.523 -18.755  0.00  0.00    +0.249 C 
ATOM     21  H   UNL     1      32.377 -21.165 -17.636  0.00  0.00    +0.155 HD
BRANCH  20  22
ATOM     22  C   UNL     1      33.910 -21.449 -19.590  0.00  0.00    +0.054 C 
ATOM     23  C   UNL     1      34.883 -19.413 -21.171  0.00  0.00    +0.031 C 
ATOM     24  C   UNL     1      33.027 -20.606 -20.264  0.00  0.00    +0.005 C 
ATOM     25  C   UNL     1      35.287 -21.262 -19.717  0.00  0.00    +0.005 C 
ATOM     26  C   UNL     1      33.520 -19.575 -21.064  0.00  0.00    +0.003 C 
ATOM     27  C   UNL     1      35.780 -20.231 -20.517  0.00  0.00    +0.003 C 
BRANCH  23  30
ATOM     28  N   UNL     1      34.797 -17.055 -22.005  0.00  0.00    -0.290 N 
ATOM     29  N   UNL     1      36.448 -18.628 -22.744  0.00  0.00    -0.285 NA
ATOM     30  C   UNL     1      35.409 -18.313 -22.024  0.00  0.00    +0.123 C 
ATOM     31  C   UNL     1      35.240 -15.981 -22.890  0.00  0.00    +0.114 C 
ATOM     32  C   UNL     1      33.638 -16.738 -21.175  0.00  0.00    +0.114 C 
ATOM     33  H   UNL     1      36.858 -17.957 -23.336  0.00  0.00    +0.188 HD
ENDBRANCH  23  30
ENDBRANCH  20  22
ENDBRANCH   1  19
BRANCH   5  34
ATOM     34  O   UNL     1      30.053 -25.291 -13.891  0.00  0.00    -0.471 OA
ATOM     35  C   UNL     1      28.757 -25.790 -14.219  0.00  0.00    +0.252 C 
ENDBRANCH   5  34
TORSDOF 5
ENDMDL
MODEL 3
REMARK VINA RESULT:     -10.0      1.395      2.077
REMARK  Name = 10275777
REMARK  5 active torsions:
REMARK  status: ('A' for Active; 'I' for Inactive)
REMARK    1  A    between atoms: C_1  and  N_19
REMARK    2  A    between atoms: C_2  and  C_11
REMARK    3  A    between atoms: C_5  and  O_34
REMARK    4  A    between atoms: C_20  and  C_22
REMARK    5  A    between atoms: C_23  and  C_30
REMARK                            x       y       z     vdW  Elec       q    Type
REMARK                         _______ _______ _______ _____ _____    ______ ____
ROOT
ATOM      1  C   UNL     1      35.703 -23.417 -15.780  0.00  0.00    +0.055 C 
ATOM      2  C   UNL     1      34.693 -23.630 -14.856  0.00  0.00    +0.070 C 
ATOM      3  C   UNL     1      36.958 -23.983 -15.621  0.00  0.00    +0.018 C 
ATOM      4  C   UNL     1      34.945 -24.431 -13.742  0.00  0.00    +0.043 C 
ATOM      5  C   UNL     1      36.203 -25.008 -13.567  0.00  0.00    +0.139 C 
ATOM      6  C   UNL     1      37.209 -24.784 -14.507  0.00  0.00    +0.038 C 
ENDROOT
BRANCH   2  11
ATOM      7 CL   UNL     1      26.719 -22.765 -16.409  0.00  0.00    -0.081 Cl
ATOM      8  O   UNL     1      33.221 -21.829 -14.825  0.00  0.00    -0.270 OA
ATOM      9  N   UNL     1      32.352 -23.934 -15.390  0.00  0.00    -0.266 N 
ATOM     10  N   UNL     1      30.188 -24.676 -15.992  0.00  0.00    -0.228 NA
ATOM     11  C   UNL     1      33.367 -23.046 -15.011  0.00  0.00    +0.252 C 
ATOM     12  C   UNL     1      30.985 -23.654 -15.636  0.00  0.00    +0.134 C 
ATOM     13  C   UNL     1      30.582 -22.344 -15.491  0.00  0.00    +0.035 C 
ATOM     14  C   UNL     1      29.243 -22.058 -15.732  0.00  0.00    +0.016 C 
ATOM     15  C   UNL     1      28.894 -24.361 -16.219  0.00  0.00    +0.112 C 
ATOM     16  C   UNL     1      28.376 -23.080 -16.103  0.00  0.00    +0.077 C 
ATOM     17  H   UNL     1      32.623 -24.874 -15.500  0.00  0.00    +0.157 HD
ENDBRANCH   2  11
BRANCH   1  19
ATOM     18  O   UNL     1      33.835 -23.817 -18.091  0.00  0.00    -0.270 OA
ATOM     19  N   UNL     1      35.470 -22.609 -16.919  0.00  0.00    -0.280 N 
ATOM     20  C   UNL     1      34.584 -22.833 -17.982  0.00  0.00    +0.249 C 
ATOM     21  H   UNL     1      36.001 -21.781 -16.972  0.00  0.00    +0.155 HD
BRANCH  20  22
ATOM     22  C   UNL     1      34.586 -21.828 -19.033  0.00  0.00    +0.054 C 
ATOM     23  C   UNL     1      34.593 -19.925 -21.026  0.00  0.00    +0.031 C 
ATOM     24  C   UNL     1      35.794 -21.387 -19.573  0.00  0.00    +0.005 C 
ATOM     25  C   UNL     1      33.381 -21.305 -19.502  0.00  0.00    +0.005 C 
ATOM     26  C   UNL     1      35.797 -20.424 -20.583  0.00  0.00    +0.003 C 
ATOM     27  C   UNL     1      33.384 -20.342 -20.512  0.00  0.00    +0.003 C 
BRANCH  23  30
ATOM     28  N   UNL     1      34.758 -17.546 -21.784  0.00  0.00    -0.290 N 
ATOM     29  N   UNL     1      34.447 -19.369 -23.309  0.00  0.00    -0.285 NA
ATOM     30  C   UNL     1      34.596 -18.898 -22.104  0.00  0.00    +0.123 C 
ATOM     31  C   UNL     1      34.685 -16.508 -22.810  0.00  0.00    +0.114 C 
ATOM     32  C   UNL     1      34.932 -17.058 -20.419  0.00  0.00    +0.114 C 
ATOM     33  H   UNL     1      34.438 -18.756 -24.079  0.00  0.00    +0.188 HD
ENDBRANCH  23  30
ENDBRANCH  20  22
ENDBRANCH   1  19
BRANCH   5  34
ATOM     34  O   UNL     1      36.448 -25.789 -12.480  0.00  0.00    -0.471 OA
ATOM     35  C   UNL     1      37.798 -25.860 -12.023  0.00  0.00    +0.252 C 
ENDBRANCH   5  34
TORSDOF 5
ENDMDL
