MODEL 1
REMARK VINA RESULT:      -9.8      0.000      0.000
REMARK  Name = 61996
REMARK  6 active torsions:
REMARK  status: ('A' for Active; 'I' for Inactive)
REMARK    1  A    between atoms: N_1  and  C_20
REMARK    2  A    between atoms: C_2  and  N_10
REMARK    3  A    between atoms: N_10  and  C_12
REMARK    4  A    between atoms: C_11  and  C_18
REMARK    5  A    between atoms: C_20  and  C_21
REMARK    6  A    between atoms: C_21  and  C_22
REMARK                            x       y       z     vdW  Elec       q    Type
REMARK                         _______ _______ _______ _____ _____    ______ ____
ROOT
ATOM      1  N   UNL     1      34.881 -20.794 -19.462  0.00  0.00    +0.387 N 
ATOM      2  C   UNL     1      34.704 -19.169 -21.900  0.00  0.00    +0.076 C 
ATOM      3  C   UNL     1      35.960 -19.161 -21.004  0.00  0.00    -0.002 C 
ATOM      4  C   UNL     1      33.475 -19.594 -21.090  0.00  0.00    -0.003 C 
ATOM      5  C   UNL     1      36.091 -20.491 -20.237  0.00  0.00    -0.076 C 
ATOM      6  C   UNL     1      33.711 -20.903 -20.341  0.00  0.00    -0.076 C 
ATOM      7  C   UNL     1      37.241 -18.913 -21.809  0.00  0.00    -0.000 C 
ATOM      8  H   UNL     1      34.719 -20.026 -18.811  0.00  0.00    -0.080 HD
ENDROOT
BRANCH   2  10
ATOM      9  O   UNL     1      35.058 -18.443 -24.734  0.00  0.00    -0.275 OA
ATOM     10  N   UNL     1      34.459 -17.881 -22.510  0.00  0.00    -0.260 N 
ATOM     11  C   UNL     1      34.662 -17.626 -23.900  0.00  0.00    +0.229 C 
BRANCH  10  12
ATOM     12  C   UNL     1      33.983 -16.789 -21.663  0.00  0.00    +0.054 C 
ATOM     13  C   UNL     1      32.649 -16.738 -21.391  0.00  0.00    +0.015 C 
ATOM     14  C   UNL     1      34.906 -15.897 -21.204  0.00  0.00    +0.015 C 
ATOM     15  C   UNL     1      32.194 -15.696 -20.583  0.00  0.00    +0.001 C 
ATOM     16  C   UNL     1      34.451 -14.854 -20.397  0.00  0.00    +0.001 C 
ATOM     17  C   UNL     1      33.095 -14.754 -20.087  0.00  0.00    +0.000 C 
ENDBRANCH  10  12
BRANCH  11  18
ATOM     18  C   UNL     1      34.392 -16.188 -24.336  0.00  0.00    +0.086 C 
ATOM     19  C   UNL     1      33.716 -16.101 -25.695  0.00  0.00    +0.010 C 
ENDBRANCH  11  18
ENDBRANCH   2  10
BRANCH   1  20
ATOM     20  C   UNL     1      35.059 -22.027 -18.695  0.00  0.00    -0.073 C 
BRANCH  20  21
ATOM     21  C   UNL     1      33.764 -22.837 -18.650  0.00  0.00    +0.004 C 
BRANCH  21  22
ATOM     22  C   UNL     1      33.279 -23.030 -17.236  0.00  0.00    -0.024 C 
ATOM     23  C   UNL     1      31.920 -22.964 -16.967  0.00  0.00    -0.004 C 
ATOM     24  C   UNL     1      34.199 -23.269 -16.227  0.00  0.00    -0.004 C 
ATOM     25  C   UNL     1      31.471 -23.142 -15.658  0.00  0.00    -0.000 C 
ATOM     26  C   UNL     1      33.750 -23.447 -14.917  0.00  0.00    -0.000 C 
ATOM     27  C   UNL     1      32.386 -23.384 -14.634  0.00  0.00    -0.000 C 
ENDBRANCH  21  22
ENDBRANCH  20  21
ENDBRANCH   1  20
TORSDOF 6
ENDMDL
MODEL 2
REMARK VINA RESULT:      -9.4      1.285      2.035
REMARK  Name = 61996
REMARK  6 active torsions:
REMARK  status: ('A' for Active; 'I' for Inactive)
REMARK    1  A    between atoms: N_1  and  C_20
REMARK    2  A    between atoms: C_2  and  N_10
REMARK    3  A    between atoms: N_10  and  C_12
REMARK    4  A    between atoms: C_11  and  C_18
REMARK    5  A    between atoms: C_20  and  C_21
REMARK    6  A    between atoms: C_21  and  C_22
REMARK                            x       y       z     vdW  Elec       q    Type
REMARK                         _______ _______ _______ _____ _____    ______ ____
ROOT
ATOM      1  N   UNL     1      35.140 -20.680 -19.497  0.00  0.00    +0.387 N 
ATOM      2  C   UNL     1      34.812 -19.088 -21.941  0.00  0.00    +0.076 C 
ATOM      3  C   UNL     1      36.102 -19.030 -21.098  0.00  0.00    -0.002 C 
ATOM      4  C   UNL     1      33.631 -19.542 -21.077  0.00  0.00    -0.003 C 
ATOM      5  C   UNL     1      36.307 -20.347 -20.324  0.00  0.00    -0.076 C 
ATOM      6  C   UNL     1      33.939 -20.835 -20.326  0.00  0.00    -0.076 C 
ATOM      7  C   UNL     1      37.340 -18.751 -21.958  0.00  0.00    -0.000 C 
ATOM      8  H   UNL     1      34.981 -19.910 -18.847  0.00  0.00    -0.080 HD
ENDROOT
BRANCH   2  10
ATOM      9  O   UNL     1      35.057 -18.371 -24.789  0.00  0.00    -0.275 OA
ATOM     10  N   UNL     1      34.501 -17.815 -22.552  0.00  0.00    -0.260 N 
ATOM     11  C   UNL     1      34.654 -17.563 -23.949  0.00  0.00    +0.229 C 
BRANCH  10  12
ATOM     12  C   UNL     1      34.008 -16.735 -21.699  0.00  0.00    +0.054 C 
ATOM     13  C   UNL     1      32.679 -16.726 -21.399  0.00  0.00    +0.015 C 
ATOM     14  C   UNL     1      34.911 -15.811 -21.264  0.00  0.00    +0.015 C 
ATOM     15  C   UNL     1      32.208 -15.695 -20.585  0.00  0.00    +0.001 C 
ATOM     16  C   UNL     1      34.440 -14.780 -20.452  0.00  0.00    +0.001 C 
ATOM     17  C   UNL     1      33.089 -14.722 -20.112  0.00  0.00    +0.000 C 
ENDBRANCH  10  12
BRANCH  11  18
ATOM     18  C   UNL     1      34.318 -16.140 -24.387  0.00  0.00    +0.086 C 
ATOM     19  C   UNL     1      33.627 -16.087 -25.740  0.00  0.00    +0.010 C 
ENDBRANCH  11  18
ENDBRANCH   2  10
BRANCH   1  20
ATOM     20  C   UNL     1      35.389 -21.898 -18.726  0.00  0.00    -0.073 C 
BRANCH  20  21
ATOM     21  C   UNL     1      36.587 -21.720 -17.793  0.00  0.00    +0.004 C 
BRANCH  21  22
ATOM     22  C   UNL     1      36.422 -22.515 -16.522  0.00  0.00    -0.024 C 
ATOM     23  C   UNL     1      37.546 -22.894 -15.804  0.00  0.00    -0.004 C 
ATOM     24  C   UNL     1      35.148 -22.853 -16.091  0.00  0.00    -0.004 C 
ATOM     25  C   UNL     1      37.394 -23.629 -14.629  0.00  0.00    -0.000 C 
ATOM     26  C   UNL     1      34.995 -23.588 -14.915  0.00  0.00    -0.000 C 
ATOM     27  C   UNL     1      36.118 -23.975 -14.184  0.00  0.00    -0.000 C 
ENDBRANCH  21  22
ENDBRANCH  20  21
ENDBRANCH   1  20
TORSDOF 6
ENDMDL
MODEL 3
REMARK VINA RESULT:      -9.3      3.132      5.039
REMARK  Name = 61996
REMARK  6 active torsions:
REMARK  status: ('A' for Active; 'I' for Inactive)
REMARK    1  A    between atoms: N_1  and  C_20
REMARK    2  A    between atoms: C_2  and  N_10
REMARK    3  A    between atoms: N_10  and  C_12
REMARK    4  A    between atoms: C_11  and  C_18
REMARK    5  A    between atoms: C_20  and  C_21
REMARK    6  A    between atoms: C_21  and  C_22
REMARK                            x       y       z     vdW  Elec       q    Type
REMARK                         _______ _______ _______ _____ _____    ______ ____
ROOT
ATOM      1  N   UNL     1      34.310 -17.127 -21.928  0.00  0.00    +0.387 N 
ATOM      2  C   UNL     1      34.102 -14.454 -23.122  0.00  0.00    +0.076 C 
ATOM      3  C   UNL     1      32.983 -15.040 -22.237  0.00  0.00    -0.002 C 
ATOM      4  C   UNL     1      34.938 -15.580 -23.739  0.00  0.00    -0.003 C 
ATOM      5  C   UNL     1      33.558 -16.068 -21.242  0.00  0.00    -0.076 C 
ATOM      6  C   UNL     1      35.435 -16.564 -22.683  0.00  0.00    -0.076 C 
ATOM      7  C   UNL     1      32.233 -13.951 -21.460  0.00  0.00    -0.000 C 
ATOM      8  H   UNL     1      33.682 -17.586 -22.587  0.00  0.00    -0.080 HD
ENDROOT
BRANCH   2  10
ATOM      9  O   UNL     1      32.961 -15.312 -25.700  0.00  0.00    -0.275 OA
ATOM     10  N   UNL     1      33.580 -13.608 -24.173  0.00  0.00    -0.260 N 
ATOM     11  C   UNL     1      33.045 -14.121 -25.393  0.00  0.00    +0.229 C 
BRANCH  10  12
ATOM     12  C   UNL     1      33.603 -12.160 -23.976  0.00  0.00    +0.054 C 
ATOM     13  C   UNL     1      32.621 -11.613 -23.206  0.00  0.00    +0.015 C 
ATOM     14  C   UNL     1      34.604 -11.457 -24.577  0.00  0.00    +0.015 C 
ATOM     15  C   UNL     1      32.641 -10.231 -23.019  0.00  0.00    +0.001 C 
ATOM     16  C   UNL     1      34.625 -10.074 -24.390  0.00  0.00    +0.001 C 
ATOM     17  C   UNL     1      33.643  -9.462 -23.611  0.00  0.00    +0.000 C 
ENDBRANCH  10  12
BRANCH  11  18
ATOM     18  C   UNL     1      32.591 -13.060 -26.393  0.00  0.00    +0.086 C 
ATOM     19  C   UNL     1      33.480 -12.991 -27.624  0.00  0.00    +0.010 C 
ENDBRANCH  11  18
ENDBRANCH   2  10
BRANCH   1  20
ATOM     20  C   UNL     1      34.786 -18.121 -20.967  0.00  0.00    -0.073 C 
BRANCH  20  21
ATOM     21  C   UNL     1      34.548 -19.541 -21.483  0.00  0.00    +0.004 C 
BRANCH  21  22
ATOM     22  C   UNL     1      34.580 -20.550 -20.363  0.00  0.00    -0.024 C 
ATOM     23  C   UNL     1      35.798 -20.914 -19.809  0.00  0.00    -0.004 C 
ATOM     24  C   UNL     1      33.392 -21.097 -19.906  0.00  0.00    -0.004 C 
ATOM     25  C   UNL     1      35.828 -21.848 -18.773  0.00  0.00    -0.000 C 
ATOM     26  C   UNL     1      33.421 -22.031 -18.869  0.00  0.00    -0.000 C 
ATOM     27  C   UNL     1      34.640 -22.405 -18.303  0.00  0.00    -0.000 C 
ENDBRANCH  21  22
ENDBRANCH  20  21
ENDBRANCH   1  20
TORSDOF 6
ENDMDL
MODEL 4
REMARK VINA RESULT:      -9.2      3.127      5.446
REMARK  Name = 61996
REMARK  6 active torsions:
REMARK  status: ('A' for Active; 'I' for Inactive)
REMARK    1  A    between atoms: N_1  and  C_20
REMARK    2  A    between atoms: C_2  and  N_10
REMARK    3  A    between atoms: N_10  and  C_12
REMARK    4  A    between atoms: C_11  and  C_18
REMARK    5  A    between atoms: C_20  and  C_21
REMARK    6  A    between atoms: C_21  and  C_22
REMARK                            x       y       z     vdW  Elec       q    Type
REMARK                         _______ _______ _______ _____ _____    ______ ____
ROOT
ATOM      1  N   UNL     1      34.512 -17.590 -22.855  0.00  0.00    +0.387 N 
ATOM      2  C   UNL     1      34.309 -14.676 -23.143  0.00  0.00    +0.076 C 
ATOM      3  C   UNL     1      34.298 -15.361 -21.761  0.00  0.00    -0.002 C 
ATOM      4  C   UNL     1      33.845 -15.655 -24.226  0.00  0.00    -0.003 C 
ATOM      5  C   UNL     1      35.050 -16.706 -21.814  0.00  0.00    -0.076 C 
ATOM      6  C   UNL     1      34.625 -16.967 -24.179  0.00  0.00    -0.076 C 
ATOM      7  C   UNL     1      34.920 -14.476 -20.674  0.00  0.00    -0.000 C 
ATOM      8  H   UNL     1      33.523 -17.746 -22.660  0.00  0.00    -0.080 HD
ENDROOT
BRANCH   2  10
ATOM      9  O   UNL     1      31.824 -14.206 -21.630  0.00  0.00    -0.275 OA
ATOM     10  N   UNL     1      33.477 -13.494 -23.173  0.00  0.00    -0.260 N 
ATOM     11  C   UNL     1      32.284 -13.359 -22.399  0.00  0.00    +0.229 C 
BRANCH  10  12
ATOM     12  C   UNL     1      33.876 -12.384 -24.037  0.00  0.00    +0.054 C 
ATOM     13  C   UNL     1      33.851 -12.593 -25.383  0.00  0.00    +0.015 C 
ATOM     14  C   UNL     1      34.247 -11.218 -23.436  0.00  0.00    +0.015 C 
ATOM     15  C   UNL     1      34.233 -11.535 -26.208  0.00  0.00    +0.001 C 
ATOM     16  C   UNL     1      34.629 -10.160 -24.261  0.00  0.00    +0.001 C 
ATOM     17  C   UNL     1      34.622 -10.319 -25.647  0.00  0.00    +0.000 C 
ENDBRANCH  10  12
BRANCH  11  18
ATOM     18  C   UNL     1      31.524 -12.052 -22.610  0.00  0.00    +0.086 C 
ATOM     19  C   UNL     1      31.078 -11.412 -21.305  0.00  0.00    +0.010 C 
ENDBRANCH  11  18
ENDBRANCH   2  10
BRANCH   1  20
ATOM     20  C   UNL     1      35.201 -18.880 -22.838  0.00  0.00    -0.073 C 
BRANCH  20  21
ATOM     21  C   UNL     1      35.914 -19.103 -21.504  0.00  0.00    +0.004 C 
BRANCH  21  22
ATOM     22  C   UNL     1      35.191 -20.115 -20.651  0.00  0.00    -0.024 C 
ATOM     23  C   UNL     1      35.925 -21.045 -19.929  0.00  0.00    -0.004 C 
ATOM     24  C   UNL     1      33.806 -20.100 -20.603  0.00  0.00    -0.004 C 
ATOM     25  C   UNL     1      35.257 -21.981 -19.140  0.00  0.00    -0.000 C 
ATOM     26  C   UNL     1      33.137 -21.037 -19.814  0.00  0.00    -0.000 C 
ATOM     27  C   UNL     1      33.863 -21.976 -19.082  0.00  0.00    -0.000 C 
ENDBRANCH  21  22
ENDBRANCH  20  21
ENDBRANCH   1  20
TORSDOF 6
ENDMDL
MODEL 5
REMARK VINA RESULT:      -9.1      1.373      2.910
REMARK  Name = 61996
REMARK  6 active torsions:
REMARK  status: ('A' for Active; 'I' for Inactive)
REMARK    1  A    between atoms: N_1  and  C_20
REMARK    2  A    between atoms: C_2  and  N_10
REMARK    3  A    between atoms: N_10  and  C_12
REMARK    4  A    between atoms: C_11  and  C_18
REMARK    5  A    between atoms: C_20  and  C_21
REMARK    6  A    between atoms: C_21  and  C_22
REMARK                            x       y       z     vdW  Elec       q    Type
REMARK                         _______ _______ _______ _____ _____    ______ ____
ROOT
ATOM      1  N   UNL     1      34.893 -20.667 -19.713  0.00  0.00    +0.387 N 
ATOM      2  C   UNL     1      34.702 -18.504 -21.689  0.00  0.00    +0.076 C 
ATOM      3  C   UNL     1      36.034 -18.864 -21.001  0.00  0.00    -0.002 C 
ATOM      4  C   UNL     1      33.519 -18.950 -20.824  0.00  0.00    -0.003 C 
ATOM      5  C   UNL     1      36.043 -20.344 -20.569  0.00  0.00    -0.076 C 
ATOM      6  C   UNL     1      33.631 -20.418 -20.420  0.00  0.00    -0.076 C 
ATOM      7  C   UNL     1      37.242 -18.596 -21.908  0.00  0.00    -0.000 C 
ATOM      8  H   UNL     1      34.925 -20.060 -18.895  0.00  0.00    -0.080 HD
ENDROOT
BRANCH   2  10
ATOM      9  O   UNL     1      34.971 -16.290 -19.763  0.00  0.00    -0.275 OA
ATOM     10  N   UNL     1      34.593 -17.089 -21.963  0.00  0.00    -0.260 N 
ATOM     11  C   UNL     1      34.740 -16.086 -20.957  0.00  0.00    +0.229 C 
BRANCH  10  12
ATOM     12  C   UNL     1      34.320 -16.665 -23.335  0.00  0.00    +0.054 C 
ATOM     13  C   UNL     1      34.795 -17.448 -24.344  0.00  0.00    +0.015 C 
ATOM     14  C   UNL     1      33.609 -15.514 -23.511  0.00  0.00    +0.015 C 
ATOM     15  C   UNL     1      34.534 -17.043 -25.653  0.00  0.00    +0.001 C 
ATOM     16  C   UNL     1      33.350 -15.109 -24.820  0.00  0.00    +0.001 C 
ATOM     17  C   UNL     1      33.812 -15.874 -25.891  0.00  0.00    +0.000 C 
ENDBRANCH  10  12
BRANCH  11  18
ATOM     18  C   UNL     1      34.541 -14.653 -21.443  0.00  0.00    +0.086 C 
ATOM     19  C   UNL     1      33.319 -13.987 -20.831  0.00  0.00    +0.010 C 
ENDBRANCH  11  18
ENDBRANCH   2  10
BRANCH   1  20
ATOM     20  C   UNL     1      34.962 -22.058 -19.266  0.00  0.00    -0.073 C 
BRANCH  20  21
ATOM     21  C   UNL     1      33.566 -22.614 -18.988  0.00  0.00    +0.004 C 
BRANCH  21  22
ATOM     22  C   UNL     1      33.372 -22.915 -17.523  0.00  0.00    -0.024 C 
ATOM     23  C   UNL     1      34.483 -23.071 -16.706  0.00  0.00    -0.004 C 
ATOM     24  C   UNL     1      32.087 -23.032 -17.015  0.00  0.00    -0.004 C 
ATOM     25  C   UNL     1      34.304 -23.350 -15.352  0.00  0.00    -0.000 C 
ATOM     26  C   UNL     1      31.908 -23.310 -15.660  0.00  0.00    -0.000 C 
ATOM     27  C   UNL     1      33.017 -23.468 -14.828  0.00  0.00    -0.000 C 
ENDBRANCH  21  22
ENDBRANCH  20  21
ENDBRANCH   1  20
TORSDOF 6
ENDMDL
MODEL 6
REMARK VINA RESULT:      -8.9      5.984      8.963
REMARK  Name = 61996
REMARK  6 active torsions:
REMARK  status: ('A' for Active; 'I' for Inactive)
REMARK    1  A    between atoms: N_1  and  C_20
REMARK    2  A    between atoms: C_2  and  N_10
REMARK    3  A    between atoms: N_10  and  C_12
REMARK    4  A    between atoms: C_11  and  C_18
REMARK    5  A    between atoms: C_20  and  C_21
REMARK    6  A    between atoms: C_21  and  C_22
REMARK                            x       y       z     vdW  Elec       q    Type
REMARK                         _______ _______ _______ _____ _____    ______ ____
ROOT
ATOM      1  N   UNL     1      33.011 -13.276 -22.341  0.00  0.00    +0.387 N 
ATOM      2  C   UNL     1      32.706 -10.537 -23.351  0.00  0.00    +0.076 C 
ATOM      3  C   UNL     1      33.684 -11.539 -23.997  0.00  0.00    -0.002 C 
ATOM      4  C   UNL     1      32.431 -10.923 -21.895  0.00  0.00    -0.003 C 
ATOM      5  C   UNL     1      33.210 -12.988 -23.767  0.00  0.00    -0.076 C 
ATOM      6  C   UNL     1      32.000 -12.382 -21.764  0.00  0.00    -0.076 C 
ATOM      7  C   UNL     1      33.851 -11.295 -25.501  0.00  0.00    -0.000 C 
ATOM      8  H   UNL     1      33.893 -13.112 -21.857  0.00  0.00    -0.080 HD
ENDROOT
BRANCH   2  10
ATOM      9  O   UNL     1      35.433  -9.658 -24.042  0.00  0.00    -0.275 OA
ATOM     10  N   UNL     1      33.199  -9.179 -23.406  0.00  0.00    -0.260 N 
ATOM     11  C   UNL     1      34.545  -8.852 -23.753  0.00  0.00    +0.229 C 
BRANCH  10  12
ATOM     12  C   UNL     1      32.277  -8.090 -23.090  0.00  0.00    +0.054 C 
ATOM     13  C   UNL     1      31.326  -7.781 -24.016  0.00  0.00    +0.015 C 
ATOM     14  C   UNL     1      32.433  -7.458 -21.892  0.00  0.00    +0.015 C 
ATOM     15  C   UNL     1      30.446  -6.741 -23.715  0.00  0.00    +0.001 C 
ATOM     16  C   UNL     1      31.553  -6.417 -21.592  0.00  0.00    +0.001 C 
ATOM     17  C   UNL     1      30.560  -6.060 -22.503  0.00  0.00    +0.000 C 
ENDBRANCH  10  12
BRANCH  11  18
ATOM     18  C   UNL     1      34.878  -7.363 -23.706  0.00  0.00    +0.086 C 
ATOM     19  C   UNL     1      34.689  -6.673 -25.047  0.00  0.00    +0.010 C 
ENDBRANCH  11  18
ENDBRANCH   2  10
BRANCH   1  20
ATOM     20  C   UNL     1      32.626 -14.673 -22.149  0.00  0.00    -0.073 C 
BRANCH  20  21
ATOM     21  C   UNL     1      33.691 -15.432 -21.356  0.00  0.00    +0.004 C 
BRANCH  21  22
ATOM     22  C   UNL     1      34.188 -16.639 -22.112  0.00  0.00    -0.024 C 
ATOM     23  C   UNL     1      34.568 -16.503 -23.439  0.00  0.00    -0.004 C 
ATOM     24  C   UNL     1      34.258 -17.864 -21.468  0.00  0.00    -0.004 C 
ATOM     25  C   UNL     1      35.028 -17.618 -24.138  0.00  0.00    -0.000 C 
ATOM     26  C   UNL     1      34.718 -18.981 -22.167  0.00  0.00    -0.000 C 
ATOM     27  C   UNL     1      35.104 -18.857 -23.502  0.00  0.00    -0.000 C 
ENDBRANCH  21  22
ENDBRANCH  20  21
ENDBRANCH   1  20
TORSDOF 6
ENDMDL
MODEL 7
REMARK VINA RESULT:      -8.9      3.269      5.760
REMARK  Name = 61996
REMARK  6 active torsions:
REMARK  status: ('A' for Active; 'I' for Inactive)
REMARK    1  A    between atoms: N_1  and  C_20
REMARK    2  A    between atoms: C_2  and  N_10
REMARK    3  A    between atoms: N_10  and  C_12
REMARK    4  A    between atoms: C_11  and  C_18
REMARK    5  A    between atoms: C_20  and  C_21
REMARK    6  A    between atoms: C_21  and  C_22
REMARK                            x       y       z     vdW  Elec       q    Type
REMARK                         _______ _______ _______ _____ _____    ______ ____
ROOT
ATOM      1  N   UNL     1      35.129 -16.546 -23.357  0.00  0.00    +0.387 N 
ATOM      2  C   UNL     1      33.340 -14.232 -23.111  0.00  0.00    +0.076 C 
ATOM      3  C   UNL     1      33.737 -14.812 -24.483  0.00  0.00    -0.002 C 
ATOM      4  C   UNL     1      34.394 -14.586 -22.057  0.00  0.00    -0.003 C 
ATOM      5  C   UNL     1      34.084 -16.309 -24.362  0.00  0.00    -0.076 C 
ATOM      6  C   UNL     1      34.694 -16.083 -22.033  0.00  0.00    -0.076 C 
ATOM      7  C   UNL     1      32.629 -14.634 -25.528  0.00  0.00    -0.000 C 
ATOM      8  H   UNL     1      35.955 -16.012 -23.625  0.00  0.00    -0.080 HD
ENDROOT
BRANCH   2  10
ATOM      9  O   UNL     1      34.522 -12.349 -25.046  0.00  0.00    -0.275 OA
ATOM     10  N   UNL     1      33.164 -12.797 -23.155  0.00  0.00    -0.260 N 
ATOM     11  C   UNL     1      33.783 -11.965 -24.137  0.00  0.00    +0.229 C 
BRANCH  10  12
ATOM     12  C   UNL     1      32.314 -12.169 -22.145  0.00  0.00    +0.054 C 
ATOM     13  C   UNL     1      32.499 -12.538 -20.847  0.00  0.00    +0.015 C 
ATOM     14  C   UNL     1      31.394 -11.258 -22.572  0.00  0.00    +0.015 C 
ATOM     15  C   UNL     1      31.687 -11.940 -19.883  0.00  0.00    +0.001 C 
ATOM     16  C   UNL     1      30.581 -10.661 -21.609  0.00  0.00    +0.001 C 
ATOM     17  C   UNL     1      30.728 -11.001 -20.264  0.00  0.00    +0.000 C 
ENDBRANCH  10  12
BRANCH  11  18
ATOM     18  C   UNL     1      33.509 -10.472 -23.980  0.00  0.00    +0.086 C 
ATOM     19  C   UNL     1      34.740  -9.617 -24.234  0.00  0.00    +0.010 C 
ENDBRANCH  11  18
ENDBRANCH   2  10
BRANCH   1  20
ATOM     20  C   UNL     1      35.483 -17.964 -23.310  0.00  0.00    -0.073 C 
BRANCH  20  21
ATOM     21  C   UNL     1      36.106 -18.329 -21.963  0.00  0.00    +0.004 C 
BRANCH  21  22
ATOM     22  C   UNL     1      35.258 -19.326 -21.213  0.00  0.00    -0.024 C 
ATOM     23  C   UNL     1      35.873 -20.300 -20.441  0.00  0.00    -0.004 C 
ATOM     24  C   UNL     1      33.877 -19.252 -21.306  0.00  0.00    -0.004 C 
ATOM     25  C   UNL     1      35.090 -21.222 -19.748  0.00  0.00    -0.000 C 
ATOM     26  C   UNL     1      33.092 -20.173 -20.612  0.00  0.00    -0.000 C 
ATOM     27  C   UNL     1      33.699 -21.158 -19.832  0.00  0.00    -0.000 C 
ENDBRANCH  21  22
ENDBRANCH  20  21
ENDBRANCH   1  20
TORSDOF 6
ENDMDL
MODEL 8
REMARK VINA RESULT:      -8.8      4.142      9.859
REMARK  Name = 61996
REMARK  6 active torsions:
REMARK  status: ('A' for Active; 'I' for Inactive)
REMARK    1  A    between atoms: N_1  and  C_20
REMARK    2  A    between atoms: C_2  and  N_10
REMARK    3  A    between atoms: N_10  and  C_12
REMARK    4  A    between atoms: C_11  and  C_18
REMARK    5  A    between atoms: C_20  and  C_21
REMARK    6  A    between atoms: C_21  and  C_22
REMARK                            x       y       z     vdW  Elec       q    Type
REMARK                         _______ _______ _______ _____ _____    ______ ____
ROOT
ATOM      1  N   UNL     1      34.507 -23.001 -17.894  0.00  0.00    +0.387 N 
ATOM      2  C   UNL     1      35.066 -23.207 -15.020  0.00  0.00    +0.076 C 
ATOM      3  C   UNL     1      36.183 -22.947 -16.050  0.00  0.00    -0.002 C 
ATOM      4  C   UNL     1      33.875 -23.900 -15.689  0.00  0.00    -0.003 C 
ATOM      5  C   UNL     1      35.618 -22.245 -17.301  0.00  0.00    -0.076 C 
ATOM      6  C   UNL     1      33.406 -23.151 -16.934  0.00  0.00    -0.076 C 
ATOM      7  C   UNL     1      37.320 -22.101 -15.467  0.00  0.00    -0.000 C 
ATOM      8  H   UNL     1      34.847 -23.931 -18.135  0.00  0.00    -0.080 HD
ENDROOT
BRANCH   2  10
ATOM      9  O   UNL     1      33.832 -23.424 -12.352  0.00  0.00    -0.275 OA
ATOM     10  N   UNL     1      35.526 -24.007 -13.905  0.00  0.00    -0.260 N 
ATOM     11  C   UNL     1      34.856 -24.046 -12.645  0.00  0.00    +0.229 C 
BRANCH  10  12
ATOM     12  C   UNL     1      36.734 -24.811 -14.078  0.00  0.00    +0.054 C 
ATOM     13  C   UNL     1      36.645 -25.921 -14.863  0.00  0.00    +0.015 C 
ATOM     14  C   UNL     1      37.865 -24.397 -13.441  0.00  0.00    +0.015 C 
ATOM     15  C   UNL     1      37.797 -26.690 -15.028  0.00  0.00    +0.001 C 
ATOM     16  C   UNL     1      39.017 -25.166 -13.604  0.00  0.00    +0.001 C 
ATOM     17  C   UNL     1      38.983 -26.312 -14.398  0.00  0.00    +0.000 C 
ENDBRANCH  10  12
BRANCH  11  18
ATOM     18  C   UNL     1      35.529 -24.914 -11.585  0.00  0.00    +0.086 C 
ATOM     19  C   UNL     1      35.766 -24.172 -10.279  0.00  0.00    +0.010 C 
ENDBRANCH  11  18
ENDBRANCH   2  10
BRANCH   1  20
ATOM     20  C   UNL     1      34.035 -22.347 -19.113  0.00  0.00    -0.073 C 
BRANCH  20  21
ATOM     21  C   UNL     1      35.205 -21.791 -19.925  0.00  0.00    +0.004 C 
BRANCH  21  22
ATOM     22  C   UNL     1      34.908 -20.409 -20.450  0.00  0.00    -0.024 C 
ATOM     23  C   UNL     1      35.959 -19.560 -20.767  0.00  0.00    -0.004 C 
ATOM     24  C   UNL     1      33.590 -20.009 -20.608  0.00  0.00    -0.004 C 
ATOM     25  C   UNL     1      35.684 -18.281 -21.252  0.00  0.00    -0.000 C 
ATOM     26  C   UNL     1      33.315 -18.730 -21.095  0.00  0.00    -0.000 C 
ATOM     27  C   UNL     1      34.363 -17.867 -21.417  0.00  0.00    -0.000 C 
ENDBRANCH  21  22
ENDBRANCH  20  21
ENDBRANCH   1  20
TORSDOF 6
ENDMDL
MODEL 9
REMARK VINA RESULT:      -8.7      3.940      9.578
REMARK  Name = 61996
REMARK  6 active torsions:
REMARK  status: ('A' for Active; 'I' for Inactive)
REMARK    1  A    between atoms: N_1  and  C_20
REMARK    2  A    between atoms: C_2  and  N_10
REMARK    3  A    between atoms: N_10  and  C_12
REMARK    4  A    between atoms: C_11  and  C_18
REMARK    5  A    between atoms: C_20  and  C_21
REMARK    6  A    between atoms: C_21  and  C_22
REMARK                            x       y       z     vdW  Elec       q    Type
REMARK                         _______ _______ _______ _____ _____    ______ ____
ROOT
ATOM      1  N   UNL     1      33.929 -22.919 -17.672  0.00  0.00    +0.387 N 
ATOM      2  C   UNL     1      35.244 -23.470 -15.107  0.00  0.00    +0.076 C 
ATOM      3  C   UNL     1      36.047 -23.097 -16.370  0.00  0.00    -0.002 C 
ATOM      4  C   UNL     1      33.889 -24.069 -15.494  0.00  0.00    -0.003 C 
ATOM      5  C   UNL     1      35.189 -22.247 -17.328  0.00  0.00    -0.076 C 
ATOM      6  C   UNL     1      33.128 -23.174 -16.469  0.00  0.00    -0.076 C 
ATOM      7  C   UNL     1      37.333 -22.334 -16.031  0.00  0.00    -0.000 C 
ATOM      8  H   UNL     1      34.154 -23.816 -18.101  0.00  0.00    -0.080 HD
ENDROOT
BRANCH   2  10
ATOM      9  O   UNL     1      36.323 -26.106 -15.866  0.00  0.00    -0.275 OA
ATOM     10  N   UNL     1      35.959 -24.400 -14.260  0.00  0.00    -0.260 N 
ATOM     11  C   UNL     1      36.445 -25.660 -14.723  0.00  0.00    +0.229 C 
BRANCH  10  12
ATOM     12  C   UNL     1      36.194 -24.031 -12.865  0.00  0.00    +0.054 C 
ATOM     13  C   UNL     1      35.415 -24.623 -11.917  0.00  0.00    +0.015 C 
ATOM     14  C   UNL     1      37.176 -23.121 -12.610  0.00  0.00    +0.015 C 
ATOM     15  C   UNL     1      35.638 -24.270 -10.586  0.00  0.00    +0.001 C 
ATOM     16  C   UNL     1      37.399 -22.768 -11.279  0.00  0.00    +0.001 C 
ATOM     17  C   UNL     1      36.630 -23.343 -10.267  0.00  0.00    +0.000 C 
ENDBRANCH  10  12
BRANCH  11  18
ATOM     18  C   UNL     1      37.131 -26.514 -13.660  0.00  0.00    +0.086 C 
ATOM     19  C   UNL     1      38.627 -26.260 -13.574  0.00  0.00    +0.010 C 
ENDBRANCH  11  18
ENDBRANCH   2  10
BRANCH   1  20
ATOM     20  C   UNL     1      33.168 -22.120 -18.632  0.00  0.00    -0.073 C 
BRANCH  20  21
ATOM     21  C   UNL     1      33.838 -22.131 -20.007  0.00  0.00    +0.004 C 
BRANCH  21  22
ATOM     22  C   UNL     1      34.274 -20.748 -20.421  0.00  0.00    -0.024 C 
ATOM     23  C   UNL     1      35.627 -20.455 -20.501  0.00  0.00    -0.004 C 
ATOM     24  C   UNL     1      33.315 -19.791 -20.715  0.00  0.00    -0.004 C 
ATOM     25  C   UNL     1      36.031 -19.176 -20.884  0.00  0.00    -0.000 C 
ATOM     26  C   UNL     1      33.718 -18.511 -21.099  0.00  0.00    -0.000 C 
ATOM     27  C   UNL     1      35.076 -18.205 -21.183  0.00  0.00    -0.000 C 
ENDBRANCH  21  22
ENDBRANCH  20  21
ENDBRANCH   1  20
TORSDOF 6
ENDMDL
