MODEL 1
REMARK VINA RESULT:     -10.6      0.000      0.000
REMARK  Name = 5284585
REMARK  6 active torsions:
REMARK  status: ('A' for Active; 'I' for Inactive)
REMARK    1  A    between atoms: N_2  and  CA_9
REMARK    2  A    between atoms: C_3  and  CA_19
REMARK    3  A    between atoms: CA_13  and  C_16
REMARK    4  A    between atoms: C_16  and  O_17
REMARK    5  A    between atoms: CA_19  and  C_20
REMARK    6  A    between atoms: CA_19  and  N_26
REMARK                            x       y       z     vdW  Elec       q    Type
REMARK                         _______ _______ _______ _____ _____    ______ ____
ROOT
ATOM      1  O   UNL     1      36.596 -20.969 -20.368  0.00  0.00    -0.277 OA
ATOM      2  N   UNL     1      34.921 -19.388 -20.641  0.00  0.00    -0.298 N 
ATOM      3  C   UNL     1      35.411 -20.649 -20.292  0.00  0.00    +0.206 C 
ATOM      4  H   UNL     1      33.956 -19.216 -20.549  0.00  0.00    +0.150 HD
ENDROOT
BRANCH   2   9
ATOM      5 CL   UNL     1      33.446 -15.761 -25.833  0.00  0.00    -0.085 Cl
ATOM      6  O   UNL     1      34.866 -16.149 -20.096  0.00  0.00    -0.273 OA
ATOM      7  N   UNL     1      34.982 -16.850 -22.340  0.00  0.00    -0.251 N 
ATOM      8  C   UNL     1      35.732 -18.056 -22.670  0.00  0.00    +0.107 C 
ATOM      9  CA  UNL     1      35.778 -18.314 -21.138  0.00  0.00    +0.168 C 
ATOM     10  C   UNL     1      34.911 -18.886 -23.638  0.00  0.00    +0.028 C 
ATOM     11  C   UNL     1      35.158 -16.891 -21.005  0.00  0.00    +0.249 C 
ATOM     12  C   UNL     1      34.644 -18.020 -24.885  0.00  0.00    +0.041 C 
ATOM     13  CA  UNL     1      34.357 -16.106 -23.287  0.00  0.00    +0.137 C 
ATOM     14  C   UNL     1      34.205 -16.610 -24.528  0.00  0.00    +0.055 C 
BRANCH  13  16
ATOM     15  OXT UNL     1      32.718 -14.603 -22.447  0.00  0.00    -0.244 OA
ATOM     16  C   UNL     1      33.831 -14.791 -22.896  0.00  0.00    +0.353 C 
BRANCH  16  17
ATOM     17  O   UNL     1      34.770 -13.848 -23.113  0.00  0.00    -0.476 OA
ATOM     18  H   UNL     1      34.940 -13.549 -23.986  0.00  0.00    +0.295 HD
ENDBRANCH  16  17
ENDBRANCH  13  16
ENDBRANCH   2   9
BRANCH   3  19
ATOM     19  CA  UNL     1      34.318 -21.603 -19.822  0.00  0.00    +0.036 C 
BRANCH  19  20
ATOM     20  C   UNL     1      34.640 -22.160 -18.451  0.00  0.00    -0.034 C 
ATOM     21  C   UNL     1      33.682 -22.901 -17.783  0.00  0.00    -0.006 C 
ATOM     22  C   UNL     1      35.886 -21.916 -17.899  0.00  0.00    -0.006 C 
ATOM     23  C   UNL     1      33.979 -23.414 -16.520  0.00  0.00    -0.000 C 
ATOM     24  C   UNL     1      36.182 -22.430 -16.637  0.00  0.00    -0.000 C 
ATOM     25  C   UNL     1      35.228 -23.178 -15.947  0.00  0.00    -0.000 C 
ENDBRANCH  19  20
BRANCH  19  26
ATOM     26  N   UNL     1      33.047 -20.871 -19.842  0.00  0.00    +0.390 N 
ATOM     27  H1  UNL     1      32.992 -20.263 -19.025  0.00  0.00    -0.088 HD
ATOM     28  H2  UNL     1      32.272 -21.534 -19.826  0.00  0.00    -0.088 HD
ATOM     29  H3  UNL     1      32.993 -20.307 -20.691  0.00  0.00    -0.088 HD
ENDBRANCH  19  26
ENDBRANCH   3  19
TORSDOF 6
ENDMDL
MODEL 2
REMARK VINA RESULT:     -10.0      1.098      1.698
REMARK  Name = 5284585
REMARK  6 active torsions:
REMARK  status: ('A' for Active; 'I' for Inactive)
REMARK    1  A    between atoms: N_2  and  CA_9
REMARK    2  A    between atoms: C_3  and  CA_19
REMARK    3  A    between atoms: CA_13  and  C_16
REMARK    4  A    between atoms: C_16  and  O_17
REMARK    5  A    between atoms: CA_19  and  C_20
REMARK    6  A    between atoms: CA_19  and  N_26
REMARK                            x       y       z     vdW  Elec       q    Type
REMARK                         _______ _______ _______ _____ _____    ______ ____
ROOT
ATOM      1  O   UNL     1      36.158 -19.927 -21.102  0.00  0.00    -0.277 OA
ATOM      2  N   UNL     1      34.408 -18.405 -21.043  0.00  0.00    -0.298 N 
ATOM      3  C   UNL     1      34.965 -19.682 -20.927  0.00  0.00    +0.206 C 
ATOM      4  H   UNL     1      33.443 -18.297 -20.885  0.00  0.00    +0.150 HD
ENDROOT
BRANCH   2   9
ATOM      5 CL   UNL     1      33.121 -14.645 -26.189  0.00  0.00    -0.085 Cl
ATOM      6  O   UNL     1      33.958 -15.225 -20.354  0.00  0.00    -0.273 OA
ATOM      7  N   UNL     1      34.383 -15.779 -22.602  0.00  0.00    -0.251 N 
ATOM      8  C   UNL     1      35.286 -16.884 -22.904  0.00  0.00    +0.107 C 
ATOM      9  CA  UNL     1      35.196 -17.225 -21.389  0.00  0.00    +0.168 C 
ATOM     10  C   UNL     1      34.665 -17.733 -23.995  0.00  0.00    +0.028 C 
ATOM     11  C   UNL     1      34.420 -15.880 -21.259  0.00  0.00    +0.249 C 
ATOM     12  C   UNL     1      34.442 -16.826 -25.221  0.00  0.00    +0.041 C 
ATOM     13  CA  UNL     1      33.789 -15.046 -23.577  0.00  0.00    +0.137 C 
ATOM     14  C   UNL     1      33.822 -15.489 -24.849  0.00  0.00    +0.055 C 
BRANCH  13  16
ATOM     15  OXT UNL     1      33.462 -12.694 -23.470  0.00  0.00    -0.244 OA
ATOM     16  C   UNL     1      33.090 -13.815 -23.185  0.00  0.00    +0.353 C 
BRANCH  16  17
ATOM     17  O   UNL     1      31.988 -14.130 -22.474  0.00  0.00    -0.476 OA
ATOM     18  H   UNL     1      32.004 -14.077 -21.538  0.00  0.00    +0.295 HD
ENDBRANCH  16  17
ENDBRANCH  13  16
ENDBRANCH   2   9
BRANCH   3  19
ATOM     19  CA  UNL     1      33.935 -20.751 -20.578  0.00  0.00    +0.036 C 
BRANCH  19  20
ATOM     20  C   UNL     1      34.347 -21.511 -19.334  0.00  0.00    -0.034 C 
ATOM     21  C   UNL     1      35.657 -21.429 -18.897  0.00  0.00    -0.006 C 
ATOM     22  C   UNL     1      33.403 -22.269 -18.663  0.00  0.00    -0.006 C 
ATOM     23  C   UNL     1      36.037 -22.129 -17.751  0.00  0.00    -0.000 C 
ATOM     24  C   UNL     1      33.784 -22.969 -17.517  0.00  0.00    -0.000 C 
ATOM     25  C   UNL     1      35.100 -22.899 -17.063  0.00  0.00    -0.000 C 
ENDBRANCH  19  20
BRANCH  19  26
ATOM     26  N   UNL     1      32.637 -20.087 -20.421  0.00  0.00    +0.390 N 
ATOM     27  H1  UNL     1      32.621 -19.577 -19.539  0.00  0.00    -0.088 HD
ATOM     28  H2  UNL     1      31.895 -20.787 -20.424  0.00  0.00    -0.088 HD
ATOM     29  H3  UNL     1      32.493 -19.436 -21.194  0.00  0.00    -0.088 HD
ENDBRANCH  19  26
ENDBRANCH   3  19
TORSDOF 6
ENDMDL
MODEL 3
REMARK VINA RESULT:      -9.5      5.813     10.999
REMARK  Name = 5284585
REMARK  6 active torsions:
REMARK  status: ('A' for Active; 'I' for Inactive)
REMARK    1  A    between atoms: N_2  and  CA_9
REMARK    2  A    between atoms: C_3  and  CA_19
REMARK    3  A    between atoms: CA_13  and  C_16
REMARK    4  A    between atoms: C_16  and  O_17
REMARK    5  A    between atoms: CA_19  and  C_20
REMARK    6  A    between atoms: CA_19  and  N_26
REMARK                            x       y       z     vdW  Elec       q    Type
REMARK                         _______ _______ _______ _____ _____    ______ ____
ROOT
ATOM      1  O   UNL     1      31.419  -9.410 -19.771  0.00  0.00    -0.277 OA
ATOM      2  N   UNL     1      32.357 -10.123 -21.769  0.00  0.00    -0.298 N 
ATOM      3  C   UNL     1      32.200  -9.231 -20.705  0.00  0.00    +0.206 C 
ATOM      4  H   UNL     1      33.006  -9.902 -22.476  0.00  0.00    +0.150 HD
ENDROOT
BRANCH   2   9
ATOM      5 CL   UNL     1      35.024 -15.763 -23.597  0.00  0.00    -0.085 Cl
ATOM      6  O   UNL     1      31.944 -12.599 -19.651  0.00  0.00    -0.273 OA
ATOM      7  N   UNL     1      32.592 -13.168 -21.841  0.00  0.00    -0.251 N 
ATOM      8  C   UNL     1      32.094 -12.373 -22.959  0.00  0.00    +0.107 C 
ATOM      9  CA  UNL     1      31.601 -11.367 -21.880  0.00  0.00    +0.168 C 
ATOM     10  C   UNL     1      33.245 -12.094 -23.905  0.00  0.00    +0.028 C 
ATOM     11  C   UNL     1      32.016 -12.460 -20.850  0.00  0.00    +0.249 C 
ATOM     12  C   UNL     1      33.804 -13.451 -24.373  0.00  0.00    +0.041 C 
ATOM     13  CA  UNL     1      33.407 -14.237 -22.022  0.00  0.00    +0.137 C 
ATOM     14  C   UNL     1      33.980 -14.433 -23.226  0.00  0.00    +0.055 C 
BRANCH  13  16
ATOM     15  OXT UNL     1      34.697 -15.116 -20.229  0.00  0.00    -0.244 OA
ATOM     16  C   UNL     1      33.664 -15.111 -20.871  0.00  0.00    +0.353 C 
BRANCH  16  17
ATOM     17  O   UNL     1      32.586 -15.890 -20.647  0.00  0.00    -0.476 OA
ATOM     18  H   UNL     1      31.724 -15.543 -20.773  0.00  0.00    +0.295 HD
ENDBRANCH  16  17
ENDBRANCH  13  16
ENDBRANCH   2   9
BRANCH   3  19
ATOM     19  CA  UNL     1      33.084  -7.996 -20.828  0.00  0.00    +0.036 C 
BRANCH  19  20
ATOM     20  C   UNL     1      32.818  -7.268 -22.129  0.00  0.00    -0.034 C 
ATOM     21  C   UNL     1      31.617  -6.601 -22.295  0.00  0.00    -0.006 C 
ATOM     22  C   UNL     1      33.782  -7.286 -23.122  0.00  0.00    -0.006 C 
ATOM     23  C   UNL     1      31.372  -5.931 -23.494  0.00  0.00    -0.000 C 
ATOM     24  C   UNL     1      33.537  -6.615 -24.320  0.00  0.00    -0.000 C 
ATOM     25  C   UNL     1      32.331  -5.939 -24.506  0.00  0.00    -0.000 C 
ENDBRANCH  19  20
BRANCH  19  26
ATOM     26  N   UNL     1      32.837  -7.150 -19.655  0.00  0.00    +0.390 N 
ATOM     27  H1  UNL     1      32.658  -6.193 -19.959  0.00  0.00    -0.088 HD
ATOM     28  H2  UNL     1      33.654  -7.167 -19.045  0.00  0.00    -0.088 HD
ATOM     29  H3  UNL     1      32.026  -7.504 -19.147  0.00  0.00    -0.088 HD
ENDBRANCH  19  26
ENDBRANCH   3  19
TORSDOF 6
ENDMDL
MODEL 4
REMARK VINA RESULT:      -9.4      4.549      7.299
REMARK  Name = 5284585
REMARK  6 active torsions:
REMARK  status: ('A' for Active; 'I' for Inactive)
REMARK    1  A    between atoms: N_2  and  CA_9
REMARK    2  A    between atoms: C_3  and  CA_19
REMARK    3  A    between atoms: CA_13  and  C_16
REMARK    4  A    between atoms: C_16  and  O_17
REMARK    5  A    between atoms: CA_19  and  C_20
REMARK    6  A    between atoms: CA_19  and  N_26
REMARK                            x       y       z     vdW  Elec       q    Type
REMARK                         _______ _______ _______ _____ _____    ______ ____
ROOT
ATOM      1  O   UNL     1      31.679 -15.494 -21.182  0.00  0.00    -0.277 OA
ATOM      2  N   UNL     1      33.077 -13.767 -21.846  0.00  0.00    -0.298 N 
ATOM      3  C   UNL     1      32.806 -15.008 -21.265  0.00  0.00    +0.206 C 
ATOM      4  H   UNL     1      34.010 -13.453 -21.872  0.00  0.00    +0.150 HD
ENDROOT
BRANCH   2   9
ATOM      5 CL   UNL     1      32.067  -7.628 -19.955  0.00  0.00    -0.085 Cl
ATOM      6  O   UNL     1      33.189 -11.540 -24.259  0.00  0.00    -0.273 OA
ATOM      7  N   UNL     1      32.184 -10.872 -22.237  0.00  0.00    -0.251 N 
ATOM      8  C   UNL     1      31.428 -11.849 -21.462  0.00  0.00    +0.107 C 
ATOM      9  CA  UNL     1      32.038 -12.914 -22.417  0.00  0.00    +0.168 C 
ATOM     10  C   UNL     1      31.811 -11.710 -20.002  0.00  0.00    +0.028 C 
ATOM     11  C   UNL     1      32.583 -11.698 -23.224  0.00  0.00    +0.249 C 
ATOM     12  C   UNL     1      31.490 -10.266 -19.571  0.00  0.00    +0.041 C 
ATOM     13  CA  UNL     1      32.318  -9.582 -21.839  0.00  0.00    +0.137 C 
ATOM     14  C   UNL     1      31.965  -9.238 -20.585  0.00  0.00    +0.055 C 
BRANCH  13  16
ATOM     15  OXT UNL     1      34.052  -8.260 -22.788  0.00  0.00    -0.244 OA
ATOM     16  C   UNL     1      32.891  -8.622 -22.792  0.00  0.00    +0.353 C 
BRANCH  16  17
ATOM     17  O   UNL     1      31.936  -8.218 -23.654  0.00  0.00    -0.476 OA
ATOM     18  H   UNL     1      32.178  -7.804 -24.460  0.00  0.00    +0.295 HD
ENDBRANCH  16  17
ENDBRANCH  13  16
ENDBRANCH   2   9
BRANCH   3  19
ATOM     19  CA  UNL     1      34.053 -15.697 -20.723  0.00  0.00    +0.036 C 
BRANCH  19  20
ATOM     20  C   UNL     1      34.420 -16.897 -21.572  0.00  0.00    -0.034 C 
ATOM     21  C   UNL     1      34.991 -16.693 -22.815  0.00  0.00    -0.006 C 
ATOM     22  C   UNL     1      34.175 -18.169 -21.084  0.00  0.00    -0.006 C 
ATOM     23  C   UNL     1      35.329 -17.798 -23.597  0.00  0.00    -0.000 C 
ATOM     24  C   UNL     1      34.513 -19.273 -21.866  0.00  0.00    -0.000 C 
ATOM     25  C   UNL     1      35.089 -19.087 -23.123  0.00  0.00    -0.000 C 
ENDBRANCH  19  20
BRANCH  19  26
ATOM     26  N   UNL     1      35.128 -14.701 -20.672  0.00  0.00    +0.390 N 
ATOM     27  H1  UNL     1      36.000 -15.126 -20.985  0.00  0.00    -0.088 HD
ATOM     28  H2  UNL     1      35.237 -14.366 -19.714  0.00  0.00    -0.088 HD
ATOM     29  H3  UNL     1      34.893 -13.917 -21.281  0.00  0.00    -0.088 HD
ENDBRANCH  19  26
ENDBRANCH   3  19
TORSDOF 6
ENDMDL
MODEL 5
REMARK VINA RESULT:      -9.3      6.071     11.532
REMARK  Name = 5284585
REMARK  6 active torsions:
REMARK  status: ('A' for Active; 'I' for Inactive)
REMARK    1  A    between atoms: N_2  and  CA_9
REMARK    2  A    between atoms: C_3  and  CA_19
REMARK    3  A    between atoms: CA_13  and  C_16
REMARK    4  A    between atoms: C_16  and  O_17
REMARK    5  A    between atoms: CA_19  and  C_20
REMARK    6  A    between atoms: CA_19  and  N_26
REMARK                            x       y       z     vdW  Elec       q    Type
REMARK                         _______ _______ _______ _____ _____    ______ ____
ROOT
ATOM      1  O   UNL     1      30.968  -8.708 -23.258  0.00  0.00    -0.277 OA
ATOM      2  N   UNL     1      32.320  -9.951 -21.842  0.00  0.00    -0.298 N 
ATOM      3  C   UNL     1      31.950  -8.787 -22.521  0.00  0.00    +0.206 C 
ATOM      4  H   UNL     1      33.122  -9.927 -21.271  0.00  0.00    +0.150 HD
ENDROOT
BRANCH   2   9
ATOM      5 CL   UNL     1      35.050 -15.634 -23.430  0.00  0.00    -0.085 Cl
ATOM      6  O   UNL     1      31.848 -12.368 -19.668  0.00  0.00    -0.273 OA
ATOM      7  N   UNL     1      32.562 -12.996 -21.821  0.00  0.00    -0.251 N 
ATOM      8  C   UNL     1      32.097 -12.234 -22.975  0.00  0.00    +0.107 C 
ATOM      9  CA  UNL     1      31.570 -11.200 -21.940  0.00  0.00    +0.168 C 
ATOM     10  C   UNL     1      33.275 -11.978 -23.893  0.00  0.00    +0.028 C 
ATOM     11  C   UNL     1      31.956 -12.262 -20.867  0.00  0.00    +0.249 C 
ATOM     12  C   UNL     1      33.850 -13.347 -24.306  0.00  0.00    +0.041 C 
ATOM     13  CA  UNL     1      33.384 -14.067 -21.947  0.00  0.00    +0.137 C 
ATOM     14  C   UNL     1      33.994 -14.296 -23.128  0.00  0.00    +0.055 C 
BRANCH  13  16
ATOM     15  OXT UNL     1      34.689 -15.077 -20.236  0.00  0.00    -0.244 OA
ATOM     16  C   UNL     1      33.608 -14.909 -20.765  0.00  0.00    +0.353 C 
BRANCH  16  17
ATOM     17  O   UNL     1      32.438 -15.451 -20.370  0.00  0.00    -0.476 OA
ATOM     18  H   UNL     1      32.088 -16.192 -20.827  0.00  0.00    +0.295 HD
ENDBRANCH  16  17
ENDBRANCH  13  16
ENDBRANCH   2   9
BRANCH   3  19
ATOM     19  CA  UNL     1      32.904  -7.624 -22.274  0.00  0.00    +0.036 C 
BRANCH  19  20
ATOM     20  C   UNL     1      33.178  -6.868 -23.558  0.00  0.00    -0.034 C 
ATOM     21  C   UNL     1      34.358  -7.104 -24.240  0.00  0.00    -0.006 C 
ATOM     22  C   UNL     1      32.241  -5.960 -24.019  0.00  0.00    -0.006 C 
ATOM     23  C   UNL     1      34.611  -6.408 -25.423  0.00  0.00    -0.000 C 
ATOM     24  C   UNL     1      32.494  -5.265 -25.202  0.00  0.00    -0.000 C 
ATOM     25  C   UNL     1      33.679  -5.488 -25.902  0.00  0.00    -0.000 C 
ENDBRANCH  19  20
BRANCH  19  26
ATOM     26  N   UNL     1      32.310  -6.771 -21.240  0.00  0.00    +0.390 N 
ATOM     27  H1  UNL     1      31.410  -6.418 -21.567  0.00  0.00    -0.088 HD
ATOM     28  H2  UNL     1      32.933  -5.987 -21.046  0.00  0.00    -0.088 HD
ATOM     29  H3  UNL     1      32.173  -7.315 -20.388  0.00  0.00    -0.088 HD
ENDBRANCH  19  26
ENDBRANCH   3  19
TORSDOF 6
ENDMDL
MODEL 6
REMARK VINA RESULT:      -9.0      3.315      5.469
REMARK  Name = 5284585
REMARK  6 active torsions:
REMARK  status: ('A' for Active; 'I' for Inactive)
REMARK    1  A    between atoms: N_2  and  CA_9
REMARK    2  A    between atoms: C_3  and  CA_19
REMARK    3  A    between atoms: CA_13  and  C_16
REMARK    4  A    between atoms: C_16  and  O_17
REMARK    5  A    between atoms: CA_19  and  C_20
REMARK    6  A    between atoms: CA_19  and  N_26
REMARK                            x       y       z     vdW  Elec       q    Type
REMARK                         _______ _______ _______ _____ _____    ______ ____
ROOT
ATOM      1  O   UNL     1      34.603 -24.327 -16.455  0.00  0.00    -0.277 OA
ATOM      2  N   UNL     1      33.607 -22.528 -17.527  0.00  0.00    -0.298 N 
ATOM      3  C   UNL     1      33.846 -23.358 -16.429  0.00  0.00    +0.206 C 
ATOM      4  H   UNL     1      32.985 -21.772 -17.419  0.00  0.00    +0.150 HD
ENDROOT
BRANCH   2   9
ATOM      5 CL   UNL     1      34.559 -17.739 -21.821  0.00  0.00    -0.085 Cl
ATOM      6  O   UNL     1      36.719 -22.148 -18.508  0.00  0.00    -0.273 OA
ATOM      7  N   UNL     1      35.054 -21.134 -19.828  0.00  0.00    -0.251 N 
ATOM      8  C   UNL     1      33.762 -21.794 -19.974  0.00  0.00    +0.107 C 
ATOM      9  CA  UNL     1      34.237 -22.733 -18.829  0.00  0.00    +0.168 C 
ATOM     10  C   UNL     1      32.667 -20.758 -19.812  0.00  0.00    +0.028 C 
ATOM     11  C   UNL     1      35.616 -22.025 -18.988  0.00  0.00    +0.249 C 
ATOM     12  C   UNL     1      32.883 -19.679 -20.891  0.00  0.00    +0.041 C 
ATOM     13  CA  UNL     1      35.337 -19.957 -20.440  0.00  0.00    +0.137 C 
ATOM     14  C   UNL     1      34.336 -19.244 -20.995  0.00  0.00    +0.055 C 
BRANCH  13  16
ATOM     15  OXT UNL     1      37.331 -19.100 -21.410  0.00  0.00    -0.244 OA
ATOM     16  C   UNL     1      36.729 -19.490 -20.429  0.00  0.00    +0.353 C 
BRANCH  16  17
ATOM     17  O   UNL     1      37.218 -19.563 -19.174  0.00  0.00    -0.476 OA
ATOM     18  H   UNL     1      36.649 -19.786 -18.463  0.00  0.00    +0.295 HD
ENDBRANCH  16  17
ENDBRANCH  13  16
ENDBRANCH   2   9
BRANCH   3  19
ATOM     19  CA  UNL     1      33.054 -22.950 -15.191  0.00  0.00    +0.036 C 
BRANCH  19  20
ATOM     20  C   UNL     1      31.673 -23.573 -15.205  0.00  0.00    -0.034 C 
ATOM     21  C   UNL     1      30.667 -22.963 -15.932  0.00  0.00    -0.006 C 
ATOM     22  C   UNL     1      31.451 -24.737 -14.490  0.00  0.00    -0.006 C 
ATOM     23  C   UNL     1      29.394 -23.536 -15.944  0.00  0.00    -0.000 C 
ATOM     24  C   UNL     1      30.179 -25.310 -14.504  0.00  0.00    -0.000 C 
ATOM     25  C   UNL     1      29.151 -24.708 -15.230  0.00  0.00    -0.000 C 
ENDBRANCH  19  20
BRANCH  19  26
ATOM     26  N   UNL     1      33.833 -23.345 -14.013  0.00  0.00    +0.390 N 
ATOM     27  H1  UNL     1      33.411 -22.941 -13.177  0.00  0.00    -0.088 HD
ATOM     28  H2  UNL     1      34.790 -23.007 -14.109  0.00  0.00    -0.088 HD
ATOM     29  H3  UNL     1      33.838 -24.362 -13.934  0.00  0.00    -0.088 HD
ENDBRANCH  19  26
ENDBRANCH   3  19
TORSDOF 6
ENDMDL
MODEL 7
REMARK VINA RESULT:      -8.9      5.334      9.281
REMARK  Name = 5284585
REMARK  6 active torsions:
REMARK  status: ('A' for Active; 'I' for Inactive)
REMARK    1  A    between atoms: N_2  and  CA_9
REMARK    2  A    between atoms: C_3  and  CA_19
REMARK    3  A    between atoms: CA_13  and  C_16
REMARK    4  A    between atoms: C_16  and  O_17
REMARK    5  A    between atoms: CA_19  and  C_20
REMARK    6  A    between atoms: CA_19  and  N_26
REMARK                            x       y       z     vdW  Elec       q    Type
REMARK                         _______ _______ _______ _____ _____    ______ ____
ROOT
ATOM      1  O   UNL     1      34.058 -23.750 -19.515  0.00  0.00    -0.277 OA
ATOM      2  N   UNL     1      33.975 -22.888 -17.363  0.00  0.00    -0.298 N 
ATOM      3  C   UNL     1      33.867 -22.802 -18.754  0.00  0.00    +0.206 C 
ATOM      4  H   UNL     1      33.804 -22.079 -16.828  0.00  0.00    +0.150 HD
ENDROOT
BRANCH   2   9
ATOM      5 CL   UNL     1      37.595 -23.029 -11.965  0.00  0.00    -0.085 Cl
ATOM      6  O   UNL     1      32.584 -24.408 -14.805  0.00  0.00    -0.273 OA
ATOM      7  N   UNL     1      34.909 -24.053 -14.699  0.00  0.00    -0.251 N 
ATOM      8  C   UNL     1      35.695 -24.120 -15.925  0.00  0.00    +0.107 C 
ATOM      9  CA  UNL     1      34.329 -24.123 -16.669  0.00  0.00    +0.168 C 
ATOM     10  C   UNL     1      36.662 -22.953 -15.946  0.00  0.00    +0.028 C 
ATOM     11  C   UNL     1      33.698 -24.261 -15.252  0.00  0.00    +0.249 C 
ATOM     12  C   UNL     1      37.550 -23.060 -14.691  0.00  0.00    +0.041 C 
ATOM     13  CA  UNL     1      35.475 -23.806 -13.491  0.00  0.00    +0.137 C 
ATOM     14  C   UNL     1      36.747 -23.364 -13.437  0.00  0.00    +0.055 C 
BRANCH  13  16
ATOM     15  OXT UNL     1      34.920 -24.746 -11.379  0.00  0.00    -0.244 OA
ATOM     16  C   UNL     1      34.649 -23.989 -12.291  0.00  0.00    +0.353 C 
BRANCH  16  17
ATOM     17  O   UNL     1      33.562 -23.194 -12.366  0.00  0.00    -0.476 OA
ATOM     18  H   UNL     1      32.821 -23.461 -12.876  0.00  0.00    +0.295 HD
ENDBRANCH  16  17
ENDBRANCH  13  16
ENDBRANCH   2   9
BRANCH   3  19
ATOM     19  CA  UNL     1      33.506 -21.403 -19.239  0.00  0.00    +0.036 C 
BRANCH  19  20
ATOM     20  C   UNL     1      34.718 -20.703 -19.820  0.00  0.00    -0.034 C 
ATOM     21  C   UNL     1      35.981 -21.100 -19.418  0.00  0.00    -0.006 C 
ATOM     22  C   UNL     1      34.533 -19.685 -20.739  0.00  0.00    -0.006 C 
ATOM     23  C   UNL     1      37.098 -20.456 -19.953  0.00  0.00    -0.000 C 
ATOM     24  C   UNL     1      35.650 -19.042 -21.273  0.00  0.00    -0.000 C 
ATOM     25  C   UNL     1      36.931 -19.427 -20.880  0.00  0.00    -0.000 C 
ENDBRANCH  19  20
BRANCH  19  26
ATOM     26  N   UNL     1      32.418 -21.534 -20.213  0.00  0.00    +0.390 N 
ATOM     27  H1  UNL     1      32.136 -22.511 -20.277  0.00  0.00    -0.088 HD
ATOM     28  H2  UNL     1      32.738 -21.211 -21.126  0.00  0.00    -0.088 HD
ATOM     29  H3  UNL     1      31.623 -20.969 -19.911  0.00  0.00    -0.088 HD
ENDBRANCH  19  26
ENDBRANCH   3  19
TORSDOF 6
ENDMDL
MODEL 8
REMARK VINA RESULT:      -8.7      3.497      5.669
REMARK  Name = 5284585
REMARK  6 active torsions:
REMARK  status: ('A' for Active; 'I' for Inactive)
REMARK    1  A    between atoms: N_2  and  CA_9
REMARK    2  A    between atoms: C_3  and  CA_19
REMARK    3  A    between atoms: CA_13  and  C_16
REMARK    4  A    between atoms: C_16  and  O_17
REMARK    5  A    between atoms: CA_19  and  C_20
REMARK    6  A    between atoms: CA_19  and  N_26
REMARK                            x       y       z     vdW  Elec       q    Type
REMARK                         _______ _______ _______ _____ _____    ______ ____
ROOT
ATOM      1  O   UNL     1      33.851 -17.017 -23.966  0.00  0.00    -0.277 OA
ATOM      2  N   UNL     1      33.693 -15.300 -22.414  0.00  0.00    -0.298 N 
ATOM      3  C   UNL     1      34.206 -16.503 -22.905  0.00  0.00    +0.206 C 
ATOM      4  H   UNL     1      34.034 -14.959 -21.556  0.00  0.00    +0.150 HD
ENDROOT
BRANCH   2   9
ATOM      5 CL   UNL     1      32.197  -9.159 -20.890  0.00  0.00    -0.085 Cl
ATOM      6  O   UNL     1      33.931 -13.162 -24.897  0.00  0.00    -0.273 OA
ATOM      7  N   UNL     1      32.700 -12.474 -23.011  0.00  0.00    -0.251 N 
ATOM      8  C   UNL     1      31.920 -13.460 -22.273  0.00  0.00    +0.107 C 
ATOM      9  CA  UNL     1      32.674 -14.526 -23.118  0.00  0.00    +0.168 C 
ATOM     10  C   UNL     1      32.151 -13.247 -20.789  0.00  0.00    +0.028 C 
ATOM     11  C   UNL     1      33.235 -13.313 -23.919  0.00  0.00    +0.249 C 
ATOM     12  C   UNL     1      31.717 -11.807 -20.452  0.00  0.00    +0.041 C 
ATOM     13  CA  UNL     1      32.730 -11.164 -22.657  0.00  0.00    +0.137 C 
ATOM     14  C   UNL     1      32.238 -10.794 -21.458  0.00  0.00    +0.055 C 
BRANCH  13  16
ATOM     15  OXT UNL     1      32.742  -9.328 -24.166  0.00  0.00    -0.244 OA
ATOM     16  C   UNL     1      33.345 -10.211 -23.589  0.00  0.00    +0.353 C 
BRANCH  16  17
ATOM     17  O   UNL     1      34.664 -10.473 -23.695  0.00  0.00    -0.476 OA
ATOM     18  H   UNL     1      35.048 -10.606 -24.540  0.00  0.00    +0.295 HD
ENDBRANCH  16  17
ENDBRANCH  13  16
ENDBRANCH   2   9
BRANCH   3  19
ATOM     19  CA  UNL     1      35.242 -17.131 -21.980  0.00  0.00    +0.036 C 
BRANCH  19  20
ATOM     20  C   UNL     1      34.695 -18.386 -21.330  0.00  0.00    -0.034 C 
ATOM     21  C   UNL     1      35.578 -19.356 -20.890  0.00  0.00    -0.006 C 
ATOM     22  C   UNL     1      33.326 -18.531 -21.190  0.00  0.00    -0.006 C 
ATOM     23  C   UNL     1      35.074 -20.511 -20.291  0.00  0.00    -0.000 C 
ATOM     24  C   UNL     1      32.824 -19.686 -20.590  0.00  0.00    -0.000 C 
ATOM     25  C   UNL     1      33.698 -20.676 -20.142  0.00  0.00    -0.000 C 
ENDBRANCH  19  20
BRANCH  19  26
ATOM     26  N   UNL     1      36.448 -17.394 -22.771  0.00  0.00    +0.390 N 
ATOM     27  H1  UNL     1      36.303 -18.224 -23.345  0.00  0.00    -0.088 HD
ATOM     28  H2  UNL     1      37.239 -17.546 -22.146  0.00  0.00    -0.088 HD
ATOM     29  H3  UNL     1      36.640 -16.593 -23.373  0.00  0.00    -0.088 HD
ENDBRANCH  19  26
ENDBRANCH   3  19
TORSDOF 6
ENDMDL
MODEL 9
REMARK VINA RESULT:      -8.7      3.123      4.980
REMARK  Name = 5284585
REMARK  6 active torsions:
REMARK  status: ('A' for Active; 'I' for Inactive)
REMARK    1  A    between atoms: N_2  and  CA_9
REMARK    2  A    between atoms: C_3  and  CA_19
REMARK    3  A    between atoms: CA_13  and  C_16
REMARK    4  A    between atoms: C_16  and  O_17
REMARK    5  A    between atoms: CA_19  and  C_20
REMARK    6  A    between atoms: CA_19  and  N_26
REMARK                            x       y       z     vdW  Elec       q    Type
REMARK                         _______ _______ _______ _____ _____    ______ ____
ROOT
ATOM      1  O   UNL     1      34.415 -18.095 -24.047  0.00  0.00    -0.277 OA
ATOM      2  N   UNL     1      34.039 -16.170 -22.809  0.00  0.00    -0.298 N 
ATOM      3  C   UNL     1      34.637 -17.409 -23.050  0.00  0.00    +0.206 C 
ATOM      4  H   UNL     1      34.275 -15.686 -21.985  0.00  0.00    +0.150 HD
ENDROOT
BRANCH   2   9
ATOM      5 CL   UNL     1      33.108  -9.750 -23.248  0.00  0.00    -0.085 Cl
ATOM      6  O   UNL     1      34.420 -14.919 -25.823  0.00  0.00    -0.273 OA
ATOM      7  N   UNL     1      33.285 -13.584 -24.251  0.00  0.00    -0.251 N 
ATOM      8  C   UNL     1      32.435 -14.226 -23.255  0.00  0.00    +0.107 C 
ATOM      9  CA  UNL     1      33.079 -15.561 -23.726  0.00  0.00    +0.168 C 
ATOM     10  C   UNL     1      32.708 -13.592 -21.905  0.00  0.00    +0.028 C 
ATOM     11  C   UNL     1      33.730 -14.704 -24.854  0.00  0.00    +0.249 C 
ATOM     12  C   UNL     1      32.407 -12.086 -22.028  0.00  0.00    +0.041 C 
ATOM     13  CA  UNL     1      33.435 -12.237 -24.313  0.00  0.00    +0.137 C 
ATOM     14  C   UNL     1      32.997 -11.477 -23.289  0.00  0.00    +0.055 C 
BRANCH  13  16
ATOM     15  OXT UNL     1      35.055 -10.903 -25.429  0.00  0.00    -0.244 OA
ATOM     16  C   UNL     1      34.115 -11.671 -25.485  0.00  0.00    +0.353 C 
BRANCH  16  17
ATOM     17  O   UNL     1      33.536 -12.137 -26.610  0.00  0.00    -0.476 OA
ATOM     18  H   UNL     1      33.508 -13.060 -26.775  0.00  0.00    +0.295 HD
ENDBRANCH  16  17
ENDBRANCH  13  16
ENDBRANCH   2   9
BRANCH   3  19
ATOM     19  CA  UNL     1      35.585 -17.839 -21.936  0.00  0.00    +0.036 C 
BRANCH  19  20
ATOM     20  C   UNL     1      35.023 -19.022 -21.175  0.00  0.00    -0.034 C 
ATOM     21  C   UNL     1      35.893 -19.957 -20.644  0.00  0.00    -0.006 C 
ATOM     22  C   UNL     1      33.652 -19.139 -21.027  0.00  0.00    -0.006 C 
ATOM     23  C   UNL     1      35.375 -21.047 -19.943  0.00  0.00    -0.000 C 
ATOM     24  C   UNL     1      33.134 -20.228 -20.325  0.00  0.00    -0.000 C 
ATOM     25  C   UNL     1      33.996 -21.182 -19.785  0.00  0.00    -0.000 C 
ENDBRANCH  19  20
BRANCH  19  26
ATOM     26  N   UNL     1      36.886 -18.136 -22.546  0.00  0.00    +0.390 N 
ATOM     27  H1  UNL     1      37.324 -17.267 -22.849  0.00  0.00    -0.088 HD
ATOM     28  H2  UNL     1      36.753 -18.749 -23.350  0.00  0.00    -0.088 HD
ATOM     29  H3  UNL     1      37.484 -18.598 -21.861  0.00  0.00    -0.088 HD
ENDBRANCH  19  26
ENDBRANCH   3  19
TORSDOF 6
ENDMDL
