MODEL 1
REMARK VINA RESULT:     -10.8      0.000      0.000
REMARK  Name = 399618
REMARK  5 active torsions:
REMARK  status: ('A' for Active; 'I' for Inactive)
REMARK    1  A    between atoms: N_2  and  C_8
REMARK    2  A    between atoms: C_4  and  C_20
REMARK    3  A    between atoms: C_11  and  O_14
REMARK    4  A    between atoms: C_20  and  C_21
REMARK    5  A    between atoms: C_24  and  O_27
REMARK                            x       y       z     vdW  Elec       q    Type
REMARK                         _______ _______ _______ _____ _____    ______ ____
ROOT
ATOM      1  S   UNL     1      34.608 -16.293 -23.813  0.00  0.00    -0.051 S 
ATOM      2  N   UNL     1      33.620 -13.826 -23.927  0.00  0.00    -0.283 N 
ATOM      3  N   UNL     1      34.171 -14.720 -21.809  0.00  0.00    -0.370 NA
ATOM      4  C   UNL     1      34.966 -16.822 -22.249  0.00  0.00    +0.183 C 
ATOM      5  C   UNL     1      34.086 -14.813 -23.117  0.00  0.00    +0.213 C 
ATOM      6  C   UNL     1      34.687 -15.900 -21.309  0.00  0.00    +0.174 C 
ATOM      7  H   UNL     1      33.515 -14.079 -24.872  0.00  0.00    +0.155 HD
ATOM      8  N   UNL     1      34.872 -16.055 -19.976  0.00  0.00    -0.335 N 
ATOM      9  H   UNL     1      34.639 -15.323 -19.359  0.00  0.00    +0.144 HD
ATOM     10  H   UNL     1      35.240 -16.897 -19.624  0.00  0.00    +0.144 HD
ENDROOT
BRANCH   2  11
ATOM     11  C   UNL     1      33.260 -12.488 -23.621  0.00  0.00    +0.051 C 
ATOM     12  C   UNL     1      32.247 -12.240 -22.701  0.00  0.00    +0.018 C 
ATOM     13  C   UNL     1      33.925 -11.437 -24.243  0.00  0.00    +0.018 C 
ATOM     14  C   UNL     1      32.555  -9.866 -23.021  0.00  0.00    +0.139 C 
ATOM     15  C   UNL     1      31.894 -10.925 -22.402  0.00  0.00    +0.038 C 
ATOM     16  C   UNL     1      33.571 -10.122 -23.942  0.00  0.00    +0.038 C 
BRANCH  14  17
ATOM     17  O   UNL     1      32.211  -8.582 -22.728  0.00  0.00    -0.471 OA
ATOM     18  C   UNL     1      32.292  -8.185 -21.360  0.00  0.00    +0.252 C 
ENDBRANCH  14  17
ENDBRANCH   2  11
BRANCH   4  20
ATOM     19  O   UNL     1      36.604 -18.507 -22.598  0.00  0.00    -0.290 OA
ATOM     20  C   UNL     1      35.520 -18.183 -22.084  0.00  0.00    +0.191 C 
BRANCH  20  21
ATOM     21  C   UNL     1      34.824 -19.188 -21.295  0.00  0.00    +0.036 C 
ATOM     22  C   UNL     1      35.552 -20.136 -20.576  0.00  0.00    +0.006 C 
ATOM     23  C   UNL     1      33.430 -19.204 -21.259  0.00  0.00    +0.006 C 
ATOM     24  C   UNL     1      33.490 -21.115 -19.783  0.00  0.00    +0.139 C 
ATOM     25  C   UNL     1      34.885 -21.099 -19.819  0.00  0.00    +0.037 C 
ATOM     26  C   UNL     1      32.763 -20.167 -20.503  0.00  0.00    +0.037 C 
BRANCH  24  27
ATOM     27  O   UNL     1      32.839 -22.054 -19.043  0.00  0.00    -0.471 OA
ATOM     28  C   UNL     1      33.624 -22.814 -18.124  0.00  0.00    +0.252 C 
ENDBRANCH  24  27
ENDBRANCH  20  21
ENDBRANCH   4  20
TORSDOF 5
ENDMDL
MODEL 2
REMARK VINA RESULT:     -10.0      3.120      5.061
REMARK  Name = 399618
REMARK  5 active torsions:
REMARK  status: ('A' for Active; 'I' for Inactive)
REMARK    1  A    between atoms: N_2  and  C_8
REMARK    2  A    between atoms: C_4  and  C_20
REMARK    3  A    between atoms: C_11  and  O_14
REMARK    4  A    between atoms: C_20  and  C_21
REMARK    5  A    between atoms: C_24  and  O_27
REMARK                            x       y       z     vdW  Elec       q    Type
REMARK                         _______ _______ _______ _____ _____    ______ ____
ROOT
ATOM      1  S   UNL     1      36.124 -20.094 -20.569  0.00  0.00    -0.051 S 
ATOM      2  N   UNL     1      35.617 -17.759 -21.738  0.00  0.00    -0.283 N 
ATOM      3  N   UNL     1      33.805 -18.984 -20.840  0.00  0.00    -0.370 NA
ATOM      4  C   UNL     1      34.754 -20.875 -19.965  0.00  0.00    +0.183 C 
ATOM      5  C   UNL     1      35.085 -18.833 -21.096  0.00  0.00    +0.213 C 
ATOM      6  C   UNL     1      33.620 -20.182 -20.177  0.00  0.00    +0.174 C 
ATOM      7  H   UNL     1      36.574 -17.835 -21.953  0.00  0.00    +0.155 HD
ATOM      8  N   UNL     1      32.378 -20.570 -19.801  0.00  0.00    -0.335 N 
ATOM      9  H   UNL     1      31.602 -19.997 -19.999  0.00  0.00    +0.144 HD
ATOM     10  H   UNL     1      32.251 -21.424 -19.329  0.00  0.00    +0.144 HD
ENDROOT
BRANCH   2  11
ATOM     11  C   UNL     1      35.005 -16.546 -22.147  0.00  0.00    +0.051 C 
ATOM     12  C   UNL     1      34.626 -15.610 -21.192  0.00  0.00    +0.018 C 
ATOM     13  C   UNL     1      34.790 -16.305 -23.500  0.00  0.00    +0.018 C 
ATOM     14  C   UNL     1      33.805 -14.169 -22.949  0.00  0.00    +0.139 C 
ATOM     15  C   UNL     1      34.024 -14.418 -21.594  0.00  0.00    +0.038 C 
ATOM     16  C   UNL     1      34.188 -15.113 -23.902  0.00  0.00    +0.038 C 
BRANCH  14  17
ATOM     17  O   UNL     1      33.218 -13.005 -23.342  0.00  0.00    -0.471 OA
ATOM     18  C   UNL     1      33.830 -12.302 -24.421  0.00  0.00    +0.252 C 
ENDBRANCH  14  17
ENDBRANCH   2  11
BRANCH   4  20
ATOM     19  O   UNL     1      34.570 -23.240 -19.835  0.00  0.00    -0.290 OA
ATOM     20  C   UNL     1      34.936 -22.182 -19.296  0.00  0.00    +0.191 C 
BRANCH  20  21
ATOM     21  C   UNL     1      35.566 -22.277 -17.989  0.00  0.00    +0.036 C 
ATOM     22  C   UNL     1      34.900 -22.910 -16.939  0.00  0.00    +0.006 C 
ATOM     23  C   UNL     1      36.836 -21.737 -17.786  0.00  0.00    +0.006 C 
ATOM     24  C   UNL     1      36.776 -22.461 -15.482  0.00  0.00    +0.139 C 
ATOM     25  C   UNL     1      35.505 -23.002 -15.685  0.00  0.00    +0.037 C 
ATOM     26  C   UNL     1      37.440 -21.828 -16.533  0.00  0.00    +0.037 C 
BRANCH  24  27
ATOM     27  O   UNL     1      37.367 -22.552 -14.260  0.00  0.00    -0.471 OA
ATOM     28  C   UNL     1      36.927 -23.606 -13.403  0.00  0.00    +0.252 C 
ENDBRANCH  24  27
ENDBRANCH  20  21
ENDBRANCH   4  20
TORSDOF 5
ENDMDL
MODEL 3
REMARK VINA RESULT:      -9.8      1.349      2.037
REMARK  Name = 399618
REMARK  5 active torsions:
REMARK  status: ('A' for Active; 'I' for Inactive)
REMARK    1  A    between atoms: N_2  and  C_8
REMARK    2  A    between atoms: C_4  and  C_20
REMARK    3  A    between atoms: C_11  and  O_14
REMARK    4  A    between atoms: C_20  and  C_21
REMARK    5  A    between atoms: C_24  and  O_27
REMARK                            x       y       z     vdW  Elec       q    Type
REMARK                         _______ _______ _______ _____ _____    ______ ____
ROOT
ATOM      1  S   UNL     1      33.829 -15.400 -24.678  0.00  0.00    -0.051 S 
ATOM      2  N   UNL     1      33.134 -12.885 -24.158  0.00  0.00    -0.283 N 
ATOM      3  N   UNL     1      33.988 -14.204 -22.391  0.00  0.00    -0.370 NA
ATOM      4  C   UNL     1      34.426 -16.242 -23.340  0.00  0.00    +0.183 C 
ATOM      5  C   UNL     1      33.634 -14.042 -23.646  0.00  0.00    +0.213 C 
ATOM      6  C   UNL     1      34.451 -15.495 -22.221  0.00  0.00    +0.174 C 
ATOM      7  H   UNL     1      32.814 -12.946 -25.086  0.00  0.00    +0.155 HD
ATOM      8  N   UNL     1      34.879 -15.912 -21.005  0.00  0.00    -0.335 N 
ATOM      9  H   UNL     1      34.861 -15.295 -20.238  0.00  0.00    +0.144 HD
ATOM     10  H   UNL     1      35.209 -16.832 -20.888  0.00  0.00    +0.144 HD
ENDROOT
BRANCH   2  11
ATOM     11  C   UNL     1      33.003 -11.605 -23.561  0.00  0.00    +0.051 C 
ATOM     12  C   UNL     1      33.791 -10.552 -24.010  0.00  0.00    +0.018 C 
ATOM     13  C   UNL     1      32.087 -11.416 -22.531  0.00  0.00    +0.018 C 
ATOM     14  C   UNL     1      32.747  -9.096 -22.389  0.00  0.00    +0.139 C 
ATOM     15  C   UNL     1      33.663  -9.294 -23.422  0.00  0.00    +0.038 C 
ATOM     16  C   UNL     1      31.959 -10.158 -21.944  0.00  0.00    +0.038 C 
BRANCH  14  17
ATOM     17  O   UNL     1      32.621  -7.868 -21.816  0.00  0.00    -0.471 OA
ATOM     18  C   UNL     1      32.390  -7.830 -20.409  0.00  0.00    +0.252 C 
ENDBRANCH  14  17
ENDBRANCH   2  11
BRANCH   4  20
ATOM     19  O   UNL     1      34.973 -18.137 -24.665  0.00  0.00    -0.290 OA
ATOM     20  C   UNL     1      34.839 -17.649 -23.530  0.00  0.00    +0.191 C 
BRANCH  20  21
ATOM     21  C   UNL     1      35.120 -18.510 -22.392  0.00  0.00    +0.036 C 
ATOM     22  C   UNL     1      34.089 -19.238 -21.798  0.00  0.00    +0.006 C 
ATOM     23  C   UNL     1      36.420 -18.608 -21.896  0.00  0.00    +0.006 C 
ATOM     24  C   UNL     1      35.660 -20.162 -20.210  0.00  0.00    +0.139 C 
ATOM     25  C   UNL     1      34.359 -20.065 -20.707  0.00  0.00    +0.037 C 
ATOM     26  C   UNL     1      36.689 -19.433 -20.805  0.00  0.00    +0.037 C 
BRANCH  24  27
ATOM     27  O   UNL     1      35.923 -20.970 -19.147  0.00  0.00    -0.471 OA
ATOM     28  C   UNL     1      35.037 -22.067 -18.930  0.00  0.00    +0.252 C 
ENDBRANCH  24  27
ENDBRANCH  20  21
ENDBRANCH   4  20
TORSDOF 5
ENDMDL
MODEL 4
REMARK VINA RESULT:      -9.7      2.903      4.830
REMARK  Name = 399618
REMARK  5 active torsions:
REMARK  status: ('A' for Active; 'I' for Inactive)
REMARK    1  A    between atoms: N_2  and  C_8
REMARK    2  A    between atoms: C_4  and  C_20
REMARK    3  A    between atoms: C_11  and  O_14
REMARK    4  A    between atoms: C_20  and  C_21
REMARK    5  A    between atoms: C_24  and  O_27
REMARK                            x       y       z     vdW  Elec       q    Type
REMARK                         _______ _______ _______ _____ _____    ______ ____
ROOT
ATOM      1  S   UNL     1      32.238 -12.673 -22.585  0.00  0.00    -0.051 S 
ATOM      2  N   UNL     1      31.806 -10.112 -22.014  0.00  0.00    -0.283 N 
ATOM      3  N   UNL     1      33.295 -10.636 -23.774  0.00  0.00    -0.370 NA
ATOM      4  C   UNL     1      33.318 -12.924 -23.861  0.00  0.00    +0.183 C 
ATOM      5  C   UNL     1      32.470 -10.988 -22.815  0.00  0.00    +0.213 C 
ATOM      6  C   UNL     1      33.787 -11.775 -24.382  0.00  0.00    +0.174 C 
ATOM      7  H   UNL     1      31.307 -10.522 -21.272  0.00  0.00    +0.155 HD
ATOM      8  N   UNL     1      34.664 -11.677 -25.409  0.00  0.00    -0.335 N 
ATOM      9  H   UNL     1      34.954 -10.791 -25.726  0.00  0.00    +0.144 HD
ATOM     10  H   UNL     1      35.012 -12.491 -25.839  0.00  0.00    +0.144 HD
ENDROOT
BRANCH   2  11
ATOM     11  C   UNL     1      31.721  -8.697 -22.083  0.00  0.00    +0.051 C 
ATOM     12  C   UNL     1      31.169  -8.095 -23.208  0.00  0.00    +0.018 C 
ATOM     13  C   UNL     1      32.192  -7.927 -21.026  0.00  0.00    +0.018 C 
ATOM     14  C   UNL     1      31.557  -5.925 -22.219  0.00  0.00    +0.139 C 
ATOM     15  C   UNL     1      31.087  -6.704 -23.276  0.00  0.00    +0.038 C 
ATOM     16  C   UNL     1      32.109  -6.536 -21.094  0.00  0.00    +0.038 C 
BRANCH  14  17
ATOM     17  O   UNL     1      31.476  -4.567 -22.285  0.00  0.00    -0.471 OA
ATOM     18  C   UNL     1      31.330  -3.988 -23.581  0.00  0.00    +0.252 C 
ENDBRANCH  14  17
ENDBRANCH   2  11
BRANCH   4  20
ATOM     19  O   UNL     1      33.429 -14.720 -25.412  0.00  0.00    -0.290 OA
ATOM     20  C   UNL     1      33.622 -14.317 -24.252  0.00  0.00    +0.191 C 
BRANCH  20  21
ATOM     21  C   UNL     1      34.177 -15.263 -23.297  0.00  0.00    +0.036 C 
ATOM     22  C   UNL     1      34.129 -14.982 -21.931  0.00  0.00    +0.006 C 
ATOM     23  C   UNL     1      34.756 -16.450 -23.745  0.00  0.00    +0.006 C 
ATOM     24  C   UNL     1      35.240 -17.076 -21.463  0.00  0.00    +0.139 C 
ATOM     25  C   UNL     1      34.660 -15.889 -21.014  0.00  0.00    +0.037 C 
ATOM     26  C   UNL     1      35.288 -17.356 -22.828  0.00  0.00    +0.037 C 
BRANCH  24  27
ATOM     27  O   UNL     1      35.756 -17.962 -20.568  0.00  0.00    -0.471 OA
ATOM     28  C   UNL     1      35.742 -19.341 -20.937  0.00  0.00    +0.252 C 
ENDBRANCH  24  27
ENDBRANCH  20  21
ENDBRANCH   4  20
TORSDOF 5
ENDMDL
MODEL 5
REMARK VINA RESULT:      -9.6      1.556      2.218
REMARK  Name = 399618
REMARK  5 active torsions:
REMARK  status: ('A' for Active; 'I' for Inactive)
REMARK    1  A    between atoms: N_2  and  C_8
REMARK    2  A    between atoms: C_4  and  C_20
REMARK    3  A    between atoms: C_11  and  O_14
REMARK    4  A    between atoms: C_20  and  C_21
REMARK    5  A    between atoms: C_24  and  O_27
REMARK                            x       y       z     vdW  Elec       q    Type
REMARK                         _______ _______ _______ _____ _____    ______ ____
ROOT
ATOM      1  S   UNL     1      33.449 -17.051 -20.890  0.00  0.00    -0.051 S 
ATOM      2  N   UNL     1      32.648 -14.517 -20.769  0.00  0.00    -0.283 N 
ATOM      3  N   UNL     1      34.025 -15.176 -22.575  0.00  0.00    -0.370 NA
ATOM      4  C   UNL     1      34.425 -17.404 -22.223  0.00  0.00    +0.183 C 
ATOM      5  C   UNL     1      33.369 -15.436 -21.466  0.00  0.00    +0.213 C 
ATOM      6  C   UNL     1      34.641 -16.334 -23.011  0.00  0.00    +0.174 C 
ATOM      7  H   UNL     1      32.301 -14.831 -19.904  0.00  0.00    +0.155 HD
ATOM      8  N   UNL     1      35.384 -16.327 -24.143  0.00  0.00    -0.335 N 
ATOM      9  H   UNL     1      35.488 -15.495 -24.659  0.00  0.00    +0.144 HD
ATOM     10  H   UNL     1      35.820 -17.154 -24.451  0.00  0.00    +0.144 HD
ENDROOT
BRANCH   2  11
ATOM     11  C   UNL     1      32.320 -13.176 -21.097  0.00  0.00    +0.051 C 
ATOM     12  C   UNL     1      31.892 -12.309 -20.098  0.00  0.00    +0.018 C 
ATOM     13  C   UNL     1      32.428 -12.743 -22.414  0.00  0.00    +0.018 C 
ATOM     14  C   UNL     1      31.675 -10.549 -21.739  0.00  0.00    +0.139 C 
ATOM     15  C   UNL     1      31.569 -10.991 -20.421  0.00  0.00    +0.038 C 
ATOM     16  C   UNL     1      32.105 -11.425 -22.735  0.00  0.00    +0.038 C 
BRANCH  14  17
ATOM     17  O   UNL     1      31.360  -9.262 -22.053  0.00  0.00    -0.471 OA
ATOM     18  C   UNL     1      31.858  -8.756 -23.290  0.00  0.00    +0.252 C 
ENDBRANCH  14  17
ENDBRANCH   2  11
BRANCH   4  20
ATOM     19  O   UNL     1      35.436 -19.177 -23.439  0.00  0.00    -0.290 OA
ATOM     20  C   UNL     1      34.921 -18.789 -22.377  0.00  0.00    +0.191 C 
BRANCH  20  21
ATOM     21  C   UNL     1      34.839 -19.743 -21.282  0.00  0.00    +0.036 C 
ATOM     22  C   UNL     1      33.595 -20.219 -20.866  0.00  0.00    +0.006 C 
ATOM     23  C   UNL     1      36.002 -20.181 -20.650  0.00  0.00    +0.006 C 
ATOM     24  C   UNL     1      34.680 -21.573 -19.183  0.00  0.00    +0.139 C 
ATOM     25  C   UNL     1      33.516 -21.135 -19.816  0.00  0.00    +0.037 C 
ATOM     26  C   UNL     1      35.922 -21.095 -19.600  0.00  0.00    +0.037 C 
BRANCH  24  27
ATOM     27  O   UNL     1      34.603 -22.468 -18.161  0.00  0.00    -0.471 OA
ATOM     28  C   UNL     1      33.312 -22.994 -17.855  0.00  0.00    +0.252 C 
ENDBRANCH  24  27
ENDBRANCH  20  21
ENDBRANCH   4  20
TORSDOF 5
ENDMDL
MODEL 6
REMARK VINA RESULT:      -9.5      3.311      9.878
REMARK  Name = 399618
REMARK  5 active torsions:
REMARK  status: ('A' for Active; 'I' for Inactive)
REMARK    1  A    between atoms: N_2  and  C_8
REMARK    2  A    between atoms: C_4  and  C_20
REMARK    3  A    between atoms: C_11  and  O_14
REMARK    4  A    between atoms: C_20  and  C_21
REMARK    5  A    between atoms: C_24  and  O_27
REMARK                            x       y       z     vdW  Elec       q    Type
REMARK                         _______ _______ _______ _____ _____    ______ ____
ROOT
ATOM      1  S   UNL     1      33.044 -20.258 -21.051  0.00  0.00    -0.051 S 
ATOM      2  N   UNL     1      32.697 -21.844 -18.944  0.00  0.00    -0.283 N 
ATOM      3  N   UNL     1      34.871 -21.034 -19.395  0.00  0.00    -0.370 NA
ATOM      4  C   UNL     1      34.638 -19.742 -21.271  0.00  0.00    +0.183 C 
ATOM      5  C   UNL     1      33.590 -21.123 -19.672  0.00  0.00    +0.213 C 
ATOM      6  C   UNL     1      35.477 -20.224 -20.336  0.00  0.00    +0.174 C 
ATOM      7  H   UNL     1      31.795 -21.904 -19.333  0.00  0.00    +0.155 HD
ATOM      8  N   UNL     1      36.807 -19.974 -20.268  0.00  0.00    -0.335 N 
ATOM      9  H   UNL     1      37.346 -20.371 -19.545  0.00  0.00    +0.144 HD
ATOM     10  H   UNL     1      37.235 -19.395 -20.939  0.00  0.00    +0.144 HD
ENDROOT
BRANCH   2  11
ATOM     11  C   UNL     1      32.863 -22.525 -17.711  0.00  0.00    +0.051 C 
ATOM     12  C   UNL     1      31.758 -22.763 -16.901  0.00  0.00    +0.018 C 
ATOM     13  C   UNL     1      34.130 -22.947 -17.322  0.00  0.00    +0.018 C 
ATOM     14  C   UNL     1      33.190 -23.858 -15.292  0.00  0.00    +0.139 C 
ATOM     15  C   UNL     1      31.923 -23.431 -15.688  0.00  0.00    +0.038 C 
ATOM     16  C   UNL     1      34.294 -23.616 -16.110  0.00  0.00    +0.038 C 
BRANCH  14  17
ATOM     17  O   UNL     1      33.350 -24.511 -14.108  0.00  0.00    -0.471 OA
ATOM     18  C   UNL     1      34.538 -24.232 -13.369  0.00  0.00    +0.252 C 
ENDBRANCH  14  17
ENDBRANCH   2  11
BRANCH   4  20
ATOM     19  O   UNL     1      35.447 -19.294 -23.459  0.00  0.00    -0.290 OA
ATOM     20  C   UNL     1      34.931 -18.855 -22.418  0.00  0.00    +0.191 C 
BRANCH  20  21
ATOM     21  C   UNL     1      34.609 -17.437 -22.374  0.00  0.00    +0.036 C 
ATOM     22  C   UNL     1      34.467 -16.718 -23.561  0.00  0.00    +0.006 C 
ATOM     23  C   UNL     1      34.442 -16.797 -21.146  0.00  0.00    +0.006 C 
ATOM     24  C   UNL     1      33.990 -14.719 -22.291  0.00  0.00    +0.139 C 
ATOM     25  C   UNL     1      34.157 -15.359 -23.519  0.00  0.00    +0.037 C 
ATOM     26  C   UNL     1      34.133 -15.438 -21.104  0.00  0.00    +0.037 C 
BRANCH  24  27
ATOM     27  O   UNL     1      33.686 -13.393 -22.250  0.00  0.00    -0.471 OA
ATOM     28  C   UNL     1      32.334 -13.028 -22.529  0.00  0.00    +0.252 C 
ENDBRANCH  24  27
ENDBRANCH  20  21
ENDBRANCH   4  20
TORSDOF 5
ENDMDL
MODEL 7
REMARK VINA RESULT:      -9.5      1.964      9.377
REMARK  Name = 399618
REMARK  5 active torsions:
REMARK  status: ('A' for Active; 'I' for Inactive)
REMARK    1  A    between atoms: N_2  and  C_8
REMARK    2  A    between atoms: C_4  and  C_20
REMARK    3  A    between atoms: C_11  and  O_14
REMARK    4  A    between atoms: C_20  and  C_21
REMARK    5  A    between atoms: C_24  and  O_27
REMARK                            x       y       z     vdW  Elec       q    Type
REMARK                         _______ _______ _______ _____ _____    ______ ____
ROOT
ATOM      1  S   UNL     1      34.186 -13.879 -22.827  0.00  0.00    -0.051 S 
ATOM      2  N   UNL     1      34.503 -16.193 -21.553  0.00  0.00    -0.283 N 
ATOM      3  N   UNL     1      33.949 -16.241 -23.851  0.00  0.00    -0.370 NA
ATOM      4  C   UNL     1      33.794 -14.040 -24.463  0.00  0.00    +0.183 C 
ATOM      5  C   UNL     1      34.214 -15.593 -22.739  0.00  0.00    +0.213 C 
ATOM      6  C   UNL     1      33.704 -15.324 -24.855  0.00  0.00    +0.174 C 
ATOM      7  H   UNL     1      34.575 -15.582 -20.785  0.00  0.00    +0.155 HD
ATOM      8  N   UNL     1      33.404 -15.745 -26.107  0.00  0.00    -0.335 N 
ATOM      9  H   UNL     1      33.360 -16.709 -26.305  0.00  0.00    +0.144 HD
ATOM     10  H   UNL     1      33.231 -15.089 -26.820  0.00  0.00    +0.144 HD
ENDROOT
BRANCH   2  11
ATOM     11  C   UNL     1      34.718 -17.562 -21.252  0.00  0.00    +0.051 C 
ATOM     12  C   UNL     1      33.631 -18.387 -20.985  0.00  0.00    +0.018 C 
ATOM     13  C   UNL     1      36.014 -18.067 -21.226  0.00  0.00    +0.018 C 
ATOM     14  C   UNL     1      35.139 -20.247 -20.660  0.00  0.00    +0.139 C 
ATOM     15  C   UNL     1      33.843 -19.733 -20.687  0.00  0.00    +0.038 C 
ATOM     16  C   UNL     1      36.225 -19.413 -20.930  0.00  0.00    +0.038 C 
BRANCH  14  17
ATOM     17  O   UNL     1      35.346 -21.561 -20.371  0.00  0.00    -0.471 OA
ATOM     18  C   UNL     1      34.954 -22.009 -19.074  0.00  0.00    +0.252 C 
ENDBRANCH  14  17
ENDBRANCH   2  11
BRANCH   4  20
ATOM     19  O   UNL     1      33.283 -12.855 -26.457  0.00  0.00    -0.290 OA
ATOM     20  C   UNL     1      33.597 -12.807 -25.256  0.00  0.00    +0.191 C 
BRANCH  20  21
ATOM     21  C   UNL     1      33.747 -11.492 -24.653  0.00  0.00    +0.036 C 
ATOM     22  C   UNL     1      32.792 -11.029 -23.746  0.00  0.00    +0.006 C 
ATOM     23  C   UNL     1      34.843 -10.695 -24.980  0.00  0.00    +0.006 C 
ATOM     24  C   UNL     1      34.034  -8.971 -23.495  0.00  0.00    +0.139 C 
ATOM     25  C   UNL     1      32.936  -9.768 -23.167  0.00  0.00    +0.037 C 
ATOM     26  C   UNL     1      34.987  -9.435 -24.401  0.00  0.00    +0.037 C 
BRANCH  24  27
ATOM     27  O   UNL     1      34.175  -7.742 -22.928  0.00  0.00    -0.471 OA
ATOM     28  C   UNL     1      33.197  -7.356 -21.962  0.00  0.00    +0.252 C 
ENDBRANCH  24  27
ENDBRANCH  20  21
ENDBRANCH   4  20
TORSDOF 5
ENDMDL
MODEL 8
REMARK VINA RESULT:      -9.5      4.191     10.996
REMARK  Name = 399618
REMARK  5 active torsions:
REMARK  status: ('A' for Active; 'I' for Inactive)
REMARK    1  A    between atoms: N_2  and  C_8
REMARK    2  A    between atoms: C_4  and  C_20
REMARK    3  A    between atoms: C_11  and  O_14
REMARK    4  A    between atoms: C_20  and  C_21
REMARK    5  A    between atoms: C_24  and  O_27
REMARK                            x       y       z     vdW  Elec       q    Type
REMARK                         _______ _______ _______ _____ _____    ______ ____
ROOT
ATOM      1  S   UNL     1      31.573 -10.634 -21.890  0.00  0.00    -0.051 S 
ATOM      2  N   UNL     1      32.143 -12.954 -23.060  0.00  0.00    -0.283 N 
ATOM      3  N   UNL     1      33.448 -11.063 -23.618  0.00  0.00    -0.370 NA
ATOM      4  C   UNL     1      32.572  -9.357 -22.366  0.00  0.00    +0.183 C 
ATOM      5  C   UNL     1      32.471 -11.638 -22.954  0.00  0.00    +0.213 C 
ATOM      6  C   UNL     1      33.499  -9.727 -23.268  0.00  0.00    +0.174 C 
ATOM      7  H   UNL     1      31.323 -13.218 -22.584  0.00  0.00    +0.155 HD
ATOM      8  N   UNL     1      34.429  -8.911 -23.821  0.00  0.00    -0.335 N 
ATOM      9  H   UNL     1      35.071  -9.270 -24.476  0.00  0.00    +0.144 HD
ATOM     10  H   UNL     1      34.463  -7.960 -23.569  0.00  0.00    +0.144 HD
ENDROOT
BRANCH   2  11
ATOM     11  C   UNL     1      32.799 -14.004 -23.751  0.00  0.00    +0.051 C 
ATOM     12  C   UNL     1      33.588 -14.906 -23.046  0.00  0.00    +0.018 C 
ATOM     13  C   UNL     1      32.648 -14.122 -25.129  0.00  0.00    +0.018 C 
ATOM     14  C   UNL     1      34.087 -16.063 -25.107  0.00  0.00    +0.139 C 
ATOM     15  C   UNL     1      34.233 -15.938 -23.726  0.00  0.00    +0.038 C 
ATOM     16  C   UNL     1      33.294 -15.155 -25.809  0.00  0.00    +0.038 C 
BRANCH  14  17
ATOM     17  O   UNL     1      34.716 -17.071 -25.771  0.00  0.00    -0.471 OA
ATOM     18  C   UNL     1      34.616 -18.379 -25.210  0.00  0.00    +0.252 C 
ENDBRANCH  14  17
ENDBRANCH   2  11
BRANCH   4  20
ATOM     19  O   UNL     1      32.547  -7.807 -20.565  0.00  0.00    -0.290 OA
ATOM     20  C   UNL     1      32.332  -8.025 -21.769  0.00  0.00    +0.191 C 
BRANCH  20  21
ATOM     21  C   UNL     1      31.851  -6.915 -22.577  0.00  0.00    +0.036 C 
ATOM     22  C   UNL     1      31.869  -5.619 -22.061  0.00  0.00    +0.006 C 
ATOM     23  C   UNL     1      31.373  -7.146 -23.867  0.00  0.00    +0.006 C 
ATOM     24  C   UNL     1      30.930  -4.786 -24.126  0.00  0.00    +0.139 C 
ATOM     25  C   UNL     1      31.409  -4.554 -22.836  0.00  0.00    +0.037 C 
ATOM     26  C   UNL     1      30.912  -6.082 -24.641  0.00  0.00    +0.037 C 
BRANCH  24  27
ATOM     27  O   UNL     1      30.483  -3.747 -24.882  0.00  0.00    -0.471 OA
ATOM     28  C   UNL     1      31.337  -2.608 -24.991  0.00  0.00    +0.252 C 
ENDBRANCH  24  27
ENDBRANCH  20  21
ENDBRANCH   4  20
TORSDOF 5
ENDMDL
MODEL 9
REMARK VINA RESULT:      -9.4      3.621     10.029
REMARK  Name = 399618
REMARK  5 active torsions:
REMARK  status: ('A' for Active; 'I' for Inactive)
REMARK    1  A    between atoms: N_2  and  C_8
REMARK    2  A    between atoms: C_4  and  C_20
REMARK    3  A    between atoms: C_11  and  O_14
REMARK    4  A    between atoms: C_20  and  C_21
REMARK    5  A    between atoms: C_24  and  O_27
REMARK                            x       y       z     vdW  Elec       q    Type
REMARK                         _______ _______ _______ _____ _____    ______ ____
ROOT
ATOM      1  S   UNL     1      34.090 -20.678 -20.562  0.00  0.00    -0.051 S 
ATOM      2  N   UNL     1      34.880 -21.959 -18.369  0.00  0.00    -0.283 N 
ATOM      3  N   UNL     1      36.462 -20.644 -19.533  0.00  0.00    -0.370 NA
ATOM      4  C   UNL     1      35.306 -19.771 -21.306  0.00  0.00    +0.183 C 
ATOM      5  C   UNL     1      35.252 -21.133 -19.383  0.00  0.00    +0.213 C 
ATOM      6  C   UNL     1      36.485 -19.848 -20.662  0.00  0.00    +0.174 C 
ATOM      7  H   UNL     1      33.971 -22.330 -18.446  0.00  0.00    +0.155 HD
ATOM      8  N   UNL     1      37.628 -19.224 -21.035  0.00  0.00    -0.335 N 
ATOM      9  H   UNL     1      38.448 -19.338 -20.501  0.00  0.00    +0.144 HD
ATOM     10  H   UNL     1      37.640 -18.657 -21.840  0.00  0.00    +0.144 HD
ENDROOT
BRANCH   2  11
ATOM     11  C   UNL     1      35.598 -22.370 -17.216  0.00  0.00    +0.051 C 
ATOM     12  C   UNL     1      34.947 -23.085 -16.217  0.00  0.00    +0.018 C 
ATOM     13  C   UNL     1      36.947 -22.053 -17.096  0.00  0.00    +0.018 C 
ATOM     14  C   UNL     1      37.006 -23.173 -14.957  0.00  0.00    +0.139 C 
ATOM     15  C   UNL     1      35.654 -23.487 -15.084  0.00  0.00    +0.038 C 
ATOM     16  C   UNL     1      37.653 -22.456 -15.964  0.00  0.00    +0.038 C 
BRANCH  14  17
ATOM     17  O   UNL     1      37.696 -23.567 -13.851  0.00  0.00    -0.471 OA
ATOM     18  C   UNL     1      37.132 -23.238 -12.583  0.00  0.00    +0.252 C 
ENDBRANCH  14  17
ENDBRANCH   2  11
BRANCH   4  20
ATOM     19  O   UNL     1      34.827 -19.598 -23.627  0.00  0.00    -0.290 OA
ATOM     20  C   UNL     1      34.963 -19.022 -22.535  0.00  0.00    +0.191 C 
BRANCH  20  21
ATOM     21  C   UNL     1      34.754 -17.583 -22.504  0.00  0.00    +0.036 C 
ATOM     22  C   UNL     1      34.703 -16.861 -23.697  0.00  0.00    +0.006 C 
ATOM     23  C   UNL     1      34.605 -16.925 -21.284  0.00  0.00    +0.006 C 
ATOM     24  C   UNL     1      34.353 -14.823 -22.447  0.00  0.00    +0.139 C 
ATOM     25  C   UNL     1      34.502 -15.481 -23.668  0.00  0.00    +0.037 C 
ATOM     26  C   UNL     1      34.404 -15.545 -21.255  0.00  0.00    +0.037 C 
BRANCH  24  27
ATOM     27  O   UNL     1      34.155 -13.476 -22.419  0.00  0.00    -0.471 OA
ATOM     28  C   UNL     1      33.695 -12.863 -23.623  0.00  0.00    +0.252 C 
ENDBRANCH  24  27
ENDBRANCH  20  21
ENDBRANCH   4  20
TORSDOF 5
ENDMDL
