MODEL 1
REMARK VINA RESULT:     -11.2      0.000      0.000
REMARK  Name = 90753074
REMARK  11 active torsions:
REMARK  status: ('A' for Active; 'I' for Inactive)
REMARK    1  A    between atoms: C_3  and  C_9
REMARK    2  A    between atoms: C_6  and  C_25
REMARK    3  A    between atoms: N_8  and  C_11
REMARK    4  A    between atoms: C_11  and  C_12
REMARK    5  A    between atoms: C_17  and  C_20
REMARK    6  A    between atoms: N_19  and  C_20
REMARK    7  A    between atoms: N_19  and  O_23
REMARK    8  A    between atoms: C_25  and  C_27
REMARK    9  A    between atoms: C_25  and  O_37
REMARK   10  A    between atoms: C_30  and  O_33
REMARK   11  A    between atoms: O_33  and  C_36
REMARK                            x       y       z     vdW  Elec       q    Type
REMARK                         _______ _______ _______ _____ _____    ______ ____
ROOT
ATOM      1  O   UNL     1      35.064 -15.095 -23.669  0.00  0.00    -0.272 OA
ATOM      2  N   UNL     1      33.544 -14.870 -21.959  0.00  0.00    -0.271 N 
ATOM      3  C   UNL     1      34.208 -15.424 -20.785  0.00  0.00    +0.154 C 
ATOM      4  C   UNL     1      32.849 -15.297 -20.075  0.00  0.00    +0.051 C 
ATOM      5  C   UNL     1      32.335 -14.480 -21.263  0.00  0.00    +0.096 C 
ATOM      6  C   UNL     1      33.986 -14.686 -23.240  0.00  0.00    +0.257 C 
ENDROOT
BRANCH   3   9
ATOM      7  O   UNL     1      35.725 -17.263 -20.300  0.00  0.00    -0.273 OA
ATOM      8  N   UNL     1      34.169 -17.545 -21.989  0.00  0.00    -0.299 N 
ATOM      9  C   UNL     1      34.794 -16.825 -20.981  0.00  0.00    +0.241 C 
ATOM     10  H   UNL     1      33.434 -17.118 -22.484  0.00  0.00    +0.150 HD
BRANCH   8  11
ATOM     11  C   UNL     1      34.546 -18.894 -22.348  0.00  0.00    +0.116 C 
BRANCH  11  12
ATOM     12  C   UNL     1      34.275 -19.868 -21.239  0.00  0.00    -0.003 C 
ATOM     13  C   UNL     1      35.322 -20.605 -20.686  0.00  0.00    -0.003 C 
ATOM     14  C   UNL     1      32.975 -20.037 -20.761  0.00  0.00    -0.003 C 
ATOM     15  C   UNL     1      35.070 -21.510 -19.655  0.00  0.00    +0.003 C 
ATOM     16  C   UNL     1      32.723 -20.942 -19.730  0.00  0.00    +0.003 C 
ATOM     17  C   UNL     1      33.771 -21.679 -19.177  0.00  0.00    +0.036 C 
BRANCH  17  19
ATOM     18  N   UNL     1      32.193 -22.830 -17.667  0.00  0.00    -0.381 N 
ATOM     19  C   UNL     1      33.508 -22.621 -18.101  0.00  0.00    +0.160 C 
ATOM     20  H   UNL     1      32.010 -23.467 -16.940  0.00  0.00    +0.157 HD
ATOM     21  H   UNL     1      31.451 -22.339 -18.090  0.00  0.00    +0.157 HD
BRANCH  19  22
ATOM     22  N   UNL     1      34.532 -23.266 -17.563  0.00  0.00    -0.114 NA
BRANCH  22  23
ATOM     23  O   UNL     1      34.710 -22.943 -16.210  0.00  0.00    -0.232 OA
ATOM     24  C   UNL     1      36.104 -22.855 -15.957  0.00  0.00    +0.211 C 
ENDBRANCH  22  23
ENDBRANCH  19  22
ENDBRANCH  17  19
ENDBRANCH  11  12
ENDBRANCH   8  11
ENDBRANCH   3   9
BRANCH   6  25
ATOM     25  C   UNL     1      33.032 -13.923 -24.121  0.00  0.00    +0.210 C 
BRANCH  25  27
ATOM     26 CL   UNL     1      35.762 -10.091 -26.356  0.00  0.00    -0.082 Cl
ATOM     27  C   UNL     1      33.395 -12.466 -24.175  0.00  0.00    +0.017 C 
ATOM     28  C   UNL     1      32.823 -11.570 -23.272  0.00  0.00    +0.036 C 
ATOM     29  C   UNL     1      34.303 -12.008 -25.129  0.00  0.00    +0.010 C 
ATOM     30  C   UNL     1      33.160 -10.218 -23.321  0.00  0.00    +0.145 C 
ATOM     31  C   UNL     1      34.641 -10.655 -25.179  0.00  0.00    +0.060 C 
ATOM     32  C   UNL     1      34.068  -9.760 -24.276  0.00  0.00    +0.048 C 
BRANCH  30  33
ATOM     33  O   UNL     1      32.601  -9.344 -22.440  0.00  0.00    -0.424 OA
BRANCH  33  36
ATOM     34  F   UNL     1      31.501  -7.389 -22.490  0.00  0.00    -0.155 F 
ATOM     35  F   UNL     1      33.587  -7.386 -21.874  0.00  0.00    -0.155 F 
ATOM     36  C   UNL     1      32.710  -7.957 -22.736  0.00  0.00    +0.509 C 
ENDBRANCH  33  36
ENDBRANCH  30  33
ENDBRANCH  25  27
BRANCH  25  37
ATOM     37  O   UNL     1      33.093 -14.504 -25.409  0.00  0.00    -0.372 OA
ATOM     38  H   UNL     1      34.015 -14.717 -25.625  0.00  0.00    +0.211 HD
ENDBRANCH  25  37
ENDBRANCH   6  25
TORSDOF 11
ENDMDL
MODEL 2
REMARK VINA RESULT:     -11.2      2.398      3.375
REMARK  Name = 90753074
REMARK  11 active torsions:
REMARK  status: ('A' for Active; 'I' for Inactive)
REMARK    1  A    between atoms: C_3  and  C_9
REMARK    2  A    between atoms: C_6  and  C_25
REMARK    3  A    between atoms: N_8  and  C_11
REMARK    4  A    between atoms: C_11  and  C_12
REMARK    5  A    between atoms: C_17  and  C_20
REMARK    6  A    between atoms: N_19  and  C_20
REMARK    7  A    between atoms: N_19  and  O_23
REMARK    8  A    between atoms: C_25  and  C_27
REMARK    9  A    between atoms: C_25  and  O_37
REMARK   10  A    between atoms: C_30  and  O_33
REMARK   11  A    between atoms: O_33  and  C_36
REMARK                            x       y       z     vdW  Elec       q    Type
REMARK                         _______ _______ _______ _____ _____    ______ ____
ROOT
ATOM      1  O   UNL     1      34.367 -13.295 -23.104  0.00  0.00    -0.272 OA
ATOM      2  N   UNL     1      33.352 -14.020 -25.036  0.00  0.00    -0.271 N 
ATOM      3  C   UNL     1      33.201 -15.460 -24.867  0.00  0.00    +0.154 C 
ATOM      4  C   UNL     1      32.778 -15.492 -26.346  0.00  0.00    +0.051 C 
ATOM      5  C   UNL     1      32.706 -13.963 -26.331  0.00  0.00    +0.096 C 
ATOM      6  C   UNL     1      33.836 -13.061 -24.189  0.00  0.00    +0.257 C 
ENDROOT
BRANCH   3   9
ATOM      7  O   UNL     1      35.331 -16.560 -25.282  0.00  0.00    -0.273 OA
ATOM      8  N   UNL     1      34.587 -16.406 -23.097  0.00  0.00    -0.299 N 
ATOM      9  C   UNL     1      34.481 -16.198 -24.464  0.00  0.00    +0.241 C 
ATOM     10  H   UNL     1      33.860 -16.085 -22.515  0.00  0.00    +0.150 HD
BRANCH   8  11
ATOM     11  C   UNL     1      35.712 -17.074 -22.483  0.00  0.00    +0.116 C 
BRANCH  11  12
ATOM     12  C   UNL     1      35.288 -18.276 -21.688  0.00  0.00    -0.003 C 
ATOM     13  C   UNL     1      33.934 -18.582 -21.557  0.00  0.00    -0.003 C 
ATOM     14  C   UNL     1      36.249 -19.085 -21.081  0.00  0.00    -0.003 C 
ATOM     15  C   UNL     1      33.540 -19.698 -20.819  0.00  0.00    +0.003 C 
ATOM     16  C   UNL     1      35.855 -20.200 -20.344  0.00  0.00    +0.003 C 
ATOM     17  C   UNL     1      34.499 -20.507 -20.212  0.00  0.00    +0.036 C 
BRANCH  17  19
ATOM     18  N   UNL     1      32.744 -21.832 -19.089  0.00  0.00    -0.381 N 
ATOM     19  C   UNL     1      34.090 -21.671 -19.444  0.00  0.00    +0.160 C 
ATOM     20  H   UNL     1      32.462 -22.618 -18.570  0.00  0.00    +0.157 HD
ATOM     21  H   UNL     1      32.080 -21.157 -19.361  0.00  0.00    +0.157 HD
BRANCH  19  22
ATOM     22  N   UNL     1      35.012 -22.559 -19.103  0.00  0.00    -0.114 NA
BRANCH  22  23
ATOM     23  O   UNL     1      35.059 -22.770 -17.717  0.00  0.00    -0.232 OA
ATOM     24  C   UNL     1      36.250 -22.179 -17.221  0.00  0.00    +0.211 C 
ENDBRANCH  22  23
ENDBRANCH  19  22
ENDBRANCH  17  19
ENDBRANCH  11  12
ENDBRANCH   8  11
ENDBRANCH   3   9
BRANCH   6  25
ATOM     25  C   UNL     1      33.670 -11.651 -24.691  0.00  0.00    +0.210 C 
BRANCH  25  27
ATOM     26 CL   UNL     1      33.139  -6.899 -22.622  0.00  0.00    -0.082 Cl
ATOM     27  C   UNL     1      33.067 -10.769 -23.634  0.00  0.00    +0.017 C 
ATOM     28  C   UNL     1      32.224 -11.316 -22.666  0.00  0.00    +0.036 C 
ATOM     29  C   UNL     1      33.349  -9.404 -23.620  0.00  0.00    +0.010 C 
ATOM     30  C   UNL     1      31.664 -10.498 -21.685  0.00  0.00    +0.145 C 
ATOM     31  C   UNL     1      32.790  -8.585 -22.639  0.00  0.00    +0.060 C 
ATOM     32  C   UNL     1      31.947  -9.132 -21.672  0.00  0.00    +0.048 C 
BRANCH  30  33
ATOM     33  O   UNL     1      30.842 -11.031 -20.741  0.00  0.00    -0.424 OA
BRANCH  33  36
ATOM     34  F   UNL     1      32.121 -12.639 -19.839  0.00  0.00    -0.155 F 
ATOM     35  F   UNL     1      32.363 -10.600 -19.121  0.00  0.00    -0.155 F 
ATOM     36  C   UNL     1      31.442 -11.502 -19.540  0.00  0.00    +0.509 C 
ENDBRANCH  33  36
ENDBRANCH  30  33
ENDBRANCH  25  27
BRANCH  25  37
ATOM     37  O   UNL     1      34.952 -11.184 -25.064  0.00  0.00    -0.372 OA
ATOM     38  H   UNL     1      35.023 -10.237 -24.863  0.00  0.00    +0.211 HD
ENDBRANCH  25  37
ENDBRANCH   6  25
TORSDOF 11
ENDMDL
MODEL 3
REMARK VINA RESULT:     -11.0      2.364      3.284
REMARK  Name = 90753074
REMARK  11 active torsions:
REMARK  status: ('A' for Active; 'I' for Inactive)
REMARK    1  A    between atoms: C_3  and  C_9
REMARK    2  A    between atoms: C_6  and  C_25
REMARK    3  A    between atoms: N_8  and  C_11
REMARK    4  A    between atoms: C_11  and  C_12
REMARK    5  A    between atoms: C_17  and  C_20
REMARK    6  A    between atoms: N_19  and  C_20
REMARK    7  A    between atoms: N_19  and  O_23
REMARK    8  A    between atoms: C_25  and  C_27
REMARK    9  A    between atoms: C_25  and  O_37
REMARK   10  A    between atoms: C_30  and  O_33
REMARK   11  A    between atoms: O_33  and  C_36
REMARK                            x       y       z     vdW  Elec       q    Type
REMARK                         _______ _______ _______ _____ _____    ______ ____
ROOT
ATOM      1  O   UNL     1      34.357 -13.355 -23.070  0.00  0.00    -0.272 OA
ATOM      2  N   UNL     1      33.358 -14.035 -25.026  0.00  0.00    -0.271 N 
ATOM      3  C   UNL     1      33.198 -15.477 -24.889  0.00  0.00    +0.154 C 
ATOM      4  C   UNL     1      32.790 -15.476 -26.373  0.00  0.00    +0.051 C 
ATOM      5  C   UNL     1      32.725 -13.948 -26.326  0.00  0.00    +0.096 C 
ATOM      6  C   UNL     1      33.839 -13.095 -24.155  0.00  0.00    +0.257 C 
ENDROOT
BRANCH   3   9
ATOM      7  O   UNL     1      35.304 -16.619 -25.311  0.00  0.00    -0.273 OA
ATOM      8  N   UNL     1      34.589 -16.417 -23.120  0.00  0.00    -0.299 N 
ATOM      9  C   UNL     1      34.470 -16.230 -24.489  0.00  0.00    +0.241 C 
ATOM     10  H   UNL     1      33.875 -16.074 -22.535  0.00  0.00    +0.150 HD
BRANCH   8  11
ATOM     11  C   UNL     1      35.711 -17.094 -22.508  0.00  0.00    +0.116 C 
BRANCH  11  12
ATOM     12  C   UNL     1      35.278 -18.288 -21.707  0.00  0.00    -0.003 C 
ATOM     13  C   UNL     1      33.922 -18.588 -21.580  0.00  0.00    -0.003 C 
ATOM     14  C   UNL     1      36.233 -19.097 -21.090  0.00  0.00    -0.003 C 
ATOM     15  C   UNL     1      33.520 -19.698 -20.836  0.00  0.00    +0.003 C 
ATOM     16  C   UNL     1      35.831 -20.206 -20.347  0.00  0.00    +0.003 C 
ATOM     17  C   UNL     1      34.474 -20.507 -20.220  0.00  0.00    +0.036 C 
BRANCH  17  19
ATOM     18  N   UNL     1      32.722 -21.780 -19.034  0.00  0.00    -0.381 N 
ATOM     19  C   UNL     1      34.056 -21.664 -19.445  0.00  0.00    +0.160 C 
ATOM     20  H   UNL     1      32.435 -22.562 -18.511  0.00  0.00    +0.157 HD
ATOM     21  H   UNL     1      32.072 -21.079 -19.270  0.00  0.00    +0.157 HD
BRANCH  19  22
ATOM     22  N   UNL     1      34.960 -22.588 -19.154  0.00  0.00    -0.114 NA
BRANCH  22  23
ATOM     23  O   UNL     1      35.089 -22.786 -17.771  0.00  0.00    -0.232 OA
ATOM     24  C   UNL     1      36.277 -22.138 -17.342  0.00  0.00    +0.211 C 
ENDBRANCH  22  23
ENDBRANCH  19  22
ENDBRANCH  17  19
ENDBRANCH  11  12
ENDBRANCH   8  11
ENDBRANCH   3   9
BRANCH   6  25
ATOM     25  C   UNL     1      33.684 -11.675 -24.629  0.00  0.00    +0.210 C 
BRANCH  25  27
ATOM     26 CL   UNL     1      30.491 -11.209 -20.539  0.00  0.00    -0.082 Cl
ATOM     27  C   UNL     1      33.091 -10.809 -23.554  0.00  0.00    +0.017 C 
ATOM     28  C   UNL     1      33.456  -9.466 -23.457  0.00  0.00    +0.036 C 
ATOM     29  C   UNL     1      32.174 -11.347 -22.651  0.00  0.00    +0.010 C 
ATOM     30  C   UNL     1      32.905  -8.662 -22.460  0.00  0.00    +0.145 C 
ATOM     31  C   UNL     1      31.622 -10.544 -21.653  0.00  0.00    +0.060 C 
ATOM     32  C   UNL     1      31.989  -9.201 -21.557  0.00  0.00    +0.048 C 
BRANCH  30  33
ATOM     33  O   UNL     1      33.262  -7.352 -22.366  0.00  0.00    -0.424 OA
BRANCH  33  36
ATOM     34  F   UNL     1      33.454  -6.264 -24.319  0.00  0.00    -0.155 F 
ATOM     35  F   UNL     1      31.491  -6.994 -23.731  0.00  0.00    -0.155 F 
ATOM     36  C   UNL     1      32.630  -6.436 -23.253  0.00  0.00    +0.509 C 
ENDBRANCH  33  36
ENDBRANCH  30  33
ENDBRANCH  25  27
BRANCH  25  37
ATOM     37  O   UNL     1      34.970 -11.212 -24.995  0.00  0.00    -0.372 OA
ATOM     38  H   UNL     1      35.411 -10.832 -24.218  0.00  0.00    +0.211 HD
ENDBRANCH  25  37
ENDBRANCH   6  25
TORSDOF 11
ENDMDL
MODEL 4
REMARK VINA RESULT:     -10.5      3.347      5.159
REMARK  Name = 90753074
REMARK  11 active torsions:
REMARK  status: ('A' for Active; 'I' for Inactive)
REMARK    1  A    between atoms: C_3  and  C_9
REMARK    2  A    between atoms: C_6  and  C_25
REMARK    3  A    between atoms: N_8  and  C_11
REMARK    4  A    between atoms: C_11  and  C_12
REMARK    5  A    between atoms: C_17  and  C_20
REMARK    6  A    between atoms: N_19  and  C_20
REMARK    7  A    between atoms: N_19  and  O_23
REMARK    8  A    between atoms: C_25  and  C_27
REMARK    9  A    between atoms: C_25  and  O_37
REMARK   10  A    between atoms: C_30  and  O_33
REMARK   11  A    between atoms: O_33  and  C_36
REMARK                            x       y       z     vdW  Elec       q    Type
REMARK                         _______ _______ _______ _____ _____    ______ ____
ROOT
ATOM      1  O   UNL     1      32.766 -17.288 -20.995  0.00  0.00    -0.272 OA
ATOM      2  N   UNL     1      34.784 -18.308 -21.417  0.00  0.00    -0.271 N 
ATOM      3  C   UNL     1      34.453 -19.701 -21.695  0.00  0.00    +0.154 C 
ATOM      4  C   UNL     1      35.968 -19.968 -21.651  0.00  0.00    +0.051 C 
ATOM      5  C   UNL     1      36.207 -18.456 -21.637  0.00  0.00    +0.096 C 
ATOM      6  C   UNL     1      33.984 -17.228 -21.158  0.00  0.00    +0.257 C 
ENDROOT
BRANCH   3   9
ATOM      7  O   UNL     1      32.367 -20.123 -20.517  0.00  0.00    -0.273 OA
ATOM      8  N   UNL     1      34.251 -21.292 -19.858  0.00  0.00    -0.299 N 
ATOM      9  C   UNL     1      33.569 -20.374 -20.642  0.00  0.00    +0.241 C 
ATOM     10  H   UNL     1      35.212 -21.430 -20.025  0.00  0.00    +0.150 HD
BRANCH   8  11
ATOM     11  C   UNL     1      33.622 -22.056 -18.804  0.00  0.00    +0.116 C 
BRANCH  11  12
ATOM     12  C   UNL     1      34.594 -22.431 -17.723  0.00  0.00    -0.003 C 
ATOM     13  C   UNL     1      34.176 -23.220 -16.652  0.00  0.00    -0.003 C 
ATOM     14  C   UNL     1      35.916 -21.989 -17.791  0.00  0.00    -0.003 C 
ATOM     15  C   UNL     1      35.080 -23.568 -15.648  0.00  0.00    +0.003 C 
ATOM     16  C   UNL     1      36.819 -22.337 -16.787  0.00  0.00    +0.003 C 
ATOM     17  C   UNL     1      36.401 -23.127 -15.715  0.00  0.00    +0.036 C 
BRANCH  17  19
ATOM     18  N   UNL     1      37.009 -23.276 -13.327  0.00  0.00    -0.381 N 
ATOM     19  C   UNL     1      37.344 -23.491 -14.670  0.00  0.00    +0.160 C 
ATOM     20  H   UNL     1      37.644 -23.521 -12.616  0.00  0.00    +0.157 HD
ATOM     21  H   UNL     1      36.138 -22.880 -13.094  0.00  0.00    +0.157 HD
BRANCH  19  22
ATOM     22  N   UNL     1      38.503 -24.026 -15.024  0.00  0.00    -0.114 NA
BRANCH  22  23
ATOM     23  O   UNL     1      39.229 -24.497 -13.921  0.00  0.00    -0.232 OA
ATOM     24  C   UNL     1      40.165 -25.458 -14.386  0.00  0.00    +0.211 C 
ENDBRANCH  22  23
ENDBRANCH  19  22
ENDBRANCH  17  19
ENDBRANCH  11  12
ENDBRANCH   8  11
ENDBRANCH   3   9
BRANCH   6  25
ATOM     25  C   UNL     1      34.721 -15.917 -21.083  0.00  0.00    +0.210 C 
BRANCH  25  27
ATOM     26 CL   UNL     1      31.275 -12.024 -20.752  0.00  0.00    -0.082 Cl
ATOM     27  C   UNL     1      33.947 -14.824 -21.764  0.00  0.00    +0.017 C 
ATOM     28  C   UNL     1      34.103 -14.607 -23.134  0.00  0.00    +0.036 C 
ATOM     29  C   UNL     1      33.073 -14.024 -21.028  0.00  0.00    +0.010 C 
ATOM     30  C   UNL     1      33.385 -13.593 -23.766  0.00  0.00    +0.145 C 
ATOM     31  C   UNL     1      32.354 -13.009 -21.661  0.00  0.00    +0.060 C 
ATOM     32  C   UNL     1      32.511 -12.793 -23.030  0.00  0.00    +0.048 C 
BRANCH  30  33
ATOM     33  O   UNL     1      33.538 -13.382 -25.102  0.00  0.00    -0.424 OA
BRANCH  33  36
ATOM     34  F   UNL     1      32.977 -13.768 -27.240  0.00  0.00    -0.155 F 
ATOM     35  F   UNL     1      33.547 -15.461 -25.998  0.00  0.00    -0.155 F 
ATOM     36  C   UNL     1      32.880 -14.281 -25.986  0.00  0.00    +0.509 C 
ENDBRANCH  33  36
ENDBRANCH  30  33
ENDBRANCH  25  27
BRANCH  25  37
ATOM     37  O   UNL     1      34.911 -15.619 -19.713  0.00  0.00    -0.372 OA
ATOM     38  H   UNL     1      34.489 -16.304 -19.171  0.00  0.00    +0.211 HD
ENDBRANCH  25  37
ENDBRANCH   6  25
TORSDOF 11
ENDMDL
MODEL 5
REMARK VINA RESULT:     -10.3      2.680      4.770
REMARK  Name = 90753074
REMARK  11 active torsions:
REMARK  status: ('A' for Active; 'I' for Inactive)
REMARK    1  A    between atoms: C_3  and  C_9
REMARK    2  A    between atoms: C_6  and  C_25
REMARK    3  A    between atoms: N_8  and  C_11
REMARK    4  A    between atoms: C_11  and  C_12
REMARK    5  A    between atoms: C_17  and  C_20
REMARK    6  A    between atoms: N_19  and  C_20
REMARK    7  A    between atoms: N_19  and  O_23
REMARK    8  A    between atoms: C_25  and  C_27
REMARK    9  A    between atoms: C_25  and  O_37
REMARK   10  A    between atoms: C_30  and  O_33
REMARK   11  A    between atoms: O_33  and  C_36
REMARK                            x       y       z     vdW  Elec       q    Type
REMARK                         _______ _______ _______ _____ _____    ______ ____
ROOT
ATOM      1  O   UNL     1      32.928 -17.855 -21.139  0.00  0.00    -0.272 OA
ATOM      2  N   UNL     1      35.017 -18.811 -21.019  0.00  0.00    -0.271 N 
ATOM      3  C   UNL     1      34.779 -20.248 -21.080  0.00  0.00    +0.154 C 
ATOM      4  C   UNL     1      36.271 -20.410 -20.736  0.00  0.00    +0.051 C 
ATOM      5  C   UNL     1      36.461 -18.910 -20.968  0.00  0.00    +0.096 C 
ATOM      6  C   UNL     1      34.154 -17.752 -21.105  0.00  0.00    +0.257 C 
ENDROOT
BRANCH   3   9
ATOM      7  O   UNL     1      32.586 -20.348 -20.032  0.00  0.00    -0.273 OA
ATOM      8  N   UNL     1      34.239 -21.764 -19.247  0.00  0.00    -0.299 N 
ATOM      9  C   UNL     1      33.745 -20.771 -20.079  0.00  0.00    +0.241 C 
ATOM     10  H   UNL     1      35.178 -22.041 -19.353  0.00  0.00    +0.150 HD
BRANCH   8  11
ATOM     11  C   UNL     1      33.443 -22.413 -18.230  0.00  0.00    +0.116 C 
BRANCH  11  12
ATOM     12  C   UNL     1      34.281 -22.890 -17.079  0.00  0.00    -0.003 C 
ATOM     13  C   UNL     1      35.630 -22.541 -17.008  0.00  0.00    -0.003 C 
ATOM     14  C   UNL     1      33.712 -23.683 -16.082  0.00  0.00    -0.003 C 
ATOM     15  C   UNL     1      36.409 -22.984 -15.938  0.00  0.00    +0.003 C 
ATOM     16  C   UNL     1      34.491 -24.125 -15.014  0.00  0.00    +0.003 C 
ATOM     17  C   UNL     1      35.840 -23.776 -14.941  0.00  0.00    +0.036 C 
BRANCH  17  19
ATOM     18  N   UNL     1      36.160 -25.236 -12.976  0.00  0.00    -0.381 N 
ATOM     19  C   UNL     1      36.651 -24.236 -13.827  0.00  0.00    +0.160 C 
ATOM     20  H   UNL     1      36.705 -25.551 -12.221  0.00  0.00    +0.157 HD
ATOM     21  H   UNL     1      35.268 -25.622 -13.135  0.00  0.00    +0.157 HD
BRANCH  19  22
ATOM     22  N   UNL     1      37.847 -23.695 -13.650  0.00  0.00    -0.114 NA
BRANCH  22  23
ATOM     23  O   UNL     1      38.842 -24.662 -13.448  0.00  0.00    -0.232 OA
ATOM     24  C   UNL     1      39.299 -25.097 -14.720  0.00  0.00    +0.211 C 
ENDBRANCH  22  23
ENDBRANCH  19  22
ENDBRANCH  17  19
ENDBRANCH  11  12
ENDBRANCH   8  11
ENDBRANCH   3   9
BRANCH   6  25
ATOM     25  C   UNL     1      34.828 -16.407 -21.160  0.00  0.00    +0.210 C 
BRANCH  25  27
ATOM     26 CL   UNL     1      33.244 -14.612 -25.787  0.00  0.00    -0.082 Cl
ATOM     27  C   UNL     1      34.007 -15.422 -21.944  0.00  0.00    +0.017 C 
ATOM     28  C   UNL     1      33.244 -14.462 -21.279  0.00  0.00    +0.036 C 
ATOM     29  C   UNL     1      34.006 -15.469 -23.338  0.00  0.00    +0.010 C 
ATOM     30  C   UNL     1      32.482 -13.549 -22.007  0.00  0.00    +0.145 C 
ATOM     31  C   UNL     1      33.245 -14.555 -24.066  0.00  0.00    +0.060 C 
ATOM     32  C   UNL     1      32.482 -13.596 -23.400  0.00  0.00    +0.048 C 
BRANCH  30  33
ATOM     33  O   UNL     1      31.738 -12.613 -21.357  0.00  0.00    -0.424 OA
BRANCH  33  36
ATOM     34  F   UNL     1      30.479 -11.030 -22.329  0.00  0.00    -0.155 F 
ATOM     35  F   UNL     1      31.989 -10.411 -20.891  0.00  0.00    -0.155 F 
ATOM     36  C   UNL     1      31.737 -11.293 -21.889  0.00  0.00    +0.509 C 
ENDBRANCH  33  36
ENDBRANCH  30  33
ENDBRANCH  25  27
BRANCH  25  37
ATOM     37  O   UNL     1      35.000 -15.968 -19.826  0.00  0.00    -0.372 OA
ATOM     38  H   UNL     1      35.458 -15.113 -19.822  0.00  0.00    +0.211 HD
ENDBRANCH  25  37
ENDBRANCH   6  25
TORSDOF 11
ENDMDL
MODEL 6
REMARK VINA RESULT:     -10.2      6.025     11.679
REMARK  Name = 90753074
REMARK  11 active torsions:
REMARK  status: ('A' for Active; 'I' for Inactive)
REMARK    1  A    between atoms: C_3  and  C_9
REMARK    2  A    between atoms: C_6  and  C_25
REMARK    3  A    between atoms: N_8  and  C_11
REMARK    4  A    between atoms: C_11  and  C_12
REMARK    5  A    between atoms: C_17  and  C_20
REMARK    6  A    between atoms: N_19  and  C_20
REMARK    7  A    between atoms: N_19  and  O_23
REMARK    8  A    between atoms: C_25  and  C_27
REMARK    9  A    between atoms: C_25  and  O_37
REMARK   10  A    between atoms: C_30  and  O_33
REMARK   11  A    between atoms: O_33  and  C_36
REMARK                            x       y       z     vdW  Elec       q    Type
REMARK                         _______ _______ _______ _____ _____    ______ ____
ROOT
ATOM      1  O   UNL     1      32.931 -21.420 -19.772  0.00  0.00    -0.272 OA
ATOM      2  N   UNL     1      35.201 -21.050 -19.771  0.00  0.00    -0.271 N 
ATOM      3  C   UNL     1      35.363 -19.691 -20.273  0.00  0.00    +0.154 C 
ATOM      4  C   UNL     1      36.871 -19.994 -20.325  0.00  0.00    +0.051 C 
ATOM      5  C   UNL     1      36.612 -21.284 -19.544  0.00  0.00    +0.096 C 
ATOM      6  C   UNL     1      34.076 -21.783 -19.504  0.00  0.00    +0.257 C 
ENDROOT
BRANCH   3   9
ATOM      7  O   UNL     1      33.440 -19.647 -21.763  0.00  0.00    -0.273 OA
ATOM      8  N   UNL     1      35.456 -18.832 -22.554  0.00  0.00    -0.299 N 
ATOM      9  C   UNL     1      34.637 -19.402 -21.590  0.00  0.00    +0.241 C 
ATOM     10  H   UNL     1      36.401 -18.671 -22.331  0.00  0.00    +0.150 HD
BRANCH   8  11
ATOM     11  C   UNL     1      34.989 -18.464 -23.872  0.00  0.00    +0.116 C 
BRANCH  11  12
ATOM     12  C   UNL     1      34.600 -17.016 -23.947  0.00  0.00    -0.003 C 
ATOM     13  C   UNL     1      34.854 -16.169 -22.868  0.00  0.00    -0.003 C 
ATOM     14  C   UNL     1      33.983 -16.517 -25.095  0.00  0.00    -0.003 C 
ATOM     15  C   UNL     1      34.494 -14.824 -22.938  0.00  0.00    +0.003 C 
ATOM     16  C   UNL     1      33.623 -15.173 -25.164  0.00  0.00    +0.003 C 
ATOM     17  C   UNL     1      33.878 -14.325 -24.085  0.00  0.00    +0.036 C 
BRANCH  17  19
ATOM     18  N   UNL     1      32.810 -12.331 -23.093  0.00  0.00    -0.381 N 
ATOM     19  C   UNL     1      33.502 -12.923 -24.159  0.00  0.00    +0.160 C 
ATOM     20  H   UNL     1      32.555 -11.382 -23.139  0.00  0.00    +0.157 HD
ATOM     21  H   UNL     1      32.581 -12.866 -22.299  0.00  0.00    +0.157 HD
BRANCH  19  22
ATOM     22  N   UNL     1      33.835 -12.236 -25.242  0.00  0.00    -0.114 NA
BRANCH  22  23
ATOM     23  O   UNL     1      33.993 -10.869 -24.975  0.00  0.00    -0.232 OA
ATOM     24  C   UNL     1      35.210 -10.442 -25.569  0.00  0.00    +0.211 C 
ENDBRANCH  22  23
ENDBRANCH  19  22
ENDBRANCH  17  19
ENDBRANCH  11  12
ENDBRANCH   8  11
ENDBRANCH   3   9
BRANCH   6  25
ATOM     25  C   UNL     1      34.343 -23.106 -18.837  0.00  0.00    +0.210 C 
BRANCH  25  27
ATOM     26 CL   UNL     1      34.958 -23.520 -13.681  0.00  0.00    -0.082 Cl
ATOM     27  C   UNL     1      33.724 -23.155 -17.469  0.00  0.00    +0.017 C 
ATOM     28  C   UNL     1      32.340 -23.057 -17.325  0.00  0.00    +0.036 C 
ATOM     29  C   UNL     1      34.533 -23.297 -16.342  0.00  0.00    +0.010 C 
ATOM     30  C   UNL     1      31.766 -23.104 -16.055  0.00  0.00    +0.145 C 
ATOM     31  C   UNL     1      33.959 -23.344 -15.071  0.00  0.00    +0.060 C 
ATOM     32  C   UNL     1      32.575 -23.246 -14.928  0.00  0.00    +0.048 C 
BRANCH  30  33
ATOM     33  O   UNL     1      30.415 -23.008 -15.914  0.00  0.00    -0.424 OA
BRANCH  33  36
ATOM     34  F   UNL     1      28.401 -23.884 -15.456  0.00  0.00    -0.155 F 
ATOM     35  F   UNL     1      29.981 -25.220 -16.126  0.00  0.00    -0.155 F 
ATOM     36  C   UNL     1      29.734 -24.128 -15.362  0.00  0.00    +0.509 C 
ENDBRANCH  33  36
ENDBRANCH  30  33
ENDBRANCH  25  27
BRANCH  25  37
ATOM     37  O   UNL     1      33.802 -24.113 -19.670  0.00  0.00    -0.372 OA
ATOM     38  H   UNL     1      33.515 -23.720 -20.509  0.00  0.00    +0.211 HD
ENDBRANCH  25  37
ENDBRANCH   6  25
TORSDOF 11
ENDMDL
MODEL 7
REMARK VINA RESULT:     -10.2      1.652      2.183
REMARK  Name = 90753074
REMARK  11 active torsions:
REMARK  status: ('A' for Active; 'I' for Inactive)
REMARK    1  A    between atoms: C_3  and  C_9
REMARK    2  A    between atoms: C_6  and  C_25
REMARK    3  A    between atoms: N_8  and  C_11
REMARK    4  A    between atoms: C_11  and  C_12
REMARK    5  A    between atoms: C_17  and  C_20
REMARK    6  A    between atoms: N_19  and  C_20
REMARK    7  A    between atoms: N_19  and  O_23
REMARK    8  A    between atoms: C_25  and  C_27
REMARK    9  A    between atoms: C_25  and  O_37
REMARK   10  A    between atoms: C_30  and  O_33
REMARK   11  A    between atoms: O_33  and  C_36
REMARK                            x       y       z     vdW  Elec       q    Type
REMARK                         _______ _______ _______ _____ _____    ______ ____
ROOT
ATOM      1  O   UNL     1      34.750 -15.348 -24.424  0.00  0.00    -0.272 OA
ATOM      2  N   UNL     1      33.751 -15.321 -22.352  0.00  0.00    -0.271 N 
ATOM      3  C   UNL     1      34.692 -16.000 -21.469  0.00  0.00    +0.154 C 
ATOM      4  C   UNL     1      33.577 -15.959 -20.409  0.00  0.00    +0.051 C 
ATOM      5  C   UNL     1      32.785 -15.016 -21.318  0.00  0.00    +0.096 C 
ATOM      6  C   UNL     1      33.837 -14.994 -23.678  0.00  0.00    +0.257 C 
ENDROOT
BRANCH   3   9
ATOM      7  O   UNL     1      35.900 -17.505 -22.951  0.00  0.00    -0.273 OA
ATOM      8  N   UNL     1      34.700 -18.424 -21.199  0.00  0.00    -0.299 N 
ATOM      9  C   UNL     1      35.167 -17.368 -21.967  0.00  0.00    +0.241 C 
ATOM     10  H   UNL     1      34.118 -18.224 -20.430  0.00  0.00    +0.150 HD
BRANCH   8  11
ATOM     11  C   UNL     1      35.024 -19.806 -21.472  0.00  0.00    +0.116 C 
BRANCH  11  12
ATOM     12  C   UNL     1      34.738 -20.694 -20.296  0.00  0.00    -0.003 C 
ATOM     13  C   UNL     1      33.421 -21.018 -19.971  0.00  0.00    -0.003 C 
ATOM     14  C   UNL     1      35.789 -21.193 -19.526  0.00  0.00    -0.003 C 
ATOM     15  C   UNL     1      33.155 -21.843 -18.878  0.00  0.00    +0.003 C 
ATOM     16  C   UNL     1      35.523 -22.017 -18.434  0.00  0.00    +0.003 C 
ATOM     17  C   UNL     1      34.205 -22.343 -18.109  0.00  0.00    +0.036 C 
BRANCH  17  19
ATOM     18  N   UNL     1      34.941 -23.469 -16.039  0.00  0.00    -0.381 N 
ATOM     19  C   UNL     1      33.929 -23.203 -16.970  0.00  0.00    +0.160 C 
ATOM     20  H   UNL     1      34.758 -24.050 -15.266  0.00  0.00    +0.157 HD
ATOM     21  H   UNL     1      35.835 -23.074 -16.157  0.00  0.00    +0.157 HD
BRANCH  19  22
ATOM     22  N   UNL     1      32.712 -23.710 -16.844  0.00  0.00    -0.114 NA
BRANCH  22  23
ATOM     23  O   UNL     1      32.099 -23.325 -15.643  0.00  0.00    -0.232 OA
ATOM     24  C   UNL     1      30.716 -23.129 -15.897  0.00  0.00    +0.211 C 
ENDBRANCH  22  23
ENDBRANCH  19  22
ENDBRANCH  17  19
ENDBRANCH  11  12
ENDBRANCH   8  11
ENDBRANCH   3   9
BRANCH   6  25
ATOM     25  C   UNL     1      32.701 -14.142 -24.181  0.00  0.00    +0.210 C 
BRANCH  25  27
ATOM     26 CL   UNL     1      35.355  -9.871 -25.543  0.00  0.00    -0.082 Cl
ATOM     27  C   UNL     1      32.986 -12.682 -23.965  0.00  0.00    +0.017 C 
ATOM     28  C   UNL     1      32.307 -11.978 -22.970  0.00  0.00    +0.036 C 
ATOM     29  C   UNL     1      33.927 -12.030 -24.761  0.00  0.00    +0.010 C 
ATOM     30  C   UNL     1      32.572 -10.623 -22.770  0.00  0.00    +0.145 C 
ATOM     31  C   UNL     1      34.192 -10.675 -24.561  0.00  0.00    +0.060 C 
ATOM     32  C   UNL     1      33.513  -9.971 -23.566  0.00  0.00    +0.048 C 
BRANCH  30  33
ATOM     33  O   UNL     1      31.909  -9.936 -21.800  0.00  0.00    -0.424 OA
BRANCH  33  36
ATOM     34  F   UNL     1      31.348  -9.763 -19.634  0.00  0.00    -0.155 F 
ATOM     35  F   UNL     1      30.300 -11.222 -20.860  0.00  0.00    -0.155 F 
ATOM     36  C   UNL     1      31.513 -10.660 -20.640  0.00  0.00    +0.509 C 
ENDBRANCH  33  36
ENDBRANCH  30  33
ENDBRANCH  25  27
BRANCH  25  37
ATOM     37  O   UNL     1      32.541 -14.425 -25.557  0.00  0.00    -0.372 OA
ATOM     38  H   UNL     1      31.769 -14.999 -25.682  0.00  0.00    +0.211 HD
ENDBRANCH  25  37
ENDBRANCH   6  25
TORSDOF 11
ENDMDL
MODEL 8
REMARK VINA RESULT:     -10.1      1.789      2.234
REMARK  Name = 90753074
REMARK  11 active torsions:
REMARK  status: ('A' for Active; 'I' for Inactive)
REMARK    1  A    between atoms: C_3  and  C_9
REMARK    2  A    between atoms: C_6  and  C_25
REMARK    3  A    between atoms: N_8  and  C_11
REMARK    4  A    between atoms: C_11  and  C_12
REMARK    5  A    between atoms: C_17  and  C_20
REMARK    6  A    between atoms: N_19  and  C_20
REMARK    7  A    between atoms: N_19  and  O_23
REMARK    8  A    between atoms: C_25  and  C_27
REMARK    9  A    between atoms: C_25  and  O_37
REMARK   10  A    between atoms: C_30  and  O_33
REMARK   11  A    between atoms: O_33  and  C_36
REMARK                            x       y       z     vdW  Elec       q    Type
REMARK                         _______ _______ _______ _____ _____    ______ ____
ROOT
ATOM      1  O   UNL     1      34.990 -14.944 -23.944  0.00  0.00    -0.272 OA
ATOM      2  N   UNL     1      33.533 -15.054 -22.169  0.00  0.00    -0.271 N 
ATOM      3  C   UNL     1      34.265 -15.754 -21.120  0.00  0.00    +0.154 C 
ATOM      4  C   UNL     1      32.932 -15.798 -20.353  0.00  0.00    +0.051 C 
ATOM      5  C   UNL     1      32.339 -14.830 -21.379  0.00  0.00    +0.096 C 
ATOM      6  C   UNL     1      33.915 -14.655 -23.420  0.00  0.00    +0.257 C 
ENDROOT
BRANCH   3   9
ATOM      7  O   UNL     1      36.080 -17.182 -21.887  0.00  0.00    -0.273 OA
ATOM      8  N   UNL     1      34.008 -18.145 -21.522  0.00  0.00    -0.299 N 
ATOM      9  C   UNL     1      34.896 -17.080 -21.553  0.00  0.00    +0.241 C 
ATOM     10  H   UNL     1      33.079 -17.975 -21.244  0.00  0.00    +0.150 HD
BRANCH   8  11
ATOM     11  C   UNL     1      34.379 -19.496 -21.881  0.00  0.00    +0.116 C 
BRANCH  11  12
ATOM     12  C   UNL     1      34.389 -20.411 -20.690  0.00  0.00    -0.003 C 
ATOM     13  C   UNL     1      33.186 -20.832 -20.125  0.00  0.00    -0.003 C 
ATOM     14  C   UNL     1      35.602 -20.839 -20.149  0.00  0.00    -0.003 C 
ATOM     15  C   UNL     1      33.195 -21.682 -19.019  0.00  0.00    +0.003 C 
ATOM     16  C   UNL     1      35.610 -21.688 -19.044  0.00  0.00    +0.003 C 
ATOM     17  C   UNL     1      34.406 -22.110 -18.478  0.00  0.00    +0.036 C 
BRANCH  17  19
ATOM     18  N   UNL     1      33.223 -23.587 -16.893  0.00  0.00    -0.381 N 
ATOM     19  C   UNL     1      34.417 -22.997 -17.326  0.00  0.00    +0.160 C 
ATOM     20  H   UNL     1      33.225 -24.189 -16.114  0.00  0.00    +0.157 HD
ATOM     21  H   UNL     1      32.381 -23.401 -17.368  0.00  0.00    +0.157 HD
BRANCH  19  22
ATOM     22  N   UNL     1      35.571 -23.227 -16.717  0.00  0.00    -0.114 NA
BRANCH  22  23
ATOM     23  O   UNL     1      35.395 -23.667 -15.398  0.00  0.00    -0.232 OA
ATOM     24  C   UNL     1      36.615 -24.250 -14.962  0.00  0.00    +0.211 C 
ENDBRANCH  22  23
ENDBRANCH  19  22
ENDBRANCH  17  19
ENDBRANCH  11  12
ENDBRANCH   8  11
ENDBRANCH   3   9
BRANCH   6  25
ATOM     25  C   UNL     1      32.897 -13.807 -24.138  0.00  0.00    +0.210 C 
BRANCH  25  27
ATOM     26 CL   UNL     1      31.111 -10.209 -20.821  0.00  0.00    -0.082 Cl
ATOM     27  C   UNL     1      32.928 -12.390 -23.640  0.00  0.00    +0.017 C 
ATOM     28  C   UNL     1      33.783 -11.460 -24.232  0.00  0.00    +0.036 C 
ATOM     29  C   UNL     1      32.102 -12.003 -22.585  0.00  0.00    +0.010 C 
ATOM     30  C   UNL     1      33.812 -10.145 -23.771  0.00  0.00    +0.145 C 
ATOM     31  C   UNL     1      32.130 -10.686 -22.123  0.00  0.00    +0.060 C 
ATOM     32  C   UNL     1      32.986  -9.758 -22.715  0.00  0.00    +0.048 C 
BRANCH  30  33
ATOM     33  O   UNL     1      34.646  -9.238 -24.349  0.00  0.00    -0.424 OA
BRANCH  33  36
ATOM     34  F   UNL     1      35.356  -7.486 -23.140  0.00  0.00    -0.155 F 
ATOM     35  F   UNL     1      34.656  -7.127 -25.168  0.00  0.00    -0.155 F 
ATOM     36  C   UNL     1      34.425  -7.864 -24.054  0.00  0.00    +0.509 C 
ENDBRANCH  33  36
ENDBRANCH  30  33
ENDBRANCH  25  27
BRANCH  25  37
ATOM     37  O   UNL     1      33.202 -13.863 -25.518  0.00  0.00    -0.372 OA
ATOM     38  H   UNL     1      33.501 -12.990 -25.819  0.00  0.00    +0.211 HD
ENDBRANCH  25  37
ENDBRANCH   6  25
TORSDOF 11
ENDMDL
MODEL 9
REMARK VINA RESULT:     -10.0      6.132     11.775
REMARK  Name = 90753074
REMARK  11 active torsions:
REMARK  status: ('A' for Active; 'I' for Inactive)
REMARK    1  A    between atoms: C_3  and  C_9
REMARK    2  A    between atoms: C_6  and  C_25
REMARK    3  A    between atoms: N_8  and  C_11
REMARK    4  A    between atoms: C_11  and  C_12
REMARK    5  A    between atoms: C_17  and  C_20
REMARK    6  A    between atoms: N_19  and  C_20
REMARK    7  A    between atoms: N_19  and  O_23
REMARK    8  A    between atoms: C_25  and  C_27
REMARK    9  A    between atoms: C_25  and  O_37
REMARK   10  A    between atoms: C_30  and  O_33
REMARK   11  A    between atoms: O_33  and  C_36
REMARK                            x       y       z     vdW  Elec       q    Type
REMARK                         _______ _______ _______ _____ _____    ______ ____
ROOT
ATOM      1  O   UNL     1      33.031 -21.201 -19.700  0.00  0.00    -0.272 OA
ATOM      2  N   UNL     1      35.310 -20.931 -19.838  0.00  0.00    -0.271 N 
ATOM      3  C   UNL     1      35.503 -19.562 -20.301  0.00  0.00    +0.154 C 
ATOM      4  C   UNL     1      36.988 -19.929 -20.465  0.00  0.00    +0.051 C 
ATOM      5  C   UNL     1      36.721 -21.236 -19.715  0.00  0.00    +0.096 C 
ATOM      6  C   UNL     1      34.173 -21.623 -19.523  0.00  0.00    +0.257 C 
ENDROOT
BRANCH   3   9
ATOM      7  O   UNL     1      33.498 -19.416 -21.672  0.00  0.00    -0.273 OA
ATOM      8  N   UNL     1      35.475 -18.570 -22.529  0.00  0.00    -0.299 N 
ATOM      9  C   UNL     1      34.706 -19.190 -21.555  0.00  0.00    +0.241 C 
ATOM     10  H   UNL     1      36.433 -18.430 -22.352  0.00  0.00    +0.150 HD
BRANCH   8  11
ATOM     11  C   UNL     1      34.937 -18.122 -23.794  0.00  0.00    +0.116 C 
BRANCH  11  12
ATOM     12  C   UNL     1      34.559 -16.669 -23.761  0.00  0.00    -0.003 C 
ATOM     13  C   UNL     1      34.850 -15.899 -22.636  0.00  0.00    -0.003 C 
ATOM     14  C   UNL     1      33.914 -16.091 -24.855  0.00  0.00    -0.003 C 
ATOM     15  C   UNL     1      34.498 -14.549 -22.605  0.00  0.00    +0.003 C 
ATOM     16  C   UNL     1      33.563 -14.743 -24.824  0.00  0.00    +0.003 C 
ATOM     17  C   UNL     1      33.855 -13.971 -23.698  0.00  0.00    +0.036 C 
BRANCH  17  19
ATOM     18  N   UNL     1      34.250 -11.632 -24.384  0.00  0.00    -0.381 N 
ATOM     19  C   UNL     1      33.489 -12.564 -23.667  0.00  0.00    +0.160 C 
ATOM     20  H   UNL     1      34.006 -10.679 -24.366  0.00  0.00    +0.157 HD
ATOM     21  H   UNL     1      35.030 -11.931 -24.906  0.00  0.00    +0.157 HD
BRANCH  19  22
ATOM     22  N   UNL     1      32.430 -12.204 -22.958  0.00  0.00    -0.114 NA
BRANCH  22  23
ATOM     23  O   UNL     1      32.286 -10.810 -22.890  0.00  0.00    -0.232 OA
ATOM     24  C   UNL     1      31.515 -10.501 -21.738  0.00  0.00    +0.211 C 
ENDBRANCH  22  23
ENDBRANCH  19  22
ENDBRANCH  17  19
ENDBRANCH  11  12
ENDBRANCH   8  11
ENDBRANCH   3   9
BRANCH   6  25
ATOM     25  C   UNL     1      34.421 -22.982 -18.923  0.00  0.00    +0.210 C 
BRANCH  25  27
ATOM     26 CL   UNL     1      30.251 -23.183 -15.807  0.00  0.00    -0.082 Cl
ATOM     27  C   UNL     1      33.859 -23.069 -17.532  0.00  0.00    +0.017 C 
ATOM     28  C   UNL     1      34.718 -23.135 -16.435  0.00  0.00    +0.036 C 
ATOM     29  C   UNL     1      32.478 -23.084 -17.338  0.00  0.00    +0.010 C 
ATOM     30  C   UNL     1      34.196 -23.215 -15.144  0.00  0.00    +0.145 C 
ATOM     31  C   UNL     1      31.956 -23.164 -16.046  0.00  0.00    +0.060 C 
ATOM     32  C   UNL     1      32.815 -23.231 -14.950  0.00  0.00    +0.048 C 
BRANCH  30  33
ATOM     33  O   UNL     1      35.034 -23.281 -14.074  0.00  0.00    -0.424 OA
BRANCH  33  36
ATOM     34  F   UNL     1      35.895 -24.785 -12.650  0.00  0.00    -0.155 F 
ATOM     35  F   UNL     1      35.284 -25.463 -14.624  0.00  0.00    -0.155 F 
ATOM     36  C   UNL     1      35.862 -24.432 -13.960  0.00  0.00    +0.509 C 
ENDBRANCH  33  36
ENDBRANCH  30  33
ENDBRANCH  25  27
BRANCH  25  37
ATOM     37  O   UNL     1      33.810 -23.934 -19.772  0.00  0.00    -0.372 OA
ATOM     38  H   UNL     1      33.378 -23.478 -20.512  0.00  0.00    +0.211 HD
ENDBRANCH  25  37
ENDBRANCH   6  25
TORSDOF 11
ENDMDL
