MODEL 1
REMARK VINA RESULT:      -5.4      0.000      0.000
REMARK  Name = 636398
REMARK  10 active torsions:
REMARK  status: ('A' for Active; 'I' for Inactive)
REMARK    1  A    between atoms: C_6  and  C_24
REMARK    2  A    between atoms: C_6  and  O_31
REMARK    3  A    between atoms: C_9  and  O_21
REMARK    4  A    between atoms: C_24  and  C_25
REMARK    5  A    between atoms: C_25  and  O_26
REMARK    6  A    between atoms: O_26  and  C_28
REMARK    7  A    between atoms: C_28  and  C_29
REMARK    8  A    between atoms: O_31  and  C_33
REMARK    9  A    between atoms: C_33  and  C_34
REMARK   10  A    between atoms: C_34  and  C_35
REMARK                            x       y       z     vdW  Elec       q    Type
REMARK                         _______ _______ _______ _____ _____    ______ ____
ROOT
ATOM      1  O   UNL     1      33.566 -23.626 -12.942  0.00  0.00    -0.291 OA
ATOM      2  C   UNL     1      35.225 -20.290 -20.525  0.00  0.00    +0.043 C 
ATOM      3  C   UNL     1      33.850 -20.451 -19.842  0.00  0.00    +0.004 C 
ATOM      4  C   UNL     1      33.717 -21.747 -19.027  0.00  0.00    +0.003 C 
ATOM      5  C   UNL     1      34.811 -21.754 -17.911  0.00  0.00    +0.030 C 
ATOM      6  C   UNL     1      34.978 -18.956 -21.285  0.00  0.00    +0.190 C 
ATOM      7  C   UNL     1      36.292 -20.246 -19.412  0.00  0.00    +0.033 C 
ATOM      8  C   UNL     1      34.694 -23.000 -16.940  0.00  0.00    +0.018 C 
ATOM      9  C   UNL     1      36.239 -21.472 -18.474  0.00  0.00    +0.111 C 
ATOM     10  C   UNL     1      32.859 -20.187 -20.973  0.00  0.00    +0.004 C 
ATOM     11  C   UNL     1      33.532 -19.085 -21.817  0.00  0.00    +0.048 C 
ATOM     12  C   UNL     1      32.316 -21.843 -18.403  0.00  0.00    +0.004 C 
ATOM     13  C   UNL     1      35.540 -21.418 -21.546  0.00  0.00    +0.004 C 
ATOM     14  C   UNL     1      33.244 -23.125 -16.454  0.00  0.00    -0.042 C 
ATOM     15  C   UNL     1      32.174 -23.073 -17.518  0.00  0.00    +0.022 C 
ATOM     16  C   UNL     1      35.642 -22.759 -15.729  0.00  0.00    +0.012 C 
ATOM     17  C   UNL     1      35.067 -24.342 -17.609  0.00  0.00    +0.004 C 
ATOM     18  C   UNL     1      35.350 -23.660 -14.540  0.00  0.00    +0.069 C 
ATOM     19  C   UNL     1      32.892 -23.312 -15.171  0.00  0.00    +0.029 C 
ATOM     20  C   UNL     1      33.913 -23.512 -14.117  0.00  0.00    +0.173 C 
ENDROOT
BRANCH   9  21
ATOM     21  O   UNL     1      36.763 -22.606 -19.150  0.00  0.00    -0.384 OA
ATOM     22  H   UNL     1      36.154 -22.868 -19.859  0.00  0.00    +0.210 HD
ENDBRANCH   9  21
BRANCH   6  24
ATOM     23  O   UNL     1      37.175 -18.495 -22.084  0.00  0.00    -0.288 OA
ATOM     24  C   UNL     1      35.988 -18.673 -22.356  0.00  0.00    +0.230 C 
BRANCH  24  25
ATOM     25  C   UNL     1      35.464 -18.620 -23.775  0.00  0.00    +0.276 C 
BRANCH  25  26
ATOM     26  O   UNL     1      35.367 -17.284 -24.221  0.00  0.00    -0.440 OA
BRANCH  26  28
ATOM     27  O   UNL     1      33.707 -17.741 -25.756  0.00  0.00    -0.250 OA
ATOM     28  C   UNL     1      34.265 -16.977 -24.984  0.00  0.00    +0.317 C 
BRANCH  28  29
ATOM     29  C   UNL     1      33.851 -15.548 -24.720  0.00  0.00    +0.110 C 
ATOM     30  C   UNL     1      33.055 -14.962 -25.873  0.00  0.00    +0.012 C 
ENDBRANCH  28  29
ENDBRANCH  26  28
ENDBRANCH  25  26
ENDBRANCH  24  25
ENDBRANCH   6  24
BRANCH   6  31
ATOM     31  O   UNL     1      35.056 -17.839 -20.403  0.00  0.00    -0.448 OA
BRANCH  31  33
ATOM     32  O   UNL     1      35.295 -15.836 -21.524  0.00  0.00    -0.250 OA
ATOM     33  C   UNL     1      34.614 -16.648 -20.913  0.00  0.00    +0.317 C 
BRANCH  33  34
ATOM     34  C   UNL     1      33.142 -16.492 -20.600  0.00  0.00    +0.110 C 
BRANCH  34  35
ATOM     35  C   UNL     1      32.766 -15.036 -20.335  0.00  0.00    +0.012 C 
ATOM     36  C   UNL     1      32.355 -14.324 -21.613  0.00  0.00    +0.001 C 
ENDBRANCH  34  35
ENDBRANCH  33  34
ENDBRANCH  31  33
ENDBRANCH   6  31
TORSDOF 10
ENDMDL
MODEL 2
REMARK VINA RESULT:      -5.2      1.597      2.535
REMARK  Name = 636398
REMARK  10 active torsions:
REMARK  status: ('A' for Active; 'I' for Inactive)
REMARK    1  A    between atoms: C_6  and  C_24
REMARK    2  A    between atoms: C_6  and  O_31
REMARK    3  A    between atoms: C_9  and  O_21
REMARK    4  A    between atoms: C_24  and  C_25
REMARK    5  A    between atoms: C_25  and  O_26
REMARK    6  A    between atoms: O_26  and  C_28
REMARK    7  A    between atoms: C_28  and  C_29
REMARK    8  A    between atoms: O_31  and  C_33
REMARK    9  A    between atoms: C_33  and  C_34
REMARK   10  A    between atoms: C_34  and  C_35
REMARK                            x       y       z     vdW  Elec       q    Type
REMARK                         _______ _______ _______ _____ _____    ______ ____
ROOT
ATOM      1  O   UNL     1      36.147 -23.290 -14.806  0.00  0.00    -0.291 OA
ATOM      2  C   UNL     1      34.937 -18.416 -21.600  0.00  0.00    +0.043 C 
ATOM      3  C   UNL     1      33.875 -19.188 -20.787  0.00  0.00    +0.004 C 
ATOM      4  C   UNL     1      34.365 -20.550 -20.273  0.00  0.00    +0.003 C 
ATOM      5  C   UNL     1      35.606 -20.324 -19.350  0.00  0.00    +0.030 C 
ATOM      6  C   UNL     1      34.098 -17.170 -21.999  0.00  0.00    +0.190 C 
ATOM      7  C   UNL     1      36.134 -18.153 -20.665  0.00  0.00    +0.033 C 
ATOM      8  C   UNL     1      36.126 -21.660 -18.677  0.00  0.00    +0.018 C 
ATOM      9  C   UNL     1      36.700 -19.441 -20.027  0.00  0.00    +0.111 C 
ATOM     10  C   UNL     1      32.639 -19.138 -21.681  0.00  0.00    +0.004 C 
ATOM     11  C   UNL     1      32.704 -17.745 -22.341  0.00  0.00    +0.048 C 
ATOM     12  C   UNL     1      33.245 -21.263 -19.499  0.00  0.00    +0.004 C 
ATOM     13  C   UNL     1      35.394 -19.166 -22.882  0.00  0.00    +0.004 C 
ATOM     14  C   UNL     1      34.941 -22.395 -18.036  0.00  0.00    -0.042 C 
ATOM     15  C   UNL     1      33.719 -22.579 -18.902  0.00  0.00    +0.022 C 
ATOM     16  C   UNL     1      37.168 -21.276 -17.587  0.00  0.00    +0.012 C 
ATOM     17  C   UNL     1      36.782 -22.639 -19.676  0.00  0.00    +0.004 C 
ATOM     18  C   UNL     1      37.457 -22.398 -16.601  0.00  0.00    +0.069 C 
ATOM     19  C   UNL     1      34.953 -22.901 -16.791  0.00  0.00    +0.029 C 
ATOM     20  C   UNL     1      36.178 -22.869 -15.961  0.00  0.00    +0.173 C 
ENDROOT
BRANCH   9  21
ATOM     21  O   UNL     1      37.423 -20.173 -21.007  0.00  0.00    -0.384 OA
ATOM     22  H   UNL     1      38.009 -19.572 -21.492  0.00  0.00    +0.210 HD
ENDBRANCH   9  21
BRANCH   6  24
ATOM     23  O   UNL     1      35.695 -15.661 -22.921  0.00  0.00    -0.288 OA
ATOM     24  C   UNL     1      34.702 -16.362 -23.109  0.00  0.00    +0.230 C 
BRANCH  24  25
ATOM     25  C   UNL     1      34.022 -16.462 -24.458  0.00  0.00    +0.276 C 
BRANCH  25  26
ATOM     26  O   UNL     1      33.717 -15.178 -24.959  0.00  0.00    -0.440 OA
BRANCH  26  28
ATOM     27  O   UNL     1      32.532 -16.089 -26.715  0.00  0.00    -0.250 OA
ATOM     28  C   UNL     1      33.069 -15.136 -26.170  0.00  0.00    +0.317 C 
BRANCH  28  29
ATOM     29  C   UNL     1      33.122 -13.732 -26.724  0.00  0.00    +0.110 C 
ATOM     30  C   UNL     1      33.446 -12.706 -25.651  0.00  0.00    +0.012 C 
ENDBRANCH  28  29
ENDBRANCH  26  28
ENDBRANCH  25  26
ENDBRANCH  24  25
ENDBRANCH   6  24
BRANCH   6  31
ATOM     31  O   UNL     1      33.976 -16.260 -20.909  0.00  0.00    -0.448 OA
BRANCH  31  33
ATOM     32  O   UNL     1      31.689 -16.122 -20.634  0.00  0.00    -0.250 OA
ATOM     33  C   UNL     1      32.780 -15.600 -20.817  0.00  0.00    +0.317 C 
BRANCH  33  34
ATOM     34  C   UNL     1      33.020 -14.115 -20.978  0.00  0.00    +0.110 C 
BRANCH  34  35
ATOM     35  C   UNL     1      32.345 -13.560 -22.229  0.00  0.00    +0.012 C 
ATOM     36  C   UNL     1      31.827 -12.149 -22.004  0.00  0.00    +0.001 C 
ENDBRANCH  34  35
ENDBRANCH  33  34
ENDBRANCH  31  33
ENDBRANCH   6  31
TORSDOF 10
ENDMDL
MODEL 3
REMARK VINA RESULT:      -5.1      5.326      9.276
REMARK  Name = 636398
REMARK  10 active torsions:
REMARK  status: ('A' for Active; 'I' for Inactive)
REMARK    1  A    between atoms: C_6  and  C_24
REMARK    2  A    between atoms: C_6  and  O_31
REMARK    3  A    between atoms: C_9  and  O_21
REMARK    4  A    between atoms: C_24  and  C_25
REMARK    5  A    between atoms: C_25  and  O_26
REMARK    6  A    between atoms: O_26  and  C_28
REMARK    7  A    between atoms: C_28  and  C_29
REMARK    8  A    between atoms: O_31  and  C_33
REMARK    9  A    between atoms: C_33  and  C_34
REMARK   10  A    between atoms: C_34  and  C_35
REMARK                            x       y       z     vdW  Elec       q    Type
REMARK                         _______ _______ _______ _____ _____    ______ ____
ROOT
ATOM      1  O   UNL     1      26.475 -21.896 -17.584  0.00  0.00    -0.291 OA
ATOM      2  C   UNL     1      33.795 -23.858 -13.848  0.00  0.00    +0.043 C 
ATOM      3  C   UNL     1      33.328 -24.233 -15.271  0.00  0.00    +0.004 C 
ATOM      4  C   UNL     1      31.826 -24.544 -15.363  0.00  0.00    +0.003 C 
ATOM      5  C   UNL     1      31.022 -23.283 -14.910  0.00  0.00    +0.030 C 
ATOM      6  C   UNL     1      35.316 -23.685 -14.115  0.00  0.00    +0.190 C 
ATOM      7  C   UNL     1      33.033 -22.584 -13.432  0.00  0.00    +0.033 C 
ATOM      8  C   UNL     1      29.456 -23.460 -15.070  0.00  0.00    +0.018 C 
ATOM      9  C   UNL     1      31.499 -22.736 -13.528  0.00  0.00    +0.111 C 
ATOM     10  C   UNL     1      34.330 -25.300 -15.703  0.00  0.00    +0.004 C 
ATOM     11  C   UNL     1      35.665 -24.840 -15.082  0.00  0.00    +0.048 C 
ATOM     12  C   UNL     1      31.449 -24.931 -16.801  0.00  0.00    +0.004 C 
ATOM     13  C   UNL     1      33.576 -24.994 -12.811  0.00  0.00    +0.004 C 
ATOM     14  C   UNL     1      29.149 -23.976 -16.483  0.00  0.00    -0.042 C 
ATOM     15  C   UNL     1      29.953 -25.165 -16.951  0.00  0.00    +0.022 C 
ATOM     16  C   UNL     1      28.789 -22.070 -14.855  0.00  0.00    +0.012 C 
ATOM     17  C   UNL     1      28.843 -24.470 -14.074  0.00  0.00    +0.004 C 
ATOM     18  C   UNL     1      27.356 -21.999 -15.359  0.00  0.00    +0.069 C 
ATOM     19  C   UNL     1      28.203 -23.460 -17.284  0.00  0.00    +0.029 C 
ATOM     20  C   UNL     1      27.297 -22.388 -16.812  0.00  0.00    +0.173 C 
ENDROOT
BRANCH   9  21
ATOM     21  O   UNL     1      31.038 -23.551 -12.461  0.00  0.00    -0.384 OA
ATOM     22  H   UNL     1      30.761 -22.989 -11.721  0.00  0.00    +0.210 HD
ENDBRANCH   9  21
BRANCH   6  24
ATOM     23  O   UNL     1      36.382 -22.626 -12.266  0.00  0.00    -0.288 OA
ATOM     24  C   UNL     1      36.153 -23.672 -12.870  0.00  0.00    +0.230 C 
BRANCH  24  25
ATOM     25  C   UNL     1      36.691 -25.010 -12.410  0.00  0.00    +0.276 C 
BRANCH  25  26
ATOM     26  O   UNL     1      38.101 -25.029 -12.475  0.00  0.00    -0.440 OA
BRANCH  26  28
ATOM     27  O   UNL     1      38.118 -26.807 -13.946  0.00  0.00    -0.250 OA
ATOM     28  C   UNL     1      38.653 -25.826 -13.450  0.00  0.00    +0.317 C 
BRANCH  28  29
ATOM     29  C   UNL     1      40.022 -25.302 -13.815  0.00  0.00    +0.110 C 
ATOM     30  C   UNL     1      40.246 -25.287 -15.318  0.00  0.00    +0.012 C 
ENDBRANCH  28  29
ENDBRANCH  26  28
ENDBRANCH  25  26
ENDBRANCH  24  25
ENDBRANCH   6  24
BRANCH   6  31
ATOM     31  O   UNL     1      35.589 -22.441 -14.753  0.00  0.00    -0.448 OA
BRANCH  31  33
ATOM     32  O   UNL     1      37.755 -22.598 -15.533  0.00  0.00    -0.250 OA
ATOM     33  C   UNL     1      36.553 -22.469 -15.724  0.00  0.00    +0.317 C 
BRANCH  33  34
ATOM     34  C   UNL     1      35.898 -22.316 -17.078  0.00  0.00    +0.110 C 
BRANCH  34  35
ATOM     35  C   UNL     1      36.786 -21.554 -18.059  0.00  0.00    +0.012 C 
ATOM     36  C   UNL     1      36.065 -21.283 -19.370  0.00  0.00    +0.001 C 
ENDBRANCH  34  35
ENDBRANCH  33  34
ENDBRANCH  31  33
ENDBRANCH   6  31
TORSDOF 10
ENDMDL
MODEL 4
REMARK VINA RESULT:      -5.0      4.867     11.647
REMARK  Name = 636398
REMARK  10 active torsions:
REMARK  status: ('A' for Active; 'I' for Inactive)
REMARK    1  A    between atoms: C_6  and  C_24
REMARK    2  A    between atoms: C_6  and  O_31
REMARK    3  A    between atoms: C_9  and  O_21
REMARK    4  A    between atoms: C_24  and  C_25
REMARK    5  A    between atoms: C_25  and  O_26
REMARK    6  A    between atoms: O_26  and  C_28
REMARK    7  A    between atoms: C_28  and  C_29
REMARK    8  A    between atoms: O_31  and  C_33
REMARK    9  A    between atoms: C_33  and  C_34
REMARK   10  A    between atoms: C_34  and  C_35
REMARK                            x       y       z     vdW  Elec       q    Type
REMARK                         _______ _______ _______ _____ _____    ______ ____
ROOT
ATOM      1  O   UNL     1      30.807  -4.711 -24.220  0.00  0.00    -0.291 OA
ATOM      2  C   UNL     1      33.597 -12.640 -23.363  0.00  0.00    +0.043 C 
ATOM      3  C   UNL     1      32.379 -11.985 -22.677  0.00  0.00    +0.004 C 
ATOM      4  C   UNL     1      32.603 -10.513 -22.300  0.00  0.00    +0.003 C 
ATOM      5  C   UNL     1      32.915  -9.702 -23.600  0.00  0.00    +0.030 C 
ATOM      6  C   UNL     1      33.051 -14.086 -23.529  0.00  0.00    +0.190 C 
ATOM      7  C   UNL     1      33.863 -11.864 -24.669  0.00  0.00    +0.033 C 
ATOM      8  C   UNL     1      33.057  -8.147 -23.337  0.00  0.00    +0.018 C 
ATOM      9  C   UNL     1      34.056 -10.348 -24.446  0.00  0.00    +0.111 C 
ATOM     10  C   UNL     1      32.014 -12.980 -21.578  0.00  0.00    +0.004 C 
ATOM     11  C   UNL     1      32.298 -14.361 -22.207  0.00  0.00    +0.048 C 
ATOM     12  C   UNL     1      31.358  -9.945 -21.601  0.00  0.00    +0.004 C 
ATOM     13  C   UNL     1      34.867 -12.664 -22.469  0.00  0.00    +0.004 C 
ATOM     14  C   UNL     1      31.851  -7.662 -22.520  0.00  0.00    -0.042 C 
ATOM     15  C   UNL     1      31.511  -8.464 -21.288  0.00  0.00    +0.022 C 
ATOM     16  C   UNL     1      33.090  -7.426 -24.716  0.00  0.00    +0.012 C 
ATOM     17  C   UNL     1      34.327  -7.767 -22.542  0.00  0.00    +0.004 C 
ATOM     18  C   UNL     1      32.827  -5.931 -24.627  0.00  0.00    +0.069 C 
ATOM     19  C   UNL     1      31.129  -6.569 -22.819  0.00  0.00    +0.029 C 
ATOM     20  C   UNL     1      31.516  -5.674 -23.934  0.00  0.00    +0.173 C 
ENDROOT
BRANCH   9  21
ATOM     21  O   UNL     1      35.329 -10.116 -23.862  0.00  0.00    -0.384 OA
ATOM     22  H   UNL     1      35.432 -10.678 -23.078  0.00  0.00    +0.210 HD
ENDBRANCH   9  21
BRANCH   6  24
ATOM     23  O   UNL     1      35.019 -14.856 -24.629  0.00  0.00    -0.288 OA
ATOM     24  C   UNL     1      34.110 -15.102 -23.837  0.00  0.00    +0.230 C 
BRANCH  24  25
ATOM     25  C   UNL     1      33.992 -16.432 -23.124  0.00  0.00    +0.276 C 
BRANCH  25  26
ATOM     26  O   UNL     1      35.248 -16.846 -22.630  0.00  0.00    -0.440 OA
BRANCH  26  28
ATOM     27  O   UNL     1      35.241 -16.745 -20.326  0.00  0.00    -0.250 OA
ATOM     28  C   UNL     1      35.255 -17.386 -21.366  0.00  0.00    +0.317 C 
BRANCH  28  29
ATOM     29  C   UNL     1      35.284 -18.894 -21.460  0.00  0.00    +0.110 C 
ATOM     30  C   UNL     1      33.995 -19.522 -20.957  0.00  0.00    +0.012 C 
ENDBRANCH  28  29
ENDBRANCH  26  28
ENDBRANCH  25  26
ENDBRANCH  24  25
ENDBRANCH   6  24
BRANCH   6  31
ATOM     31  O   UNL     1      32.135 -14.169 -24.617  0.00  0.00    -0.448 OA
BRANCH  31  33
ATOM     32  O   UNL     1      32.979 -15.692 -26.132  0.00  0.00    -0.250 OA
ATOM     33  C   UNL     1      32.672 -14.550 -25.818  0.00  0.00    +0.317 C 
BRANCH  33  34
ATOM     34  C   UNL     1      32.828 -13.331 -26.700  0.00  0.00    +0.110 C 
BRANCH  34  35
ATOM     35  C   UNL     1      33.957 -13.502 -27.714  0.00  0.00    +0.012 C 
ATOM     36  C   UNL     1      35.005 -12.410 -27.572  0.00  0.00    +0.001 C 
ENDBRANCH  34  35
ENDBRANCH  33  34
ENDBRANCH  31  33
ENDBRANCH   6  31
TORSDOF 10
ENDMDL
MODEL 5
REMARK VINA RESULT:      -4.9      5.343      9.440
REMARK  Name = 636398
REMARK  10 active torsions:
REMARK  status: ('A' for Active; 'I' for Inactive)
REMARK    1  A    between atoms: C_6  and  C_24
REMARK    2  A    between atoms: C_6  and  O_31
REMARK    3  A    between atoms: C_9  and  O_21
REMARK    4  A    between atoms: C_24  and  C_25
REMARK    5  A    between atoms: C_25  and  O_26
REMARK    6  A    between atoms: O_26  and  C_28
REMARK    7  A    between atoms: C_28  and  C_29
REMARK    8  A    between atoms: O_31  and  C_33
REMARK    9  A    between atoms: C_33  and  C_34
REMARK   10  A    between atoms: C_34  and  C_35
REMARK                            x       y       z     vdW  Elec       q    Type
REMARK                         _______ _______ _______ _____ _____    ______ ____
ROOT
ATOM      1  O   UNL     1      36.489 -18.605 -20.895  0.00  0.00    -0.291 OA
ATOM      2  C   UNL     1      32.238 -11.550 -22.778  0.00  0.00    +0.043 C 
ATOM      3  C   UNL     1      32.086 -12.442 -21.526  0.00  0.00    +0.004 C 
ATOM      4  C   UNL     1      32.249 -13.942 -21.818  0.00  0.00    +0.003 C 
ATOM      5  C   UNL     1      33.673 -14.188 -22.412  0.00  0.00    +0.030 C 
ATOM      6  C   UNL     1      31.953 -10.162 -22.138  0.00  0.00    +0.190 C 
ATOM      7  C   UNL     1      33.664 -11.762 -23.325  0.00  0.00    +0.033 C 
ATOM      8  C   UNL     1      33.986 -15.723 -22.648  0.00  0.00    +0.018 C 
ATOM      9  C   UNL     1      33.989 -13.244 -23.614  0.00  0.00    +0.111 C 
ATOM     10  C   UNL     1      30.785 -11.951 -20.897  0.00  0.00    +0.004 C 
ATOM     11  C   UNL     1      30.791 -10.429 -21.155  0.00  0.00    +0.048 C 
ATOM     12  C   UNL     1      32.058 -14.759 -20.530  0.00  0.00    +0.004 C 
ATOM     13  C   UNL     1      31.178 -11.844 -23.874  0.00  0.00    +0.004 C 
ATOM     14  C   UNL     1      33.650 -16.507 -21.373  0.00  0.00    -0.042 C 
ATOM     15  C   UNL     1      32.296 -16.244 -20.762  0.00  0.00    +0.022 C 
ATOM     16  C   UNL     1      35.502 -15.861 -22.975  0.00  0.00    +0.012 C 
ATOM     17  C   UNL     1      33.167 -16.351 -23.798  0.00  0.00    +0.004 C 
ATOM     18  C   UNL     1      36.026 -17.281 -22.837  0.00  0.00    +0.069 C 
ATOM     19  C   UNL     1      34.464 -17.418 -20.812  0.00  0.00    +0.029 C 
ATOM     20  C   UNL     1      35.737 -17.810 -21.457  0.00  0.00    +0.173 C 
ENDROOT
BRANCH   9  21
ATOM     21  O   UNL     1      33.305 -13.656 -24.789  0.00  0.00    -0.384 OA
ATOM     22  H   UNL     1      32.460 -14.064 -24.545  0.00  0.00    +0.210 HD
ENDBRANCH   9  21
BRANCH   6  24
ATOM     23  O   UNL     1      30.576  -8.498 -23.143  0.00  0.00    -0.288 OA
ATOM     24  C   UNL     1      31.657  -9.084 -23.137  0.00  0.00    +0.230 C 
BRANCH  24  25
ATOM     25  C   UNL     1      32.758  -8.766 -24.127  0.00  0.00    +0.276 C 
BRANCH  25  26
ATOM     26  O   UNL     1      32.934  -7.371 -24.245  0.00  0.00    -0.440 OA
BRANCH  26  28
ATOM     27  O   UNL     1      35.134  -7.217 -23.567  0.00  0.00    -0.250 OA
ATOM     28  C   UNL     1      34.233  -6.928 -24.340  0.00  0.00    +0.317 C 
BRANCH  28  29
ATOM     29  C   UNL     1      34.374  -6.031 -25.547  0.00  0.00    +0.110 C 
ATOM     30  C   UNL     1      33.086  -5.288 -25.860  0.00  0.00    +0.012 C 
ENDBRANCH  28  29
ENDBRANCH  26  28
ENDBRANCH  25  26
ENDBRANCH  24  25
ENDBRANCH   6  24
BRANCH   6  31
ATOM     31  O   UNL     1      33.083  -9.688 -21.411  0.00  0.00    -0.448 OA
BRANCH  31  33
ATOM     32  O   UNL     1      32.386  -9.184 -19.270  0.00  0.00    -0.250 OA
ATOM     33  C   UNL     1      32.808  -8.846 -20.368  0.00  0.00    +0.317 C 
BRANCH  33  34
ATOM     34  C   UNL     1      33.109  -7.424 -20.786  0.00  0.00    +0.110 C 
BRANCH  34  35
ATOM     35  C   UNL     1      31.913  -6.500 -20.569  0.00  0.00    +0.012 C 
ATOM     36  C   UNL     1      31.702  -5.572 -21.753  0.00  0.00    +0.001 C 
ENDBRANCH  34  35
ENDBRANCH  33  34
ENDBRANCH  31  33
ENDBRANCH   6  31
TORSDOF 10
ENDMDL
MODEL 6
REMARK VINA RESULT:      -4.3      5.828     10.032
REMARK  Name = 636398
REMARK  10 active torsions:
REMARK  status: ('A' for Active; 'I' for Inactive)
REMARK    1  A    between atoms: C_6  and  C_24
REMARK    2  A    between atoms: C_6  and  O_31
REMARK    3  A    between atoms: C_9  and  O_21
REMARK    4  A    between atoms: C_24  and  C_25
REMARK    5  A    between atoms: C_25  and  O_26
REMARK    6  A    between atoms: O_26  and  C_28
REMARK    7  A    between atoms: C_28  and  C_29
REMARK    8  A    between atoms: O_31  and  C_33
REMARK    9  A    between atoms: C_33  and  C_34
REMARK   10  A    between atoms: C_34  and  C_35
REMARK                            x       y       z     vdW  Elec       q    Type
REMARK                         _______ _______ _______ _____ _____    ______ ____
ROOT
ATOM      1  O   UNL     1      36.743 -18.402 -21.446  0.00  0.00    -0.291 OA
ATOM      2  C   UNL     1      32.403 -11.308 -22.936  0.00  0.00    +0.043 C 
ATOM      3  C   UNL     1      32.673 -11.984 -21.575  0.00  0.00    +0.004 C 
ATOM      4  C   UNL     1      32.657 -13.519 -21.637  0.00  0.00    +0.003 C 
ATOM      5  C   UNL     1      33.760 -13.995 -22.637  0.00  0.00    +0.030 C 
ATOM      6  C   UNL     1      32.426  -9.819 -22.491  0.00  0.00    +0.190 C 
ATOM      7  C   UNL     1      33.526 -11.743 -23.900  0.00  0.00    +0.033 C 
ATOM      8  C   UNL     1      33.901 -15.572 -22.694  0.00  0.00    +0.018 C 
ATOM      9  C   UNL     1      33.661 -13.277 -24.019  0.00  0.00    +0.111 C 
ATOM     10  C   UNL     1      31.709 -11.274 -20.629  0.00  0.00    +0.004 C 
ATOM     11  C   UNL     1      31.686  -9.817 -21.134  0.00  0.00    +0.048 C 
ATOM     12  C   UNL     1      32.908 -14.113 -20.242  0.00  0.00    +0.004 C 
ATOM     13  C   UNL     1      31.007 -11.652 -23.526  0.00  0.00    +0.004 C 
ATOM     14  C   UNL     1      34.014 -16.120 -21.266  0.00  0.00    -0.042 C 
ATOM     15  C   UNL     1      32.983 -15.632 -20.278  0.00  0.00    +0.022 C 
ATOM     16  C   UNL     1      35.191 -15.910 -23.498  0.00  0.00    +0.012 C 
ATOM     17  C   UNL     1      32.697 -16.276 -23.359  0.00  0.00    +0.004 C 
ATOM     18  C   UNL     1      35.669 -17.340 -23.304  0.00  0.00    +0.069 C 
ATOM     19  C   UNL     1      34.936 -17.015 -20.873  0.00  0.00    +0.029 C 
ATOM     20  C   UNL     1      35.874 -17.627 -21.841  0.00  0.00    +0.173 C 
ENDROOT
BRANCH   9  21
ATOM     21  O   UNL     1      32.584 -13.787 -24.792  0.00  0.00    -0.384 OA
ATOM     22  H   UNL     1      32.887 -13.954 -25.698  0.00  0.00    +0.210 HD
ENDBRANCH   9  21
BRANCH   6  24
ATOM     23  O   UNL     1      32.204  -8.884 -24.672  0.00  0.00    -0.288 OA
ATOM     24  C   UNL     1      31.837  -8.877 -23.498  0.00  0.00    +0.230 C 
BRANCH  24  25
ATOM     25  C   UNL     1      30.775  -7.927 -22.986  0.00  0.00    +0.276 C 
BRANCH  25  26
ATOM     26  O   UNL     1      30.883  -6.670 -23.618  0.00  0.00    -0.440 OA
BRANCH  26  28
ATOM     27  O   UNL     1      30.332  -5.566 -21.669  0.00  0.00    -0.250 OA
ATOM     28  C   UNL     1      30.795  -5.568 -22.800  0.00  0.00    +0.317 C 
BRANCH  28  29
ATOM     29  C   UNL     1      31.357  -4.361 -23.514  0.00  0.00    +0.110 C 
ATOM     30  C   UNL     1      31.128  -4.427 -25.015  0.00  0.00    +0.012 C 
ENDBRANCH  28  29
ENDBRANCH  26  28
ENDBRANCH  25  26
ENDBRANCH  24  25
ENDBRANCH   6  24
BRANCH   6  31
ATOM     31  O   UNL     1      33.761  -9.360 -22.298  0.00  0.00    -0.448 OA
BRANCH  31  33
ATOM     32  O   UNL     1      33.427  -7.248 -21.431  0.00  0.00    -0.250 OA
ATOM     33  C   UNL     1      33.923  -8.001 -22.258  0.00  0.00    +0.317 C 
BRANCH  33  34
ATOM     34  C   UNL     1      34.814  -7.574 -23.403  0.00  0.00    +0.110 C 
BRANCH  34  35
ATOM     35  C   UNL     1      34.176  -6.468 -24.241  0.00  0.00    +0.012 C 
ATOM     36  C   UNL     1      34.830  -6.356 -25.608  0.00  0.00    +0.001 C 
ENDBRANCH  34  35
ENDBRANCH  33  34
ENDBRANCH  31  33
ENDBRANCH   6  31
TORSDOF 10
ENDMDL
MODEL 7
REMARK VINA RESULT:      -4.2      7.157     11.671
REMARK  Name = 636398
REMARK  10 active torsions:
REMARK  status: ('A' for Active; 'I' for Inactive)
REMARK    1  A    between atoms: C_6  and  C_24
REMARK    2  A    between atoms: C_6  and  O_31
REMARK    3  A    between atoms: C_9  and  O_21
REMARK    4  A    between atoms: C_24  and  C_25
REMARK    5  A    between atoms: C_25  and  O_26
REMARK    6  A    between atoms: O_26  and  C_28
REMARK    7  A    between atoms: C_28  and  C_29
REMARK    8  A    between atoms: O_31  and  C_33
REMARK    9  A    between atoms: C_33  and  C_34
REMARK   10  A    between atoms: C_34  and  C_35
REMARK                            x       y       z     vdW  Elec       q    Type
REMARK                         _______ _______ _______ _____ _____    ______ ____
ROOT
ATOM      1  O   UNL     1      34.510 -16.552 -20.706  0.00  0.00    -0.291 OA
ATOM      2  C   UNL     1      32.772  -8.934 -23.920  0.00  0.00    +0.043 C 
ATOM      3  C   UNL     1      32.027  -9.678 -22.791  0.00  0.00    +0.004 C 
ATOM      4  C   UNL     1      31.942 -11.197 -23.007  0.00  0.00    +0.003 C 
ATOM      5  C   UNL     1      33.391 -11.776 -23.089  0.00  0.00    +0.030 C 
ATOM      6  C   UNL     1      32.607  -7.473 -23.416  0.00  0.00    +0.190 C 
ATOM      7  C   UNL     1      34.215  -9.477 -23.957  0.00  0.00    +0.033 C 
ATOM      8  C   UNL     1      33.417 -13.356 -23.203  0.00  0.00    +0.018 C 
ATOM      9  C   UNL     1      34.282 -11.012 -24.117  0.00  0.00    +0.111 C 
ATOM     10  C   UNL     1      30.734  -8.882 -22.635  0.00  0.00    +0.004 C 
ATOM     11  C   UNL     1      31.158  -7.418 -22.879  0.00  0.00    +0.048 C 
ATOM     12  C   UNL     1      31.165 -11.857 -21.857  0.00  0.00    +0.004 C 
ATOM     13  C   UNL     1      32.091  -9.085 -25.308  0.00  0.00    +0.004 C 
ATOM     14  C   UNL     1      32.519 -13.955 -22.113  0.00  0.00    -0.042 C 
ATOM     15  C   UNL     1      31.133 -13.372 -21.993  0.00  0.00    +0.022 C 
ATOM     16  C   UNL     1      34.887 -13.828 -23.002  0.00  0.00    +0.012 C 
ATOM     17  C   UNL     1      32.902 -13.886 -24.560  0.00  0.00    +0.004 C 
ATOM     18  C   UNL     1      35.011 -15.312 -22.693  0.00  0.00    +0.069 C 
ATOM     19  C   UNL     1      32.883 -14.969 -21.310  0.00  0.00    +0.029 C 
ATOM     20  C   UNL     1      34.178 -15.664 -21.489  0.00  0.00    +0.173 C 
ENDROOT
BRANCH   9  21
ATOM     21  O   UNL     1      33.947 -11.361 -25.453  0.00  0.00    -0.384 OA
ATOM     22  H   UNL     1      33.581 -12.259 -25.469  0.00  0.00    +0.210 HD
ENDBRANCH   9  21
BRANCH   6  24
ATOM     23  O   UNL     1      34.023  -6.318 -24.945  0.00  0.00    -0.288 OA
ATOM     24  C   UNL     1      32.899  -6.436 -24.458  0.00  0.00    +0.230 C 
BRANCH  24  25
ATOM     25  C   UNL     1      31.740  -5.552 -24.869  0.00  0.00    +0.276 C 
BRANCH  25  26
ATOM     26  O   UNL     1      31.858  -4.272 -24.286  0.00  0.00    -0.440 OA
BRANCH  26  28
ATOM     27  O   UNL     1      30.138  -2.848 -24.863  0.00  0.00    -0.250 OA
ATOM     28  C   UNL     1      31.292  -3.232 -24.984  0.00  0.00    +0.317 C 
BRANCH  28  29
ATOM     29  C   UNL     1      32.314  -2.638 -25.924  0.00  0.00    +0.110 C 
ATOM     30  C   UNL     1      31.982  -2.916 -27.380  0.00  0.00    +0.012 C 
ENDBRANCH  28  29
ENDBRANCH  26  28
ENDBRANCH  25  26
ENDBRANCH  24  25
ENDBRANCH   6  24
BRANCH   6  31
ATOM     31  O   UNL     1      33.512  -7.189 -22.353  0.00  0.00    -0.448 OA
BRANCH  31  33
ATOM     32  O   UNL     1      32.334  -5.712 -21.028  0.00  0.00    -0.250 OA
ATOM     33  C   UNL     1      32.942  -6.763 -21.184  0.00  0.00    +0.317 C 
BRANCH  33  34
ATOM     34  C   UNL     1      33.181  -7.799 -20.109  0.00  0.00    +0.110 C 
BRANCH  34  35
ATOM     35  C   UNL     1      31.874  -8.294 -19.492  0.00  0.00    +0.012 C 
ATOM     36  C   UNL     1      31.921  -9.787 -19.209  0.00  0.00    +0.001 C 
ENDBRANCH  34  35
ENDBRANCH  33  34
ENDBRANCH  31  33
ENDBRANCH   6  31
TORSDOF 10
ENDMDL
MODEL 8
REMARK VINA RESULT:      -3.4      3.913      8.156
REMARK  Name = 636398
REMARK  10 active torsions:
REMARK  status: ('A' for Active; 'I' for Inactive)
REMARK    1  A    between atoms: C_6  and  C_24
REMARK    2  A    between atoms: C_6  and  O_31
REMARK    3  A    between atoms: C_9  and  O_21
REMARK    4  A    between atoms: C_24  and  C_25
REMARK    5  A    between atoms: C_25  and  O_26
REMARK    6  A    between atoms: O_26  and  C_28
REMARK    7  A    between atoms: C_28  and  C_29
REMARK    8  A    between atoms: O_31  and  C_33
REMARK    9  A    between atoms: C_33  and  C_34
REMARK   10  A    between atoms: C_34  and  C_35
REMARK                            x       y       z     vdW  Elec       q    Type
REMARK                         _______ _______ _______ _____ _____    ______ ____
ROOT
ATOM      1  O   UNL     1      27.500 -26.431 -14.895  0.00  0.00    -0.291 OA
ATOM      2  C   UNL     1      35.298 -23.225 -15.443  0.00  0.00    +0.043 C 
ATOM      3  C   UNL     1      34.618 -23.856 -14.208  0.00  0.00    +0.004 C 
ATOM      4  C   UNL     1      33.119 -23.537 -14.102  0.00  0.00    +0.003 C 
ATOM      5  C   UNL     1      32.396 -24.079 -15.377  0.00  0.00    +0.030 C 
ATOM      6  C   UNL     1      36.761 -23.685 -15.192  0.00  0.00    +0.190 C 
ATOM      7  C   UNL     1      34.611 -23.805 -16.696  0.00  0.00    +0.033 C 
ATOM      8  C   UNL     1      30.824 -23.898 -15.319  0.00  0.00    +0.018 C 
ATOM      9  C   UNL     1      33.080 -23.603 -16.697  0.00  0.00    +0.111 C 
ATOM     10  C   UNL     1      35.539 -23.463 -13.057  0.00  0.00    +0.004 C 
ATOM     11  C   UNL     1      36.955 -23.519 -13.667  0.00  0.00    +0.048 C 
ATOM     12  C   UNL     1      32.525 -24.178 -12.838  0.00  0.00    +0.004 C 
ATOM     13  C   UNL     1      35.236 -21.672 -15.451  0.00  0.00    +0.004 C 
ATOM     14  C   UNL     1      30.304 -24.434 -13.979  0.00  0.00    -0.042 C 
ATOM     15  C   UNL     1      31.023 -23.955 -12.742  0.00  0.00    +0.022 C 
ATOM     16  C   UNL     1      30.202 -24.708 -16.495  0.00  0.00    +0.012 C 
ATOM     17  C   UNL     1      30.367 -22.426 -15.428  0.00  0.00    +0.004 C 
ATOM     18  C   UNL     1      28.710 -24.953 -16.340  0.00  0.00    +0.069 C 
ATOM     19  C   UNL     1      29.248 -25.255 -13.855  0.00  0.00    +0.029 C 
ATOM     20  C   UNL     1      28.428 -25.634 -15.028  0.00  0.00    +0.173 C 
ENDROOT
BRANCH   9  21
ATOM     21  O   UNL     1      32.785 -22.242 -16.972  0.00  0.00    -0.384 OA
ATOM     22  H   UNL     1      32.850 -22.084 -17.927  0.00  0.00    +0.210 HD
ENDBRANCH   9  21
BRANCH   6  24
ATOM     23  O   UNL     1      38.966 -23.259 -15.988  0.00  0.00    -0.288 OA
ATOM     24  C   UNL     1      37.777 -22.945 -16.009  0.00  0.00    +0.230 C 
BRANCH  24  25
ATOM     25  C   UNL     1      37.256 -21.800 -16.851  0.00  0.00    +0.276 C 
BRANCH  25  26
ATOM     26  O   UNL     1      37.144 -22.187 -18.205  0.00  0.00    -0.440 OA
BRANCH  26  28
ATOM     27  O   UNL     1      36.856 -20.176 -19.297  0.00  0.00    -0.250 OA
ATOM     28  C   UNL     1      36.486 -21.310 -19.035  0.00  0.00    +0.317 C 
BRANCH  28  29
ATOM     29  C   UNL     1      35.235 -21.965 -19.571  0.00  0.00    +0.110 C 
ATOM     30  C   UNL     1      34.146 -20.951 -19.880  0.00  0.00    +0.012 C 
ENDBRANCH  28  29
ENDBRANCH  26  28
ENDBRANCH  25  26
ENDBRANCH  24  25
ENDBRANCH   6  24
BRANCH   6  31
ATOM     31  O   UNL     1      36.937 -25.055 -15.542  0.00  0.00    -0.448 OA
BRANCH  31  33
ATOM     32  O   UNL     1      37.054 -26.301 -13.603  0.00  0.00    -0.250 OA
ATOM     33  C   UNL     1      37.570 -25.830 -14.607  0.00  0.00    +0.317 C 
BRANCH  33  34
ATOM     34  C   UNL     1      39.015 -26.014 -15.013  0.00  0.00    +0.110 C 
BRANCH  34  35
ATOM     35  C   UNL     1      39.971 -25.759 -13.850  0.00  0.00    +0.012 C 
ATOM     36  C   UNL     1      41.149 -26.720 -13.875  0.00  0.00    +0.001 C 
ENDBRANCH  34  35
ENDBRANCH  33  34
ENDBRANCH  31  33
ENDBRANCH   6  31
TORSDOF 10
ENDMDL
MODEL 9
REMARK VINA RESULT:      -3.4      2.337      9.471
REMARK  Name = 636398
REMARK  10 active torsions:
REMARK  status: ('A' for Active; 'I' for Inactive)
REMARK    1  A    between atoms: C_6  and  C_24
REMARK    2  A    between atoms: C_6  and  O_31
REMARK    3  A    between atoms: C_9  and  O_21
REMARK    4  A    between atoms: C_24  and  C_25
REMARK    5  A    between atoms: C_25  and  O_26
REMARK    6  A    between atoms: O_26  and  C_28
REMARK    7  A    between atoms: C_28  and  C_29
REMARK    8  A    between atoms: O_31  and  C_33
REMARK    9  A    between atoms: C_33  and  C_34
REMARK   10  A    between atoms: C_34  and  C_35
REMARK                            x       y       z     vdW  Elec       q    Type
REMARK                         _______ _______ _______ _____ _____    ______ ____
ROOT
ATOM      1  O   UNL     1      34.780 -17.583 -22.425  0.00  0.00    -0.291 OA
ATOM      2  C   UNL     1      34.608 -23.361 -16.263  0.00  0.00    +0.043 C 
ATOM      3  C   UNL     1      35.578 -22.169 -16.417  0.00  0.00    +0.004 C 
ATOM      4  C   UNL     1      35.968 -21.879 -17.874  0.00  0.00    +0.003 C 
ATOM      5  C   UNL     1      34.674 -21.553 -18.687  0.00  0.00    +0.030 C 
ATOM      6  C   UNL     1      34.496 -23.401 -14.713  0.00  0.00    +0.190 C 
ATOM      7  C   UNL     1      33.316 -23.007 -17.026  0.00  0.00    +0.033 C 
ATOM      8  C   UNL     1      34.976 -21.131 -20.184  0.00  0.00    +0.018 C 
ATOM      9  C   UNL     1      33.566 -22.637 -18.504  0.00  0.00    +0.111 C 
ATOM     10  C   UNL     1      36.679 -22.476 -15.406  0.00  0.00    +0.004 C 
ATOM     11  C   UNL     1      35.936 -23.128 -14.221  0.00  0.00    +0.048 C 
ATOM     12  C   UNL     1      36.952 -20.700 -17.939  0.00  0.00    +0.004 C 
ATOM     13  C   UNL     1      35.199 -24.703 -16.775  0.00  0.00    +0.004 C 
ATOM     14  C   UNL     1      36.060 -20.045 -20.192  0.00  0.00    -0.042 C 
ATOM     15  C   UNL     1      37.296 -20.328 -19.373  0.00  0.00    +0.022 C 
ATOM     16  C   UNL     1      33.660 -20.573 -20.802  0.00  0.00    +0.012 C 
ATOM     17  C   UNL     1      35.488 -22.294 -21.062  0.00  0.00    +0.004 C 
ATOM     18  C   UNL     1      33.878 -19.775 -22.077  0.00  0.00    +0.069 C 
ATOM     19  C   UNL     1      35.982 -18.908 -20.902  0.00  0.00    +0.029 C 
ATOM     20  C   UNL     1      34.855 -18.656 -21.829  0.00  0.00    +0.173 C 
ENDROOT
BRANCH   9  21
ATOM     21  O   UNL     1      33.866 -23.814 -19.240  0.00  0.00    -0.384 OA
ATOM     22  H   UNL     1      33.537 -23.719 -20.148  0.00  0.00    +0.210 HD
ENDBRANCH   9  21
BRANCH   6  24
ATOM     23  O   UNL     1      32.841 -25.111 -14.600  0.00  0.00    -0.288 OA
ATOM     24  C   UNL     1      33.912 -24.675 -14.180  0.00  0.00    +0.230 C 
BRANCH  24  25
ATOM     25  C   UNL     1      34.711 -25.382 -13.107  0.00  0.00    +0.276 C 
BRANCH  25  26
ATOM     26  O   UNL     1      34.528 -24.755 -11.855  0.00  0.00    -0.440 OA
BRANCH  26  28
ATOM     27  O   UNL     1      35.608 -24.424  -9.844  0.00  0.00    -0.250 OA
ATOM     28  C   UNL     1      35.628 -24.710 -11.031  0.00  0.00    +0.317 C 
BRANCH  28  29
ATOM     29  C   UNL     1      36.865 -25.069 -11.821  0.00  0.00    +0.110 C 
ATOM     30  C   UNL     1      38.021 -24.127 -11.530  0.00  0.00    +0.012 C 
ENDBRANCH  28  29
ENDBRANCH  26  28
ENDBRANCH  25  26
ENDBRANCH  24  25
ENDBRANCH   6  24
BRANCH   6  31
ATOM     31  O   UNL     1      33.633 -22.373 -14.233  0.00  0.00    -0.448 OA
BRANCH  31  33
ATOM     32  O   UNL     1      32.056 -23.156 -12.742  0.00  0.00    -0.250 OA
ATOM     33  C   UNL     1      32.380 -22.777 -13.859  0.00  0.00    +0.317 C 
BRANCH  33  34
ATOM     34  C   UNL     1      31.452 -22.680 -15.050  0.00  0.00    +0.110 C 
BRANCH  34  35
ATOM     35  C   UNL     1      29.993 -22.897 -14.655  0.00  0.00    +0.012 C 
ATOM     36  C   UNL     1      29.052 -22.593 -15.810  0.00  0.00    +0.001 C 
ENDBRANCH  34  35
ENDBRANCH  33  34
ENDBRANCH  31  33
ENDBRANCH   6  31
TORSDOF 10
ENDMDL
