MODEL 1
REMARK VINA RESULT:      -5.6      0.000      0.000
REMARK  Name = 88064
REMARK  3 active torsions:
REMARK  status: ('A' for Active; 'I' for Inactive)
REMARK    1  A    between atoms: CA_1  and  N_4
REMARK    2  A    between atoms: CA_1  and  C_9
REMARK    3  A    between atoms: C_9  and  O_10
REMARK                            x       y       z     vdW  Elec       q    Type
REMARK                         _______ _______ _______ _____ _____    ______ ____
ROOT
ATOM      1  CA  ALA A   1      38.934 -25.303 -14.348  0.00  0.00    +0.171 C 
ATOM      2  CB  ALA A   1      37.883 -26.345 -13.995  0.00  0.00    +0.033 C 
ENDROOT
BRANCH   1   4
ATOM      3  O   UNK A   0      37.366 -22.891 -13.966  0.00  0.00    -0.275 OA
ATOM      4  N   ALA A   1      38.442 -24.411 -15.364  0.00  0.00    -0.297 N 
ATOM      5  C   UNK A   0      37.694 -23.275 -15.085  0.00  0.00    +0.223 C 
ATOM      6  C   UNK A   0      37.330 -22.508 -16.328  0.00  0.00    +0.095 C 
ATOM      7  H   ALA A   1      38.644 -24.616 -16.305  0.00  0.00    +0.150 HD
ENDBRANCH   1   4
BRANCH   1   9
ATOM      8  OXT ALA A   1      41.002 -26.501 -13.977  0.00  0.00    -0.248 OA
ATOM      9  C   ALA A   1      40.227 -25.980 -14.773  0.00  0.00    +0.332 C 
BRANCH   9  10
ATOM     10  O   ALA A   1      40.468 -25.955 -16.106  0.00  0.00    -0.479 OA
ATOM     11  H   ALA A   1      39.874 -25.513 -16.681  0.00  0.00    +0.295 HD
ENDBRANCH   9  10
ENDBRANCH   1   9
TORSDOF 3
ENDMDL
MODEL 2
REMARK VINA RESULT:      -5.4      2.352      2.566
REMARK  Name = 88064
REMARK  3 active torsions:
REMARK  status: ('A' for Active; 'I' for Inactive)
REMARK    1  A    between atoms: CA_1  and  N_4
REMARK    2  A    between atoms: CA_1  and  C_9
REMARK    3  A    between atoms: C_9  and  O_10
REMARK                            x       y       z     vdW  Elec       q    Type
REMARK                         _______ _______ _______ _____ _____    ______ ____
ROOT
ATOM      1  CA  ALA A   1      38.855 -25.818 -14.035  0.00  0.00    +0.171 C 
ATOM      2  CB  ALA A   1      37.834 -26.338 -15.036  0.00  0.00    +0.033 C 
ENDROOT
BRANCH   1   4
ATOM      3  O   UNK A   0      37.013 -25.993 -11.799  0.00  0.00    -0.275 OA
ATOM      4  N   ALA A   1      38.305 -24.732 -13.269  0.00  0.00    -0.297 N 
ATOM      5  C   UNK A   0      37.425 -24.912 -12.210  0.00  0.00    +0.223 C 
ATOM      6  C   UNK A   0      37.025 -23.611 -11.568  0.00  0.00    +0.095 C 
ATOM      7  H   ALA A   1      38.566 -23.813 -13.507  0.00  0.00    +0.150 HD
ENDBRANCH   1   4
BRANCH   1   9
ATOM      8  OXT ALA A   1      40.961 -24.652 -14.257  0.00  0.00    -0.248 OA
ATOM      9  C   ALA A   1      40.135 -25.413 -14.748  0.00  0.00    +0.332 C 
BRANCH   9  10
ATOM     10  O   ALA A   1      40.290 -25.951 -15.982  0.00  0.00    -0.479 OA
ATOM     11  H   ALA A   1      40.206 -26.876 -16.104  0.00  0.00    +0.295 HD
ENDBRANCH   9  10
ENDBRANCH   1   9
TORSDOF 3
ENDMDL
MODEL 3
REMARK VINA RESULT:      -5.2      8.881     10.787
REMARK  Name = 88064
REMARK  3 active torsions:
REMARK  status: ('A' for Active; 'I' for Inactive)
REMARK    1  A    between atoms: CA_1  and  N_4
REMARK    2  A    between atoms: CA_1  and  C_9
REMARK    3  A    between atoms: C_9  and  O_10
REMARK                            x       y       z     vdW  Elec       q    Type
REMARK                         _______ _______ _______ _____ _____    ______ ____
ROOT
ATOM      1  CA  ALA A   1      35.181 -18.621 -22.774  0.00  0.00    +0.171 C 
ATOM      2  CB  ALA A   1      34.909 -18.806 -24.260  0.00  0.00    +0.033 C 
ENDROOT
BRANCH   1   4
ATOM      3  O   UNK A   0      35.513 -20.016 -20.250  0.00  0.00    -0.275 OA
ATOM      4  N   ALA A   1      34.160 -19.261 -21.988  0.00  0.00    -0.297 N 
ATOM      5  C   UNK A   0      34.414 -19.908 -20.787  0.00  0.00    +0.223 C 
ATOM      6  C   UNK A   0      33.165 -20.468 -20.161  0.00  0.00    +0.095 C 
ATOM      7  H   ALA A   1      33.233 -19.240 -22.319  0.00  0.00    +0.150 HD
ENDBRANCH   1   4
BRANCH   1   9
ATOM      8  OXT ALA A   1      35.013 -16.679 -21.343  0.00  0.00    -0.248 OA
ATOM      9  C   ALA A   1      35.305 -17.143 -22.440  0.00  0.00    +0.332 C 
BRANCH   9  10
ATOM     10  O   ALA A   1      35.755 -16.369 -23.457  0.00  0.00    -0.479 OA
ATOM     11  H   ALA A   1      36.539 -15.867 -23.353  0.00  0.00    +0.295 HD
ENDBRANCH   9  10
ENDBRANCH   1   9
TORSDOF 3
ENDMDL
MODEL 4
REMARK VINA RESULT:      -5.2      3.156      4.908
REMARK  Name = 88064
REMARK  3 active torsions:
REMARK  status: ('A' for Active; 'I' for Inactive)
REMARK    1  A    between atoms: CA_1  and  N_4
REMARK    2  A    between atoms: CA_1  and  C_9
REMARK    3  A    between atoms: C_9  and  O_10
REMARK                            x       y       z     vdW  Elec       q    Type
REMARK                         _______ _______ _______ _____ _____    ______ ____
ROOT
ATOM      1  CA  ALA A   1      36.910 -24.532 -11.830  0.00  0.00    +0.171 C 
ATOM      2  CB  ALA A   1      37.359 -23.084 -11.968  0.00  0.00    +0.033 C 
ENDROOT
BRANCH   1   4
ATOM      3  O   UNK A   0      38.955 -26.083 -13.185  0.00  0.00    -0.275 OA
ATOM      4  N   ALA A   1      36.819 -25.158 -13.122  0.00  0.00    -0.297 N 
ATOM      5  C   UNK A   0      37.855 -25.884 -13.694  0.00  0.00    +0.223 C 
ATOM      6  C   UNK A   0      37.486 -26.452 -15.038  0.00  0.00    +0.095 C 
ATOM      7  H   ALA A   1      35.980 -25.068 -13.628  0.00  0.00    +0.150 HD
ENDBRANCH   1   4
BRANCH   1   9
ATOM      8  OXT ALA A   1      35.506 -24.432  -9.864  0.00  0.00    -0.248 OA
ATOM      9  C   ALA A   1      35.593 -24.607 -11.075  0.00  0.00    +0.332 C 
BRANCH   9  10
ATOM     10  O   ALA A   1      34.516 -24.897 -11.843  0.00  0.00    -0.479 OA
ATOM     11  H   ALA A   1      33.948 -25.605 -11.607  0.00  0.00    +0.295 HD
ENDBRANCH   9  10
ENDBRANCH   1   9
TORSDOF 3
ENDMDL
MODEL 5
REMARK VINA RESULT:      -5.1      3.353      4.696
REMARK  Name = 88064
REMARK  3 active torsions:
REMARK  status: ('A' for Active; 'I' for Inactive)
REMARK    1  A    between atoms: CA_1  and  N_4
REMARK    2  A    between atoms: CA_1  and  C_9
REMARK    3  A    between atoms: C_9  and  O_10
REMARK                            x       y       z     vdW  Elec       q    Type
REMARK                         _______ _______ _______ _____ _____    ______ ____
ROOT
ATOM      1  CA  ALA A   1      35.701 -24.384 -12.774  0.00  0.00    +0.171 C 
ATOM      2  CB  ALA A   1      34.225 -24.109 -13.018  0.00  0.00    +0.033 C 
ENDROOT
BRANCH   1   4
ATOM      3  O   UNK A   0      36.484 -24.524 -15.565  0.00  0.00    -0.275 OA
ATOM      4  N   ALA A   1      36.127 -25.548 -13.505  0.00  0.00    -0.297 N 
ATOM      5  C   UNK A   0      36.483 -25.519 -14.847  0.00  0.00    +0.223 C 
ATOM      6  C   UNK A   0      36.912 -26.869 -15.356  0.00  0.00    +0.095 C 
ATOM      7  H   ALA A   1      36.167 -26.410 -13.031  0.00  0.00    +0.150 HD
ENDBRANCH   1   4
BRANCH   1   9
ATOM      8  OXT ALA A   1      35.220 -25.116 -10.521  0.00  0.00    -0.248 OA
ATOM      9  C   ALA A   1      35.974 -24.524 -11.285  0.00  0.00    +0.332 C 
BRANCH   9  10
ATOM     10  O   ALA A   1      37.115 -23.931 -10.861  0.00  0.00    -0.479 OA
ATOM     11  H   ALA A   1      37.155 -23.547 -10.007  0.00  0.00    +0.295 HD
ENDBRANCH   9  10
ENDBRANCH   1   9
TORSDOF 3
ENDMDL
MODEL 6
REMARK VINA RESULT:      -5.0      2.700      3.426
REMARK  Name = 88064
REMARK  3 active torsions:
REMARK  status: ('A' for Active; 'I' for Inactive)
REMARK    1  A    between atoms: CA_1  and  N_4
REMARK    2  A    between atoms: CA_1  and  C_9
REMARK    3  A    between atoms: C_9  and  O_10
REMARK                            x       y       z     vdW  Elec       q    Type
REMARK                         _______ _______ _______ _____ _____    ______ ____
ROOT
ATOM      1  CA  ALA A   1      37.461 -24.485 -13.076  0.00  0.00    +0.171 C 
ATOM      2  CB  ALA A   1      38.531 -25.560 -13.203  0.00  0.00    +0.033 C 
ENDROOT
BRANCH   1   4
ATOM      3  O   UNK A   0      36.174 -24.569 -15.676  0.00  0.00    -0.275 OA
ATOM      4  N   ALA A   1      37.579 -23.525 -14.141  0.00  0.00    -0.297 N 
ATOM      5  C   UNK A   0      36.922 -23.649 -15.358  0.00  0.00    +0.223 C 
ATOM      6  C   UNK A   0      37.201 -22.494 -16.282  0.00  0.00    +0.095 C 
ATOM      7  H   ALA A   1      38.156 -22.739 -14.001  0.00  0.00    +0.150 HD
ENDBRANCH   1   4
BRANCH   1   9
ATOM      8  OXT ALA A   1      36.853 -24.175 -10.756  0.00  0.00    -0.248 OA
ATOM      9  C   ALA A   1      37.538 -23.823 -11.710  0.00  0.00    +0.332 C 
BRANCH   9  10
ATOM     10  O   ALA A   1      38.419 -22.796 -11.628  0.00  0.00    -0.479 OA
ATOM     11  H   ALA A   1      38.153 -21.930 -11.864  0.00  0.00    +0.295 HD
ENDBRANCH   9  10
ENDBRANCH   1   9
TORSDOF 3
ENDMDL
MODEL 7
REMARK VINA RESULT:      -5.0      7.321      8.913
REMARK  Name = 88064
REMARK  3 active torsions:
REMARK  status: ('A' for Active; 'I' for Inactive)
REMARK    1  A    between atoms: CA_1  and  N_4
REMARK    2  A    between atoms: CA_1  and  C_9
REMARK    3  A    between atoms: C_9  and  O_10
REMARK                            x       y       z     vdW  Elec       q    Type
REMARK                         _______ _______ _______ _____ _____    ______ ____
ROOT
ATOM      1  CA  ALA A   1      34.873 -20.960 -20.177  0.00  0.00    +0.171 C 
ATOM      2  CB  ALA A   1      35.843 -21.500 -19.136  0.00  0.00    +0.033 C 
ENDROOT
BRANCH   1   4
ATOM      3  O   UNK A   0      34.692 -19.514 -22.687  0.00  0.00    -0.275 OA
ATOM      4  N   ALA A   1      35.093 -19.555 -20.394  0.00  0.00    -0.297 N 
ATOM      5  C   UNK A   0      34.984 -18.948 -21.637  0.00  0.00    +0.223 C 
ATOM      6  C   UNK A   0      35.241 -17.466 -21.578  0.00  0.00    +0.095 C 
ATOM      7  H   ALA A   1      35.334 -18.995 -19.621  0.00  0.00    +0.150 HD
ENDBRANCH   1   4
BRANCH   1   9
ATOM      8  OXT ALA A   1      32.566 -20.388 -19.734  0.00  0.00    -0.248 OA
ATOM      9  C   ALA A   1      33.439 -21.248 -19.763  0.00  0.00    +0.332 C 
BRANCH   9  10
ATOM     10  O   ALA A   1      33.199 -22.535 -19.413  0.00  0.00    -0.479 OA
ATOM     11  H   ALA A   1      33.635 -22.909 -18.673  0.00  0.00    +0.295 HD
ENDBRANCH   9  10
ENDBRANCH   1   9
TORSDOF 3
ENDMDL
MODEL 8
REMARK VINA RESULT:      -5.0      7.983      9.407
REMARK  Name = 88064
REMARK  3 active torsions:
REMARK  status: ('A' for Active; 'I' for Inactive)
REMARK    1  A    between atoms: CA_1  and  N_4
REMARK    2  A    between atoms: CA_1  and  C_9
REMARK    3  A    between atoms: C_9  and  O_10
REMARK                            x       y       z     vdW  Elec       q    Type
REMARK                         _______ _______ _______ _____ _____    ______ ____
ROOT
ATOM      1  CA  ALA A   1      34.389 -19.698 -20.752  0.00  0.00    +0.171 C 
ATOM      2  CB  ALA A   1      33.161 -20.439 -20.243  0.00  0.00    +0.033 C 
ENDROOT
BRANCH   1   4
ATOM      3  O   UNK A   0      35.702 -17.665 -22.354  0.00  0.00    -0.275 OA
ATOM      4  N   ALA A   1      34.324 -19.533 -22.180  0.00  0.00    -0.297 N 
ATOM      5  C   UNK A   0      34.989 -18.524 -22.864  0.00  0.00    +0.223 C 
ATOM      6  C   UNK A   0      34.770 -18.597 -24.351  0.00  0.00    +0.095 C 
ATOM      7  H   ALA A   1      33.779 -20.167 -22.700  0.00  0.00    +0.150 HD
ENDBRANCH   1   4
BRANCH   1   9
ATOM      8  OXT ALA A   1      35.709 -21.635 -20.161  0.00  0.00    -0.248 OA
ATOM      9  C   ALA A   1      35.656 -20.422 -20.327  0.00  0.00    +0.332 C 
BRANCH   9  10
ATOM     10  O   ALA A   1      36.728 -19.617 -20.129  0.00  0.00    -0.479 OA
ATOM     11  H   ALA A   1      37.569 -19.990 -19.955  0.00  0.00    +0.295 HD
ENDBRANCH   9  10
ENDBRANCH   1   9
TORSDOF 3
ENDMDL
MODEL 9
REMARK VINA RESULT:      -5.0      2.817      3.367
REMARK  Name = 88064
REMARK  3 active torsions:
REMARK  status: ('A' for Active; 'I' for Inactive)
REMARK    1  A    between atoms: CA_1  and  N_4
REMARK    2  A    between atoms: CA_1  and  C_9
REMARK    3  A    between atoms: C_9  and  O_10
REMARK                            x       y       z     vdW  Elec       q    Type
REMARK                         _______ _______ _______ _____ _____    ______ ____
ROOT
ATOM      1  CA  ALA A   1      36.368 -25.770 -14.363  0.00  0.00    +0.171 C 
ATOM      2  CB  ALA A   1      35.436 -25.046 -15.323  0.00  0.00    +0.033 C 
ENDROOT
BRANCH   1   4
ATOM      3  O   UNK A   0      36.464 -25.452 -11.480  0.00  0.00    -0.275 OA
ATOM      4  N   ALA A   1      37.155 -24.827 -13.613  0.00  0.00    -0.297 N 
ATOM      5  C   UNK A   0      37.136 -24.747 -12.228  0.00  0.00    +0.223 C 
ATOM      6  C   UNK A   0      38.070 -23.692 -11.700  0.00  0.00    +0.095 C 
ATOM      7  H   ALA A   1      37.737 -24.206 -14.108  0.00  0.00    +0.150 HD
ENDBRANCH   1   4
BRANCH   1   9
ATOM      8  OXT ALA A   1      38.345 -27.114 -14.721  0.00  0.00    -0.248 OA
ATOM      9  C   ALA A   1      37.242 -26.757 -15.119  0.00  0.00    +0.332 C 
BRANCH   9  10
ATOM     10  O   ALA A   1      36.712 -27.207 -16.282  0.00  0.00    -0.479 OA
ATOM     11  H   ALA A   1      35.997 -26.750 -16.679  0.00  0.00    +0.295 HD
ENDBRANCH   9  10
ENDBRANCH   1   9
TORSDOF 3
ENDMDL
