MODEL 1
REMARK VINA RESULT:      -9.3      0.000      0.000
REMARK  Name = 2372
REMARK  11 active torsions:
REMARK  status: ('A' for Active; 'I' for Inactive)
REMARK    1  A    between atoms: N_1  and  C_4
REMARK    2  A    between atoms: N_1  and  C_17
REMARK    3  A    between atoms: C_4  and  C_5
REMARK    4  A    between atoms: C_5  and  O_6
REMARK    5  A    between atoms: C_5  and  C_8
REMARK    6  A    between atoms: C_8  and  O_9
REMARK    7  A    between atoms: O_9  and  C_10
REMARK    8  A    between atoms: C_17  and  C_18
REMARK    9  A    between atoms: C_18  and  C_19
REMARK   10  A    between atoms: C_22  and  O_25
REMARK   11  A    between atoms: C_24  and  O_27
REMARK                            x       y       z     vdW  Elec       q    Type
REMARK                         _______ _______ _______ _____ _____    ______ ____
ROOT
ATOM      1  N   UNL     1      36.093 -17.960 -23.171  0.00  0.00    +0.386 N 
ATOM      2  H   UNL     1      36.403 -17.001 -23.015  0.00  0.00    -0.084 HD
ATOM      3  H   UNL     1      36.746 -18.451 -23.782  0.00  0.00    -0.084 HD
ENDROOT
BRANCH   1   4
ATOM      4  C   UNL     1      34.784 -17.940 -23.811  0.00  0.00    -0.048 C 
BRANCH   4   5
ATOM      5  C   UNL     1      34.741 -16.979 -25.002  0.00  0.00    +0.133 C 
BRANCH   5   6
ATOM      6  O   UNL     1      33.740 -17.442 -25.912  0.00  0.00    -0.383 OA
ATOM      7  H   UNL     1      34.097 -18.171 -26.441  0.00  0.00    +0.210 HD
ENDBRANCH   5   6
BRANCH   5   8
ATOM      8  C   UNL     1      34.411 -15.541 -24.606  0.00  0.00    +0.232 C 
BRANCH   8   9
ATOM      9  O   UNL     1      34.916 -15.296 -23.297  0.00  0.00    -0.473 OA
BRANCH   9  10
ATOM     10  C   UNL     1      34.032 -14.795 -22.380  0.00  0.00    +0.138 C 
ATOM     11  C   UNL     1      33.341 -13.614 -22.652  0.00  0.00    +0.033 C 
ATOM     12  C   UNL     1      32.440 -13.102 -21.718  0.00  0.00    -0.019 C 
ATOM     13  C   UNL     1      33.823 -15.463 -21.174  0.00  0.00    +0.037 C 
ATOM     14  C   UNL     1      32.231 -13.771 -20.512  0.00  0.00    -0.004 C 
ATOM     15  C   UNL     1      32.923 -14.951 -20.240  0.00  0.00    +0.003 C 
ATOM     16  C   UNL     1      31.702 -11.839 -22.007  0.00  0.00    +0.031 C 
ENDBRANCH   9  10
ENDBRANCH   8   9
ENDBRANCH   5   8
ENDBRANCH   4   5
ENDBRANCH   1   4
BRANCH   1  17
ATOM     17  C   UNL     1      36.038 -18.658 -21.894  0.00  0.00    -0.077 C 
BRANCH  17  18
ATOM     18  C   UNL     1      34.594 -18.991 -21.514  0.00  0.00    +0.003 C 
BRANCH  18  19
ATOM     19  C   UNL     1      34.530 -20.125 -20.523  0.00  0.00    -0.021 C 
ATOM     20  C   UNL     1      35.699 -20.593 -19.923  0.00  0.00    +0.036 C 
ATOM     21  C   UNL     1      33.302 -20.707 -20.206  0.00  0.00    -0.001 C 
ATOM     22  C   UNL     1      35.640 -21.642 -19.006  0.00  0.00    +0.172 C 
ATOM     23  C   UNL     1      33.243 -21.755 -19.289  0.00  0.00    +0.040 C 
ATOM     24  C   UNL     1      34.412 -22.223 -18.689  0.00  0.00    +0.172 C 
BRANCH  22  25
ATOM     25  O   UNL     1      36.788 -22.092 -18.427  0.00  0.00    -0.468 OA
ATOM     26  C   UNL     1      37.081 -21.616 -17.115  0.00  0.00    +0.253 C 
ENDBRANCH  22  25
BRANCH  24  27
ATOM     27  O   UNL     1      34.342 -23.249 -17.795  0.00  0.00    -0.468 OA
ATOM     28  C   UNL     1      33.161 -23.335 -17.000  0.00  0.00    +0.253 C 
ENDBRANCH  24  27
ENDBRANCH  18  19
ENDBRANCH  17  18
ENDBRANCH   1  17
TORSDOF 11
ENDMDL
MODEL 2
REMARK VINA RESULT:      -9.0      2.581      8.903
REMARK  Name = 2372
REMARK  11 active torsions:
REMARK  status: ('A' for Active; 'I' for Inactive)
REMARK    1  A    between atoms: N_1  and  C_4
REMARK    2  A    between atoms: N_1  and  C_17
REMARK    3  A    between atoms: C_4  and  C_5
REMARK    4  A    between atoms: C_5  and  O_6
REMARK    5  A    between atoms: C_5  and  C_8
REMARK    6  A    between atoms: C_8  and  O_9
REMARK    7  A    between atoms: O_9  and  C_10
REMARK    8  A    between atoms: C_17  and  C_18
REMARK    9  A    between atoms: C_18  and  C_19
REMARK   10  A    between atoms: C_22  and  O_25
REMARK   11  A    between atoms: C_24  and  O_27
REMARK                            x       y       z     vdW  Elec       q    Type
REMARK                         _______ _______ _______ _____ _____    ______ ____
ROOT
ATOM      1  N   UNL     1      34.282 -15.429 -22.551  0.00  0.00    +0.386 N 
ATOM      2  H   UNL     1      34.861 -14.810 -21.984  0.00  0.00    -0.084 HD
ATOM      3  H   UNL     1      34.067 -16.284 -22.039  0.00  0.00    -0.084 HD
ENDROOT
BRANCH   1   4
ATOM      4  C   UNL     1      35.008 -15.784 -23.763  0.00  0.00    -0.048 C 
BRANCH   4   5
ATOM      5  C   UNL     1      34.488 -17.082 -24.386  0.00  0.00    +0.133 C 
BRANCH   5   6
ATOM      6  O   UNL     1      34.860 -17.094 -25.767  0.00  0.00    -0.383 OA
ATOM      7  H   UNL     1      35.713 -17.543 -25.869  0.00  0.00    +0.210 HD
ENDBRANCH   5   6
BRANCH   5   8
ATOM      8  C   UNL     1      35.047 -18.338 -23.721  0.00  0.00    +0.232 C 
BRANCH   8   9
ATOM      9  O   UNL     1      35.210 -18.087 -22.328  0.00  0.00    -0.473 OA
BRANCH   9  10
ATOM     10  C   UNL     1      34.814 -19.081 -21.474  0.00  0.00    +0.138 C 
ATOM     11  C   UNL     1      35.767 -19.816 -20.770  0.00  0.00    +0.033 C 
ATOM     12  C   UNL     1      35.365 -20.829 -19.900  0.00  0.00    -0.019 C 
ATOM     13  C   UNL     1      33.457 -19.360 -21.309  0.00  0.00    +0.037 C 
ATOM     14  C   UNL     1      34.008 -21.108 -19.734  0.00  0.00    -0.004 C 
ATOM     15  C   UNL     1      33.054 -20.374 -20.439  0.00  0.00    +0.003 C 
ATOM     16  C   UNL     1      36.384 -21.616 -19.147  0.00  0.00    +0.031 C 
ENDBRANCH   9  10
ENDBRANCH   8   9
ENDBRANCH   5   8
ENDBRANCH   4   5
ENDBRANCH   1   4
BRANCH   1  17
ATOM     17  C   UNL     1      33.032 -14.752 -22.872  0.00  0.00    -0.077 C 
BRANCH  17  18
ATOM     18  C   UNL     1      32.312 -14.301 -21.600  0.00  0.00    +0.003 C 
BRANCH  18  19
ATOM     19  C   UNL     1      32.151 -12.803 -21.557  0.00  0.00    -0.021 C 
ATOM     20  C   UNL     1      32.493 -12.033 -22.668  0.00  0.00    +0.036 C 
ATOM     21  C   UNL     1      31.663 -12.187 -20.405  0.00  0.00    -0.001 C 
ATOM     22  C   UNL     1      32.345 -10.647 -22.629  0.00  0.00    +0.172 C 
ATOM     23  C   UNL     1      31.515 -10.801 -20.364  0.00  0.00    +0.040 C 
ATOM     24  C   UNL     1      31.857 -10.031 -21.476  0.00  0.00    +0.172 C 
BRANCH  22  25
ATOM     25  O   UNL     1      32.683  -9.904 -23.720  0.00  0.00    -0.468 OA
ATOM     26  C   UNL     1      34.056  -9.912 -24.107  0.00  0.00    +0.253 C 
ENDBRANCH  22  25
BRANCH  24  27
ATOM     27  O   UNL     1      31.708  -8.677 -21.425  0.00  0.00    -0.468 OA
ATOM     28  C   UNL     1      32.426  -7.985 -20.406  0.00  0.00    +0.253 C 
ENDBRANCH  24  27
ENDBRANCH  18  19
ENDBRANCH  17  18
ENDBRANCH   1  17
TORSDOF 11
ENDMDL
MODEL 3
REMARK VINA RESULT:      -9.0      2.629      8.947
REMARK  Name = 2372
REMARK  11 active torsions:
REMARK  status: ('A' for Active; 'I' for Inactive)
REMARK    1  A    between atoms: N_1  and  C_4
REMARK    2  A    between atoms: N_1  and  C_17
REMARK    3  A    between atoms: C_4  and  C_5
REMARK    4  A    between atoms: C_5  and  O_6
REMARK    5  A    between atoms: C_5  and  C_8
REMARK    6  A    between atoms: C_8  and  O_9
REMARK    7  A    between atoms: O_9  and  C_10
REMARK    8  A    between atoms: C_17  and  C_18
REMARK    9  A    between atoms: C_18  and  C_19
REMARK   10  A    between atoms: C_22  and  O_25
REMARK   11  A    between atoms: C_24  and  O_27
REMARK                            x       y       z     vdW  Elec       q    Type
REMARK                         _______ _______ _______ _____ _____    ______ ____
ROOT
ATOM      1  N   UNL     1      34.234 -15.713 -22.471  0.00  0.00    +0.386 N 
ATOM      2  H   UNL     1      34.798 -15.218 -21.779  0.00  0.00    -0.084 HD
ATOM      3  H   UNL     1      33.863 -16.577 -22.077  0.00  0.00    -0.084 HD
ENDROOT
BRANCH   1   4
ATOM      4  C   UNL     1      35.070 -16.048 -23.616  0.00  0.00    -0.048 C 
BRANCH   4   5
ATOM      5  C   UNL     1      34.570 -17.296 -24.348  0.00  0.00    +0.133 C 
BRANCH   5   6
ATOM      6  O   UNL     1      34.922 -17.174 -25.729  0.00  0.00    -0.383 OA
ATOM      7  H   UNL     1      35.081 -16.242 -25.941  0.00  0.00    +0.210 HD
ENDBRANCH   5   6
BRANCH   5   8
ATOM      8  C   UNL     1      35.165 -18.594 -23.807  0.00  0.00    +0.232 C 
BRANCH   8   9
ATOM      9  O   UNL     1      35.491 -18.412 -22.432  0.00  0.00    -0.473 OA
BRANCH   9  10
ATOM     10  C   UNL     1      34.915 -19.279 -21.544  0.00  0.00    +0.138 C 
ATOM     11  C   UNL     1      35.717 -20.063 -20.714  0.00  0.00    +0.033 C 
ATOM     12  C   UNL     1      35.130 -20.946 -19.809  0.00  0.00    -0.019 C 
ATOM     13  C   UNL     1      33.526 -19.380 -21.468  0.00  0.00    +0.037 C 
ATOM     14  C   UNL     1      33.741 -21.047 -19.733  0.00  0.00    -0.004 C 
ATOM     15  C   UNL     1      32.939 -20.264 -20.563  0.00  0.00    +0.003 C 
ATOM     16  C   UNL     1      35.987 -21.785 -18.922  0.00  0.00    +0.031 C 
ENDBRANCH   9  10
ENDBRANCH   8   9
ENDBRANCH   5   8
ENDBRANCH   4   5
ENDBRANCH   1   4
BRANCH   1  17
ATOM     17  C   UNL     1      33.118 -14.866 -22.870  0.00  0.00    -0.077 C 
BRANCH  17  18
ATOM     18  C   UNL     1      33.576 -13.784 -23.850  0.00  0.00    +0.003 C 
BRANCH  18  19
ATOM     19  C   UNL     1      33.108 -12.417 -23.422  0.00  0.00    -0.021 C 
ATOM     20  C   UNL     1      32.192 -12.288 -22.377  0.00  0.00    +0.036 C 
ATOM     21  C   UNL     1      33.590 -11.280 -24.070  0.00  0.00    -0.001 C 
ATOM     22  C   UNL     1      31.759 -11.024 -21.981  0.00  0.00    +0.172 C 
ATOM     23  C   UNL     1      33.157 -10.015 -23.674  0.00  0.00    +0.040 C 
ATOM     24  C   UNL     1      32.241  -9.886 -22.630  0.00  0.00    +0.172 C 
BRANCH  22  25
ATOM     25  O   UNL     1      30.863 -10.910 -20.961  0.00  0.00    -0.468 OA
ATOM     26  C   UNL     1      31.335 -11.210 -19.649  0.00  0.00    +0.253 C 
ENDBRANCH  22  25
BRANCH  24  27
ATOM     27  O   UNL     1      31.825  -8.645 -22.252  0.00  0.00    -0.468 OA
ATOM     28  C   UNL     1      32.631  -7.955 -21.299  0.00  0.00    +0.253 C 
ENDBRANCH  24  27
ENDBRANCH  18  19
ENDBRANCH  17  18
ENDBRANCH   1  17
TORSDOF 11
ENDMDL
MODEL 4
REMARK VINA RESULT:      -8.9      1.932      8.666
REMARK  Name = 2372
REMARK  11 active torsions:
REMARK  status: ('A' for Active; 'I' for Inactive)
REMARK    1  A    between atoms: N_1  and  C_4
REMARK    2  A    between atoms: N_1  and  C_17
REMARK    3  A    between atoms: C_4  and  C_5
REMARK    4  A    between atoms: C_5  and  O_6
REMARK    5  A    between atoms: C_5  and  C_8
REMARK    6  A    between atoms: C_8  and  O_9
REMARK    7  A    between atoms: O_9  and  C_10
REMARK    8  A    between atoms: C_17  and  C_18
REMARK    9  A    between atoms: C_18  and  C_19
REMARK   10  A    between atoms: C_22  and  O_25
REMARK   11  A    between atoms: C_24  and  O_27
REMARK                            x       y       z     vdW  Elec       q    Type
REMARK                         _______ _______ _______ _____ _____    ______ ____
ROOT
ATOM      1  N   UNL     1      36.215 -20.410 -19.635  0.00  0.00    +0.386 N 
ATOM      2  H   UNL     1      37.179 -20.476 -19.307  0.00  0.00    -0.084 HD
ATOM      3  H   UNL     1      35.608 -20.062 -18.893  0.00  0.00    -0.084 HD
ENDROOT
BRANCH   1   4
ATOM      4  C   UNL     1      35.754 -21.735 -20.028  0.00  0.00    -0.048 C 
BRANCH   4   5
ATOM      5  C   UNL     1      34.598 -22.225 -19.152  0.00  0.00    +0.133 C 
BRANCH   5   6
ATOM      6  O   UNL     1      34.172 -23.497 -19.647  0.00  0.00    -0.383 OA
ATOM      7  H   UNL     1      34.941 -24.076 -19.757  0.00  0.00    +0.210 HD
ENDBRANCH   5   6
BRANCH   5   8
ATOM      8  C   UNL     1      34.978 -22.378 -17.680  0.00  0.00    +0.232 C 
BRANCH   8   9
ATOM      9  O   UNL     1      34.378 -23.565 -17.171  0.00  0.00    -0.473 OA
BRANCH   9  10
ATOM     10  C   UNL     1      33.340 -23.403 -16.294  0.00  0.00    +0.138 C 
ATOM     11  C   UNL     1      32.050 -23.175 -16.774  0.00  0.00    +0.033 C 
ATOM     12  C   UNL     1      30.992 -23.009 -15.881  0.00  0.00    -0.019 C 
ATOM     13  C   UNL     1      33.571 -23.464 -14.920  0.00  0.00    +0.037 C 
ATOM     14  C   UNL     1      31.224 -23.070 -14.507  0.00  0.00    -0.004 C 
ATOM     15  C   UNL     1      32.513 -23.297 -14.026  0.00  0.00    +0.003 C 
ATOM     16  C   UNL     1      29.613 -22.764 -16.394  0.00  0.00    +0.031 C 
ENDBRANCH   9  10
ENDBRANCH   8   9
ENDBRANCH   5   8
ENDBRANCH   4   5
ENDBRANCH   1   4
BRANCH   1  17
ATOM     17  C   UNL     1      36.156 -19.485 -20.758  0.00  0.00    -0.077 C 
BRANCH  17  18
ATOM     18  C   UNL     1      34.922 -19.751 -21.623  0.00  0.00    +0.003 C 
BRANCH  18  19
ATOM     19  C   UNL     1      34.815 -18.760 -22.754  0.00  0.00    -0.021 C 
ATOM     20  C   UNL     1      34.975 -17.397 -22.505  0.00  0.00    +0.036 C 
ATOM     21  C   UNL     1      34.554 -19.206 -24.050  0.00  0.00    -0.001 C 
ATOM     22  C   UNL     1      34.875 -16.480 -23.550  0.00  0.00    +0.172 C 
ATOM     23  C   UNL     1      34.454 -18.290 -25.096  0.00  0.00    +0.040 C 
ATOM     24  C   UNL     1      34.614 -16.927 -24.847  0.00  0.00    +0.172 C 
BRANCH  22  25
ATOM     25  O   UNL     1      35.031 -15.151 -23.295  0.00  0.00    -0.468 OA
ATOM     26  C   UNL     1      34.311 -14.617 -22.187  0.00  0.00    +0.253 C 
ENDBRANCH  22  25
BRANCH  24  27
ATOM     27  O   UNL     1      34.514 -16.041 -25.877  0.00  0.00    -0.468 OA
ATOM     28  C   UNL     1      33.250 -15.411 -26.069  0.00  0.00    +0.253 C 
ENDBRANCH  24  27
ENDBRANCH  18  19
ENDBRANCH  17  18
ENDBRANCH   1  17
TORSDOF 11
ENDMDL
MODEL 5
REMARK VINA RESULT:      -8.9      3.715     10.009
REMARK  Name = 2372
REMARK  11 active torsions:
REMARK  status: ('A' for Active; 'I' for Inactive)
REMARK    1  A    between atoms: N_1  and  C_4
REMARK    2  A    between atoms: N_1  and  C_17
REMARK    3  A    between atoms: C_4  and  C_5
REMARK    4  A    between atoms: C_5  and  O_6
REMARK    5  A    between atoms: C_5  and  C_8
REMARK    6  A    between atoms: C_8  and  O_9
REMARK    7  A    between atoms: O_9  and  C_10
REMARK    8  A    between atoms: C_17  and  C_18
REMARK    9  A    between atoms: C_18  and  C_19
REMARK   10  A    between atoms: C_22  and  O_25
REMARK   11  A    between atoms: C_24  and  O_27
REMARK                            x       y       z     vdW  Elec       q    Type
REMARK                         _______ _______ _______ _____ _____    ______ ____
ROOT
ATOM      1  N   UNL     1      34.246 -12.804 -24.114  0.00  0.00    +0.386 N 
ATOM      2  H   UNL     1      34.967 -13.431 -24.473  0.00  0.00    -0.084 HD
ATOM      3  H   UNL     1      34.600 -12.273 -23.319  0.00  0.00    -0.084 HD
ENDROOT
BRANCH   1   4
ATOM      4  C   UNL     1      33.104 -13.593 -23.674  0.00  0.00    -0.048 C 
BRANCH   4   5
ATOM      5  C   UNL     1      33.217 -13.999 -22.202  0.00  0.00    +0.133 C 
BRANCH   5   6
ATOM      6  O   UNL     1      32.135 -14.884 -21.899  0.00  0.00    -0.383 OA
ATOM      7  H   UNL     1      31.401 -14.378 -21.518  0.00  0.00    +0.210 HD
ENDBRANCH   5   6
BRANCH   5   8
ATOM      8  C   UNL     1      34.530 -14.704 -21.869  0.00  0.00    +0.232 C 
BRANCH   8   9
ATOM      9  O   UNL     1      35.070 -15.260 -23.064  0.00  0.00    -0.473 OA
BRANCH   9  10
ATOM     10  C   UNL     1      34.946 -16.613 -23.224  0.00  0.00    +0.138 C 
ATOM     11  C   UNL     1      34.974 -17.453 -22.110  0.00  0.00    +0.033 C 
ATOM     12  C   UNL     1      34.848 -18.832 -22.273  0.00  0.00    -0.019 C 
ATOM     13  C   UNL     1      34.791 -17.153 -24.501  0.00  0.00    +0.037 C 
ATOM     14  C   UNL     1      34.692 -19.372 -23.550  0.00  0.00    -0.004 C 
ATOM     15  C   UNL     1      34.664 -18.533 -24.663  0.00  0.00    +0.003 C 
ATOM     16  C   UNL     1      34.879 -19.730 -21.083  0.00  0.00    +0.031 C 
ENDBRANCH   9  10
ENDBRANCH   8   9
ENDBRANCH   5   8
ENDBRANCH   4   5
ENDBRANCH   1   4
BRANCH   1  17
ATOM     17  C   UNL     1      33.861 -11.870 -25.163  0.00  0.00    -0.077 C 
BRANCH  17  18
ATOM     18  C   UNL     1      34.710 -10.599 -25.103  0.00  0.00    +0.003 C 
BRANCH  18  19
ATOM     19  C   UNL     1      34.171  -9.621 -24.091  0.00  0.00    -0.021 C 
ATOM     20  C   UNL     1      33.082  -9.972 -23.293  0.00  0.00    +0.036 C 
ATOM     21  C   UNL     1      34.759  -8.364 -23.953  0.00  0.00    -0.001 C 
ATOM     22  C   UNL     1      32.582  -9.068 -22.357  0.00  0.00    +0.172 C 
ATOM     23  C   UNL     1      34.260  -7.459 -23.018  0.00  0.00    +0.040 C 
ATOM     24  C   UNL     1      33.171  -7.810 -22.220  0.00  0.00    +0.172 C 
BRANCH  22  25
ATOM     25  O   UNL     1      31.517  -9.421 -21.584  0.00  0.00    -0.468 OA
ATOM     26  C   UNL     1      31.142 -10.797 -21.591  0.00  0.00    +0.253 C 
ENDBRANCH  22  25
BRANCH  24  27
ATOM     27  O   UNL     1      32.692  -6.918 -21.309  0.00  0.00    -0.468 OA
ATOM     28  C   UNL     1      31.796  -5.918 -21.790  0.00  0.00    +0.253 C 
ENDBRANCH  24  27
ENDBRANCH  18  19
ENDBRANCH  17  18
ENDBRANCH   1  17
TORSDOF 11
ENDMDL
MODEL 6
REMARK VINA RESULT:      -8.8      2.582      4.651
REMARK  Name = 2372
REMARK  11 active torsions:
REMARK  status: ('A' for Active; 'I' for Inactive)
REMARK    1  A    between atoms: N_1  and  C_4
REMARK    2  A    between atoms: N_1  and  C_17
REMARK    3  A    between atoms: C_4  and  C_5
REMARK    4  A    between atoms: C_5  and  O_6
REMARK    5  A    between atoms: C_5  and  C_8
REMARK    6  A    between atoms: C_8  and  O_9
REMARK    7  A    between atoms: O_9  and  C_10
REMARK    8  A    between atoms: C_17  and  C_18
REMARK    9  A    between atoms: C_18  and  C_19
REMARK   10  A    between atoms: C_22  and  O_25
REMARK   11  A    between atoms: C_24  and  O_27
REMARK                            x       y       z     vdW  Elec       q    Type
REMARK                         _______ _______ _______ _____ _____    ______ ____
ROOT
ATOM      1  N   UNL     1      33.062 -15.165 -25.699  0.00  0.00    +0.386 N 
ATOM      2  H   UNL     1      33.059 -15.208 -26.718  0.00  0.00    -0.084 HD
ATOM      3  H   UNL     1      32.316 -15.745 -25.315  0.00  0.00    -0.084 HD
ENDROOT
BRANCH   1   4
ATOM      4  C   UNL     1      32.842 -13.788 -25.278  0.00  0.00    -0.048 C 
BRANCH   4   5
ATOM      5  C   UNL     1      33.481 -13.493 -23.918  0.00  0.00    +0.133 C 
BRANCH   5   6
ATOM      6  O   UNL     1      34.252 -12.295 -24.039  0.00  0.00    -0.383 OA
ATOM      7  H   UNL     1      34.075 -11.718 -23.281  0.00  0.00    +0.210 HD
ENDBRANCH   5   6
BRANCH   5   8
ATOM      8  C   UNL     1      32.459 -13.304 -22.798  0.00  0.00    +0.232 C 
BRANCH   8   9
ATOM      9  O   UNL     1      31.914 -11.991 -22.891  0.00  0.00    -0.473 OA
BRANCH   9  10
ATOM     10  C   UNL     1      31.851 -11.268 -21.730  0.00  0.00    +0.138 C 
ATOM     11  C   UNL     1      32.063  -9.890 -21.755  0.00  0.00    +0.033 C 
ATOM     12  C   UNL     1      32.000  -9.153 -20.573  0.00  0.00    -0.019 C 
ATOM     13  C   UNL     1      31.576 -11.910 -20.522  0.00  0.00    +0.037 C 
ATOM     14  C   UNL     1      31.725  -9.794 -19.365  0.00  0.00    -0.004 C 
ATOM     15  C   UNL     1      31.513 -11.172 -19.340  0.00  0.00    +0.003 C 
ATOM     16  C   UNL     1      32.228  -7.679 -20.599  0.00  0.00    +0.031 C 
ENDBRANCH   9  10
ENDBRANCH   8   9
ENDBRANCH   5   8
ENDBRANCH   4   5
ENDBRANCH   1   4
BRANCH   1  17
ATOM     17  C   UNL     1      34.339 -15.663 -25.204  0.00  0.00    -0.077 C 
BRANCH  17  18
ATOM     18  C   UNL     1      34.388 -17.191 -25.255  0.00  0.00    +0.003 C 
BRANCH  18  19
ATOM     19  C   UNL     1      34.712 -17.780 -23.906  0.00  0.00    -0.021 C 
ATOM     20  C   UNL     1      34.843 -16.946 -22.795  0.00  0.00    +0.036 C 
ATOM     21  C   UNL     1      34.883 -19.157 -23.768  0.00  0.00    -0.001 C 
ATOM     22  C   UNL     1      35.143 -17.490 -21.547  0.00  0.00    +0.172 C 
ATOM     23  C   UNL     1      35.183 -19.702 -22.521  0.00  0.00    +0.040 C 
ATOM     24  C   UNL     1      35.314 -18.868 -21.409  0.00  0.00    +0.172 C 
BRANCH  22  25
ATOM     25  O   UNL     1      35.270 -16.667 -20.469  0.00  0.00    -0.468 OA
ATOM     26  C   UNL     1      34.535 -15.445 -20.498  0.00  0.00    +0.253 C 
ENDBRANCH  22  25
BRANCH  24  27
ATOM     27  O   UNL     1      35.607 -19.412 -20.195  0.00  0.00    -0.468 OA
ATOM     28  C   UNL     1      35.471 -20.825 -20.067  0.00  0.00    +0.253 C 
ENDBRANCH  24  27
ENDBRANCH  18  19
ENDBRANCH  17  18
ENDBRANCH   1  17
TORSDOF 11
ENDMDL
MODEL 7
REMARK VINA RESULT:      -8.8      1.804      8.686
REMARK  Name = 2372
REMARK  11 active torsions:
REMARK  status: ('A' for Active; 'I' for Inactive)
REMARK    1  A    between atoms: N_1  and  C_4
REMARK    2  A    between atoms: N_1  and  C_17
REMARK    3  A    between atoms: C_4  and  C_5
REMARK    4  A    between atoms: C_5  and  O_6
REMARK    5  A    between atoms: C_5  and  C_8
REMARK    6  A    between atoms: C_8  and  O_9
REMARK    7  A    between atoms: O_9  and  C_10
REMARK    8  A    between atoms: C_17  and  C_18
REMARK    9  A    between atoms: C_18  and  C_19
REMARK   10  A    between atoms: C_22  and  O_25
REMARK   11  A    between atoms: C_24  and  O_27
REMARK                            x       y       z     vdW  Elec       q    Type
REMARK                         _______ _______ _______ _____ _____    ______ ____
ROOT
ATOM      1  N   UNL     1      35.813 -19.626 -20.429  0.00  0.00    +0.386 N 
ATOM      2  H   UNL     1      36.632 -20.225 -20.323  0.00  0.00    -0.084 HD
ATOM      3  H   UNL     1      35.557 -19.209 -19.534  0.00  0.00    -0.084 HD
ENDROOT
BRANCH   1   4
ATOM      4  C   UNL     1      34.694 -20.427 -20.905  0.00  0.00    -0.048 C 
BRANCH   4   5
ATOM      5  C   UNL     1      33.890 -21.035 -19.752  0.00  0.00    +0.133 C 
BRANCH   5   6
ATOM      6  O   UNL     1      32.667 -21.551 -20.285  0.00  0.00    -0.383 OA
ATOM      7  H   UNL     1      32.865 -22.200 -20.978  0.00  0.00    +0.210 HD
ENDBRANCH   5   6
BRANCH   5   8
ATOM      8  C   UNL     1      34.624 -22.166 -19.034  0.00  0.00    +0.232 C 
BRANCH   8   9
ATOM      9  O   UNL     1      33.680 -23.167 -18.666  0.00  0.00    -0.473 OA
BRANCH   9  10
ATOM     10  C   UNL     1      33.325 -23.221 -17.346  0.00  0.00    +0.138 C 
ATOM     11  C   UNL     1      31.990 -23.059 -16.975  0.00  0.00    +0.033 C 
ATOM     12  C   UNL     1      31.627 -23.114 -15.629  0.00  0.00    -0.019 C 
ATOM     13  C   UNL     1      34.298 -23.439 -16.370  0.00  0.00    +0.037 C 
ATOM     14  C   UNL     1      32.600 -23.332 -14.654  0.00  0.00    -0.004 C 
ATOM     15  C   UNL     1      33.935 -23.494 -15.023  0.00  0.00    +0.003 C 
ATOM     16  C   UNL     1      30.200 -22.940 -15.233  0.00  0.00    +0.031 C 
ENDBRANCH   9  10
ENDBRANCH   8   9
ENDBRANCH   5   8
ENDBRANCH   4   5
ENDBRANCH   1   4
BRANCH   1  17
ATOM     17  C   UNL     1      36.123 -18.556 -21.368  0.00  0.00    -0.077 C 
BRANCH  17  18
ATOM     18  C   UNL     1      35.550 -18.860 -22.753  0.00  0.00    +0.003 C 
BRANCH  18  19
ATOM     19  C   UNL     1      34.928 -17.636 -23.375  0.00  0.00    -0.021 C 
ATOM     20  C   UNL     1      34.595 -16.541 -22.578  0.00  0.00    +0.036 C 
ATOM     21  C   UNL     1      34.683 -17.598 -24.748  0.00  0.00    -0.001 C 
ATOM     22  C   UNL     1      34.019 -15.409 -23.152  0.00  0.00    +0.172 C 
ATOM     23  C   UNL     1      34.108 -16.467 -25.323  0.00  0.00    +0.040 C 
ATOM     24  C   UNL     1      33.775 -15.371 -24.526  0.00  0.00    +0.172 C 
BRANCH  22  25
ATOM     25  O   UNL     1      33.697 -14.346 -22.363  0.00  0.00    -0.468 OA
ATOM     26  C   UNL     1      32.529 -14.471 -21.555  0.00  0.00    +0.253 C 
ENDBRANCH  22  25
BRANCH  24  27
ATOM     27  O   UNL     1      33.213 -14.271 -25.099  0.00  0.00    -0.468 OA
ATOM     28  C   UNL     1      33.030 -14.299 -26.513  0.00  0.00    +0.253 C 
ENDBRANCH  24  27
ENDBRANCH  18  19
ENDBRANCH  17  18
ENDBRANCH   1  17
TORSDOF 11
ENDMDL
MODEL 8
REMARK VINA RESULT:      -8.8      1.680      2.949
REMARK  Name = 2372
REMARK  11 active torsions:
REMARK  status: ('A' for Active; 'I' for Inactive)
REMARK    1  A    between atoms: N_1  and  C_4
REMARK    2  A    between atoms: N_1  and  C_17
REMARK    3  A    between atoms: C_4  and  C_5
REMARK    4  A    between atoms: C_5  and  O_6
REMARK    5  A    between atoms: C_5  and  C_8
REMARK    6  A    between atoms: C_8  and  O_9
REMARK    7  A    between atoms: O_9  and  C_10
REMARK    8  A    between atoms: C_17  and  C_18
REMARK    9  A    between atoms: C_18  and  C_19
REMARK   10  A    between atoms: C_22  and  O_25
REMARK   11  A    between atoms: C_24  and  O_27
REMARK                            x       y       z     vdW  Elec       q    Type
REMARK                         _______ _______ _______ _____ _____    ______ ____
ROOT
ATOM      1  N   UNL     1      35.246 -17.050 -21.478  0.00  0.00    +0.386 N 
ATOM      2  H   UNL     1      35.940 -16.701 -20.816  0.00  0.00    -0.084 HD
ATOM      3  H   UNL     1      35.304 -16.537 -22.358  0.00  0.00    -0.084 HD
ENDROOT
BRANCH   1   4
ATOM      4  C   UNL     1      33.915 -16.862 -20.918  0.00  0.00    -0.048 C 
BRANCH   4   5
ATOM      5  C   UNL     1      33.566 -15.381 -20.747  0.00  0.00    +0.133 C 
BRANCH   5   6
ATOM      6  O   UNL     1      34.788 -14.646 -20.633  0.00  0.00    -0.383 OA
ATOM      7  H   UNL     1      35.516 -15.256 -20.444  0.00  0.00    +0.210 HD
ENDBRANCH   5   6
BRANCH   5   8
ATOM      8  C   UNL     1      32.761 -14.811 -21.912  0.00  0.00    +0.232 C 
BRANCH   8   9
ATOM      9  O   UNL     1      33.358 -15.232 -23.134  0.00  0.00    -0.473 OA
BRANCH   9  10
ATOM     10  C   UNL     1      33.423 -14.305 -24.139  0.00  0.00    +0.138 C 
ATOM     11  C   UNL     1      33.842 -13.004 -23.862  0.00  0.00    +0.033 C 
ATOM     12  C   UNL     1      33.908 -12.059 -24.885  0.00  0.00    -0.019 C 
ATOM     13  C   UNL     1      33.070 -14.661 -25.441  0.00  0.00    +0.037 C 
ATOM     14  C   UNL     1      33.554 -12.415 -26.187  0.00  0.00    -0.004 C 
ATOM     15  C   UNL     1      33.135 -13.715 -26.464  0.00  0.00    +0.003 C 
ATOM     16  C   UNL     1      34.354 -10.667 -24.588  0.00  0.00    +0.031 C 
ENDBRANCH   9  10
ENDBRANCH   8   9
ENDBRANCH   5   8
ENDBRANCH   4   5
ENDBRANCH   1   4
BRANCH   1  17
ATOM     17  C   UNL     1      35.506 -18.458 -21.744  0.00  0.00    -0.077 C 
BRANCH  17  18
ATOM     18  C   UNL     1      34.223 -19.283 -21.625  0.00  0.00    +0.003 C 
BRANCH  18  19
ATOM     19  C   UNL     1      34.330 -20.318 -20.535  0.00  0.00    -0.021 C 
ATOM     20  C   UNL     1      35.573 -20.618 -19.977  0.00  0.00    +0.036 C 
ATOM     21  C   UNL     1      33.187 -20.979 -20.084  0.00  0.00    -0.001 C 
ATOM     22  C   UNL     1      35.673 -21.576 -18.969  0.00  0.00    +0.172 C 
ATOM     23  C   UNL     1      33.285 -21.937 -19.076  0.00  0.00    +0.040 C 
ATOM     24  C   UNL     1      34.528 -22.236 -18.519  0.00  0.00    +0.172 C 
BRANCH  22  25
ATOM     25  O   UNL     1      36.892 -21.862 -18.432  0.00  0.00    -0.468 OA
ATOM     26  C   UNL     1      37.117 -21.454 -17.084  0.00  0.00    +0.253 C 
ENDBRANCH  22  25
BRANCH  24  27
ATOM     27  O   UNL     1      34.613 -23.174 -17.534  0.00  0.00    -0.468 OA
ATOM     28  C   UNL     1      33.476 -23.330 -16.688  0.00  0.00    +0.253 C 
ENDBRANCH  24  27
ENDBRANCH  18  19
ENDBRANCH  17  18
ENDBRANCH   1  17
TORSDOF 11
ENDMDL
MODEL 9
REMARK VINA RESULT:      -8.7      1.965      2.957
REMARK  Name = 2372
REMARK  11 active torsions:
REMARK  status: ('A' for Active; 'I' for Inactive)
REMARK    1  A    between atoms: N_1  and  C_4
REMARK    2  A    between atoms: N_1  and  C_17
REMARK    3  A    between atoms: C_4  and  C_5
REMARK    4  A    between atoms: C_5  and  O_6
REMARK    5  A    between atoms: C_5  and  C_8
REMARK    6  A    between atoms: C_8  and  O_9
REMARK    7  A    between atoms: O_9  and  C_10
REMARK    8  A    between atoms: C_17  and  C_18
REMARK    9  A    between atoms: C_18  and  C_19
REMARK   10  A    between atoms: C_22  and  O_25
REMARK   11  A    between atoms: C_24  and  O_27
REMARK                            x       y       z     vdW  Elec       q    Type
REMARK                         _______ _______ _______ _____ _____    ______ ____
ROOT
ATOM      1  N   UNL     1      34.818 -15.781 -21.762  0.00  0.00    +0.386 N 
ATOM      2  H   UNL     1      34.504 -15.155 -21.020  0.00  0.00    -0.084 HD
ATOM      3  H   UNL     1      35.831 -15.889 -21.733  0.00  0.00    -0.084 HD
ENDROOT
BRANCH   1   4
ATOM      4  C   UNL     1      34.448 -15.213 -23.052  0.00  0.00    -0.048 C 
BRANCH   4   5
ATOM      5  C   UNL     1      33.857 -13.807 -22.913  0.00  0.00    +0.133 C 
BRANCH   5   6
ATOM      6  O   UNL     1      33.591 -13.305 -24.225  0.00  0.00    -0.383 OA
ATOM      7  H   UNL     1      33.744 -12.347 -24.242  0.00  0.00    +0.210 HD
ENDBRANCH   5   6
BRANCH   5   8
ATOM      8  C   UNL     1      32.560 -13.774 -22.107  0.00  0.00    +0.232 C 
BRANCH   8   9
ATOM      9  O   UNL     1      31.831 -12.602 -22.457  0.00  0.00    -0.473 OA
BRANCH   9  10
ATOM     10  C   UNL     1      31.806 -11.594 -21.532  0.00  0.00    +0.138 C 
ATOM     11  C   UNL     1      31.940 -10.267 -21.942  0.00  0.00    +0.033 C 
ATOM     12  C   UNL     1      31.916  -9.239 -21.000  0.00  0.00    -0.019 C 
ATOM     13  C   UNL     1      31.648 -11.892 -20.178  0.00  0.00    +0.037 C 
ATOM     14  C   UNL     1      31.757  -9.538 -19.646  0.00  0.00    -0.004 C 
ATOM     15  C   UNL     1      31.624 -10.864 -19.236  0.00  0.00    +0.003 C 
ATOM     16  C   UNL     1      32.060  -7.821 -21.438  0.00  0.00    +0.031 C 
ENDBRANCH   9  10
ENDBRANCH   8   9
ENDBRANCH   5   8
ENDBRANCH   4   5
ENDBRANCH   1   4
BRANCH   1  17
ATOM     17  C   UNL     1      34.204 -17.089 -21.575  0.00  0.00    -0.077 C 
BRANCH  17  18
ATOM     18  C   UNL     1      35.264 -18.191 -21.547  0.00  0.00    +0.003 C 
BRANCH  18  19
ATOM     19  C   UNL     1      34.754 -19.432 -20.860  0.00  0.00    -0.021 C 
ATOM     20  C   UNL     1      35.646 -20.289 -20.215  0.00  0.00    +0.036 C 
ATOM     21  C   UNL     1      33.390 -19.725 -20.870  0.00  0.00    -0.001 C 
ATOM     22  C   UNL     1      35.175 -21.437 -19.580  0.00  0.00    +0.172 C 
ATOM     23  C   UNL     1      32.919 -20.873 -20.235  0.00  0.00    +0.040 C 
ATOM     24  C   UNL     1      33.811 -21.730 -19.590  0.00  0.00    +0.172 C 
BRANCH  22  25
ATOM     25  O   UNL     1      36.056 -22.267 -18.954  0.00  0.00    -0.468 OA
ATOM     26  C   UNL     1      36.688 -21.770 -17.776  0.00  0.00    +0.253 C 
ENDBRANCH  22  25
BRANCH  24  27
ATOM     27  O   UNL     1      33.339 -22.848 -18.972  0.00  0.00    -0.468 OA
ATOM     28  C   UNL     1      32.867 -22.700 -17.635  0.00  0.00    +0.253 C 
ENDBRANCH  24  27
ENDBRANCH  18  19
ENDBRANCH  17  18
ENDBRANCH   1  17
TORSDOF 11
ENDMDL
