MODEL 1
REMARK VINA RESULT:      -8.2      0.000      0.000
REMARK  Name = 622262
REMARK  0 active torsions:
REMARK  status: ('A' for Active; 'I' for Inactive)
REMARK                            x       y       z     vdW  Elec       q    Type
REMARK                         _______ _______ _______ _____ _____    ______ ____
ROOT
ATOM      1  S   UNL     1      34.197 -16.643 -25.116  0.00  0.00    -0.054 S 
ATOM      2  O   UNL     1      33.307 -11.478 -25.354  0.00  0.00    -0.350 OA
ATOM      3  O   UNL     1      34.774 -19.715 -25.058  0.00  0.00    -0.295 OA
ATOM      4  N   UNL     1      33.850 -14.077 -24.433  0.00  0.00    -0.274 N 
ATOM      5  N   UNL     1      34.510 -15.630 -22.752  0.00  0.00    -0.388 NA
ATOM      6  C   UNL     1      34.916 -19.155 -21.414  0.00  0.00    +0.013 C 
ATOM      7  C   UNL     1      35.182 -17.621 -21.391  0.00  0.00    +0.056 C 
ATOM      8  C   UNL     1      35.419 -19.787 -22.743  0.00  0.00    +0.066 C 
ATOM      9  C   UNL     1      34.785 -16.980 -22.674  0.00  0.00    +0.106 C 
ATOM     10  C   UNL     1      35.671 -19.805 -20.240  0.00  0.00    +0.001 C 
ATOM     11  C   UNL     1      33.411 -19.441 -21.231  0.00  0.00    +0.001 C 
ATOM     12  C   UNL     1      34.673 -17.678 -23.857  0.00  0.00    +0.160 C 
ATOM     13  C   UNL     1      34.907 -19.092 -24.008  0.00  0.00    +0.167 C 
ATOM     14  C   UNL     1      34.187 -15.339 -23.994  0.00  0.00    +0.211 C 
ATOM     15  C   UNL     1      33.832 -12.946 -23.499  0.00  0.00    +0.126 C 
ATOM     16  C   UNL     1      33.054 -13.876 -25.648  0.00  0.00    +0.126 C 
ATOM     17  C   UNL     1      34.188 -11.666 -24.245  0.00  0.00    +0.164 C 
ATOM     18  C   UNL     1      33.438 -12.547 -26.292  0.00  0.00    +0.164 C 
ENDROOT
TORSDOF 0
ENDMDL
MODEL 2
REMARK VINA RESULT:      -8.0      2.720      3.086
REMARK  Name = 622262
REMARK  0 active torsions:
REMARK  status: ('A' for Active; 'I' for Inactive)
REMARK                            x       y       z     vdW  Elec       q    Type
REMARK                         _______ _______ _______ _____ _____    ______ ____
ROOT
ATOM      1  S   UNL     1      33.447 -14.442 -23.376  0.00  0.00    -0.054 S 
ATOM      2  O   UNL     1      30.942 -10.630 -20.785  0.00  0.00    -0.350 OA
ATOM      3  O   UNL     1      34.976 -16.648 -24.979  0.00  0.00    -0.295 OA
ATOM      4  N   UNL     1      32.362 -12.970 -21.420  0.00  0.00    -0.274 N 
ATOM      5  N   UNL     1      33.625 -14.902 -20.832  0.00  0.00    -0.388 NA
ATOM      6  C   UNL     1      35.247 -18.229 -21.657  0.00  0.00    +0.013 C 
ATOM      7  C   UNL     1      35.012 -16.985 -20.751  0.00  0.00    +0.056 C 
ATOM      8  C   UNL     1      35.808 -17.807 -23.045  0.00  0.00    +0.066 C 
ATOM      9  C   UNL     1      34.322 -15.894 -21.491  0.00  0.00    +0.106 C 
ATOM     10  C   UNL     1      36.268 -19.154 -20.970  0.00  0.00    +0.001 C 
ATOM     11  C   UNL     1      33.933 -19.018 -21.837  0.00  0.00    +0.001 C 
ATOM     12  C   UNL     1      34.336 -15.796 -22.866  0.00  0.00    +0.160 C 
ATOM     13  C   UNL     1      34.994 -16.721 -23.753  0.00  0.00    +0.167 C 
ATOM     14  C   UNL     1      33.120 -14.079 -21.726  0.00  0.00    +0.211 C 
ATOM     15  C   UNL     1      32.065 -12.636 -20.022  0.00  0.00    +0.126 C 
ATOM     16  C   UNL     1      31.441 -12.378 -22.396  0.00  0.00    +0.126 C 
ATOM     17  C   UNL     1      31.930 -11.125 -19.880  0.00  0.00    +0.164 C 
ATOM     18  C   UNL     1      31.324 -10.879 -22.138  0.00  0.00    +0.164 C 
ENDROOT
TORSDOF 0
ENDMDL
MODEL 3
REMARK VINA RESULT:      -7.9     10.935     12.422
REMARK  Name = 622262
REMARK  0 active torsions:
REMARK  status: ('A' for Active; 'I' for Inactive)
REMARK                            x       y       z     vdW  Elec       q    Type
REMARK                         _______ _______ _______ _____ _____    ______ ____
ROOT
ATOM      1  S   UNL     1      33.461 -24.094 -13.616  0.00  0.00    -0.054 S 
ATOM      2  O   UNL     1      38.403 -23.557 -15.290  0.00  0.00    -0.350 OA
ATOM      3  O   UNL     1      30.542 -24.381 -12.533  0.00  0.00    -0.295 OA
ATOM      4  N   UNL     1      35.597 -23.598 -15.153  0.00  0.00    -0.274 N 
ATOM      5  N   UNL     1      33.431 -23.107 -16.013  0.00  0.00    -0.388 NA
ATOM      6  C   UNL     1      29.655 -23.458 -15.993  0.00  0.00    +0.013 C 
ATOM      7  C   UNL     1      30.985 -22.781 -16.437  0.00  0.00    +0.056 C 
ATOM      8  C   UNL     1      29.484 -23.387 -14.449  0.00  0.00    +0.066 C 
ATOM      9  C   UNL     1      32.125 -23.204 -15.579  0.00  0.00    +0.106 C 
ATOM     10  C   UNL     1      28.479 -22.719 -16.657  0.00  0.00    +0.001 C 
ATOM     11  C   UNL     1      29.619 -24.929 -16.461  0.00  0.00    +0.001 C 
ATOM     12  C   UNL     1      31.958 -23.708 -14.307  0.00  0.00    +0.160 C 
ATOM     13  C   UNL     1      30.687 -23.901 -13.655  0.00  0.00    +0.167 C 
ATOM     14  C   UNL     1      34.223 -23.549 -15.060  0.00  0.00    +0.211 C 
ATOM     15  C   UNL     1      36.276 -23.142 -16.371  0.00  0.00    +0.126 C 
ATOM     16  C   UNL     1      36.390 -24.507 -14.319  0.00  0.00    +0.126 C 
ATOM     17  C   UNL     1      37.646 -22.583 -16.010  0.00  0.00    +0.164 C 
ATOM     18  C   UNL     1      37.761 -23.891 -14.059  0.00  0.00    +0.164 C 
ENDROOT
TORSDOF 0
ENDMDL
MODEL 4
REMARK VINA RESULT:      -7.7     11.425     13.545
REMARK  Name = 622262
REMARK  0 active torsions:
REMARK  status: ('A' for Active; 'I' for Inactive)
REMARK                            x       y       z     vdW  Elec       q    Type
REMARK                         _______ _______ _______ _____ _____    ______ ____
ROOT
ATOM      1  S   UNL     1      34.381 -24.164 -12.800  0.00  0.00    -0.054 S 
ATOM      2  O   UNL     1      39.177 -26.119 -13.632  0.00  0.00    -0.350 OA
ATOM      3  O   UNL     1      31.559 -22.942 -12.235  0.00  0.00    -0.295 OA
ATOM      4  N   UNL     1      36.566 -25.146 -13.996  0.00  0.00    -0.274 N 
ATOM      5  N   UNL     1      34.764 -24.384 -15.354  0.00  0.00    -0.388 NA
ATOM      6  C   UNL     1      31.140 -23.394 -15.873  0.00  0.00    +0.013 C 
ATOM      7  C   UNL     1      32.634 -23.474 -16.305  0.00  0.00    +0.056 C 
ATOM      8  C   UNL     1      30.987 -22.599 -14.545  0.00  0.00    +0.066 C 
ATOM      9  C   UNL     1      33.514 -23.833 -15.159  0.00  0.00    +0.106 C 
ATOM     10  C   UNL     1      30.345 -22.672 -16.977  0.00  0.00    +0.001 C 
ATOM     11  C   UNL     1      30.552 -24.811 -15.710  0.00  0.00    +0.001 C 
ATOM     12  C   UNL     1      33.149 -23.638 -13.845  0.00  0.00    +0.160 C 
ATOM     13  C   UNL     1      31.892 -23.085 -13.409  0.00  0.00    +0.167 C 
ATOM     14  C   UNL     1      35.314 -24.600 -14.178  0.00  0.00    +0.211 C 
ATOM     15  C   UNL     1      37.385 -25.530 -15.152  0.00  0.00    +0.126 C 
ATOM     16  C   UNL     1      36.940 -25.804 -12.740  0.00  0.00    +0.126 C 
ATOM     17  C   UNL     1      38.860 -25.368 -14.805  0.00  0.00    +0.164 C 
ATOM     18  C   UNL     1      38.439 -25.640 -12.508  0.00  0.00    +0.164 C 
ENDROOT
TORSDOF 0
ENDMDL
MODEL 5
REMARK VINA RESULT:      -7.7     10.699     12.879
REMARK  Name = 622262
REMARK  0 active torsions:
REMARK  status: ('A' for Active; 'I' for Inactive)
REMARK                            x       y       z     vdW  Elec       q    Type
REMARK                         _______ _______ _______ _____ _____    ______ ____
ROOT
ATOM      1  S   UNL     1      34.717 -23.368 -16.027  0.00  0.00    -0.054 S 
ATOM      2  O   UNL     1      38.836 -24.773 -13.098  0.00  0.00    -0.350 OA
ATOM      3  O   UNL     1      32.312 -22.556 -17.851  0.00  0.00    -0.295 OA
ATOM      4  N   UNL     1      36.224 -24.346 -14.041  0.00  0.00    -0.274 N 
ATOM      5  N   UNL     1      33.865 -24.661 -13.949  0.00  0.00    -0.388 NA
ATOM      6  C   UNL     1      30.324 -23.818 -15.011  0.00  0.00    +0.013 C 
ATOM      7  C   UNL     1      31.389 -24.718 -14.320  0.00  0.00    +0.056 C 
ATOM      8  C   UNL     1      30.634 -23.654 -16.527  0.00  0.00    +0.066 C 
ATOM      9  C   UNL     1      32.771 -24.335 -14.723  0.00  0.00    +0.106 C 
ATOM     10  C   UNL     1      28.943 -24.481 -14.857  0.00  0.00    +0.001 C 
ATOM     11  C   UNL     1      30.268 -22.434 -14.332  0.00  0.00    +0.001 C 
ATOM     12  C   UNL     1      33.048 -23.645 -15.883  0.00  0.00    +0.160 C 
ATOM     13  C   UNL     1      32.062 -23.199 -16.835  0.00  0.00    +0.167 C 
ATOM     14  C   UNL     1      34.947 -24.201 -14.539  0.00  0.00    +0.211 C 
ATOM     15  C   UNL     1      36.452 -25.049 -12.774  0.00  0.00    +0.126 C 
ATOM     16  C   UNL     1      37.309 -23.443 -14.439  0.00  0.00    +0.126 C 
ATOM     17  C   UNL     1      37.815 -25.729 -12.808  0.00  0.00    +0.164 C 
ATOM     18  C   UNL     1      38.637 -24.192 -14.387  0.00  0.00    +0.164 C 
ENDROOT
TORSDOF 0
ENDMDL
MODEL 6
REMARK VINA RESULT:      -7.5     11.000     12.265
REMARK  Name = 622262
REMARK  0 active torsions:
REMARK  status: ('A' for Active; 'I' for Inactive)
REMARK                            x       y       z     vdW  Elec       q    Type
REMARK                         _______ _______ _______ _____ _____    ______ ____
ROOT
ATOM      1  S   UNL     1      34.414 -23.056 -16.108  0.00  0.00    -0.054 S 
ATOM      2  O   UNL     1      29.223 -23.558 -15.536  0.00  0.00    -0.350 OA
ATOM      3  O   UNL     1      37.494 -22.664 -16.467  0.00  0.00    -0.295 OA
ATOM      4  N   UNL     1      32.004 -23.833 -15.237  0.00  0.00    -0.274 N 
ATOM      5  N   UNL     1      33.940 -24.604 -14.084  0.00  0.00    -0.388 NA
ATOM      6  C   UNL     1      37.667 -25.264 -13.855  0.00  0.00    +0.013 C 
ATOM      7  C   UNL     1      36.242 -25.125 -13.246  0.00  0.00    +0.056 C 
ATOM      8  C   UNL     1      38.119 -23.935 -14.525  0.00  0.00    +0.066 C 
ATOM      9  C   UNL     1      35.307 -24.455 -14.193  0.00  0.00    +0.106 C 
ATOM     10  C   UNL     1      38.655 -25.611 -12.726  0.00  0.00    +0.001 C 
ATOM     11  C   UNL     1      37.700 -26.411 -14.888  0.00  0.00    +0.001 C 
ATOM     12  C   UNL     1      35.737 -23.648 -15.224  0.00  0.00    +0.160 C 
ATOM     13  C   UNL     1      37.116 -23.358 -15.527  0.00  0.00    +0.167 C 
ATOM     14  C   UNL     1      33.366 -23.910 -15.043  0.00  0.00    +0.211 C 
ATOM     15  C   UNL     1      31.085 -24.551 -14.346  0.00  0.00    +0.126 C 
ATOM     16  C   UNL     1      31.433 -23.477 -16.540  0.00  0.00    +0.126 C 
ATOM     17  C   UNL     1      29.776 -23.779 -14.237  0.00  0.00    +0.164 C 
ATOM     18  C   UNL     1      30.101 -22.763 -16.333  0.00  0.00    +0.164 C 
ENDROOT
TORSDOF 0
ENDMDL
MODEL 7
REMARK VINA RESULT:      -7.5      7.222      9.913
REMARK  Name = 622262
REMARK  0 active torsions:
REMARK  status: ('A' for Active; 'I' for Inactive)
REMARK                            x       y       z     vdW  Elec       q    Type
REMARK                         _______ _______ _______ _____ _____    ______ ____
ROOT
ATOM      1  S   UNL     1      34.204 -23.068 -16.682  0.00  0.00    -0.054 S 
ATOM      2  O   UNL     1      35.300 -20.455 -21.097  0.00  0.00    -0.350 OA
ATOM      3  O   UNL     1      33.622 -24.577 -14.007  0.00  0.00    -0.295 OA
ATOM      4  N   UNL     1      33.952 -21.759 -19.005  0.00  0.00    -0.274 N 
ATOM      5  N   UNL     1      31.981 -22.368 -17.815  0.00  0.00    -0.388 NA
ATOM      6  C   UNL     1      30.135 -24.397 -15.196  0.00  0.00    +0.013 C 
ATOM      7  C   UNL     1      30.259 -23.221 -16.209  0.00  0.00    +0.056 C 
ATOM      8  C   UNL     1      31.236 -24.307 -14.101  0.00  0.00    +0.066 C 
ATOM      9  C   UNL     1      31.670 -23.019 -16.639  0.00  0.00    +0.106 C 
ATOM     10  C   UNL     1      28.754 -24.321 -14.519  0.00  0.00    +0.001 C 
ATOM     11  C   UNL     1      30.232 -25.751 -15.932  0.00  0.00    +0.001 C 
ATOM     12  C   UNL     1      32.748 -23.456 -15.899  0.00  0.00    +0.160 C 
ATOM     13  C   UNL     1      32.659 -24.162 -14.646  0.00  0.00    +0.167 C 
ATOM     14  C   UNL     1      33.290 -22.335 -17.942  0.00  0.00    +0.211 C 
ATOM     15  C   UNL     1      33.200 -21.128 -20.095  0.00  0.00    +0.126 C 
ATOM     16  C   UNL     1      35.321 -22.148 -19.357  0.00  0.00    +0.126 C 
ATOM     17  C   UNL     1      34.018 -19.984 -20.680  0.00  0.00    +0.164 C 
ATOM     18  C   UNL     1      36.041 -20.960 -19.986  0.00  0.00    +0.164 C 
ENDROOT
TORSDOF 0
ENDMDL
MODEL 8
REMARK VINA RESULT:      -7.3      8.463     12.327
REMARK  Name = 622262
REMARK  0 active torsions:
REMARK  status: ('A' for Active; 'I' for Inactive)
REMARK                            x       y       z     vdW  Elec       q    Type
REMARK                         _______ _______ _______ _____ _____    ______ ____
ROOT
ATOM      1  S   UNL     1      34.344 -24.517 -15.109  0.00  0.00    -0.054 S 
ATOM      2  O   UNL     1      38.694 -25.992 -12.575  0.00  0.00    -0.350 OA
ATOM      3  O   UNL     1      31.708 -23.628 -16.535  0.00  0.00    -0.295 OA
ATOM      4  N   UNL     1      36.911 -24.846 -14.419  0.00  0.00    -0.274 N 
ATOM      5  N   UNL     1      36.392 -23.407 -16.245  0.00  0.00    -0.388 NA
ATOM      6  C   UNL     1      34.060 -22.118 -18.943  0.00  0.00    +0.013 C 
ATOM      7  C   UNL     1      35.335 -22.036 -18.053  0.00  0.00    +0.056 C 
ATOM      8  C   UNL     1      32.772 -22.116 -18.070  0.00  0.00    +0.066 C 
ATOM      9  C   UNL     1      35.259 -22.976 -16.902  0.00  0.00    +0.106 C 
ATOM     10  C   UNL     1      34.029 -20.893 -19.876  0.00  0.00    +0.001 C 
ATOM     11  C   UNL     1      34.100 -23.386 -19.821  0.00  0.00    +0.001 C 
ATOM     12  C   UNL     1      34.067 -23.470 -16.417  0.00  0.00    +0.160 C 
ATOM     13  C   UNL     1      32.765 -23.160 -16.951  0.00  0.00    +0.167 C 
ATOM     14  C   UNL     1      36.032 -24.225 -15.279  0.00  0.00    +0.211 C 
ATOM     15  C   UNL     1      38.355 -24.618 -14.540  0.00  0.00    +0.126 C 
ATOM     16  C   UNL     1      36.547 -26.075 -13.706  0.00  0.00    +0.126 C 
ATOM     17  C   UNL     1      39.004 -24.729 -13.166  0.00  0.00    +0.164 C 
ATOM     18  C   UNL     1      37.287 -26.127 -12.373  0.00  0.00    +0.164 C 
ENDROOT
TORSDOF 0
ENDMDL
MODEL 9
REMARK VINA RESULT:      -7.1      4.797      9.564
REMARK  Name = 622262
REMARK  0 active torsions:
REMARK  status: ('A' for Active; 'I' for Inactive)
REMARK                            x       y       z     vdW  Elec       q    Type
REMARK                         _______ _______ _______ _____ _____    ______ ____
ROOT
ATOM      1  S   UNL     1      32.102  -9.947 -21.352  0.00  0.00    -0.054 S 
ATOM      2  O   UNL     1      33.105 -14.913 -22.715  0.00  0.00    -0.350 OA
ATOM      3  O   UNL     1      31.546  -7.005 -20.455  0.00  0.00    -0.295 OA
ATOM      4  N   UNL     1      32.735 -12.128 -22.771  0.00  0.00    -0.274 N 
ATOM      5  N   UNL     1      32.892  -9.995 -23.819  0.00  0.00    -0.388 NA
ATOM      6  C   UNL     1      32.089  -6.295 -24.035  0.00  0.00    +0.013 C 
ATOM      7  C   UNL     1      32.886  -7.569 -24.440  0.00  0.00    +0.056 C 
ATOM      8  C   UNL     1      32.255  -5.995 -22.518  0.00  0.00    +0.066 C 
ATOM      9  C   UNL     1      32.671  -8.679 -23.471  0.00  0.00    +0.106 C 
ATOM     10  C   UNL     1      32.628  -5.098 -24.839  0.00  0.00    +0.001 C 
ATOM     11  C   UNL     1      30.594  -6.467 -24.377  0.00  0.00    +0.001 C 
ATOM     12  C   UNL     1      32.249  -8.470 -22.176  0.00  0.00    +0.160 C 
ATOM     13  C   UNL     1      31.953  -7.183 -21.600  0.00  0.00    +0.167 C 
ATOM     14  C   UNL     1      32.624 -10.755 -22.779  0.00  0.00    +0.211 C 
ATOM     15  C   UNL     1      33.176 -12.844 -23.974  0.00  0.00    +0.126 C 
ATOM     16  C   UNL     1      31.995 -12.952 -21.810  0.00  0.00    +0.126 C 
ATOM     17  C   UNL     1      33.923 -14.108 -23.566  0.00  0.00    +0.164 C 
ATOM     18  C   UNL     1      32.790 -14.218 -21.508  0.00  0.00    +0.164 C 
ENDROOT
TORSDOF 0
ENDMDL
