MODEL 1
REMARK VINA RESULT:      -6.1      0.000      0.000
REMARK  Name = 20054882
REMARK  6 active torsions:
REMARK  status: ('A' for Active; 'I' for Inactive)
REMARK    1  A    between atoms: N_2  and  C_31
REMARK    2  A    between atoms: C_6  and  O_27
REMARK    3  A    between atoms: C_9  and  C_22
REMARK    4  A    between atoms: C_19  and  O_29
REMARK    5  A    between atoms: C_22  and  O_25
REMARK    6  A    between atoms: C_31  and  C_32
REMARK                            x       y       z     vdW  Elec       q    Type
REMARK                         _______ _______ _______ _____ _____    ______ ____
ROOT
ATOM      1  O   UNL     1      34.825  -7.436 -24.827  0.00  0.00    -0.474 OA
ATOM      2  N   UNL     1      31.788  -8.213 -20.536  0.00  0.00    +0.388 N 
ATOM      3  C   UNL     1      33.345  -7.554 -22.877  0.00  0.00    +0.057 C 
ATOM      4  C   UNL     1      31.799  -7.378 -22.854  0.00  0.00    -0.010 C 
ATOM      5  C   UNL     1      34.034  -6.627 -23.900  0.00  0.00    +0.194 C 
ATOM      6  C   UNL     1      32.927  -5.774 -24.594  0.00  0.00    +0.132 C 
ATOM      7  C   UNL     1      31.273  -8.495 -21.897  0.00  0.00    -0.053 C 
ATOM      8  C   UNL     1      31.491  -5.903 -22.462  0.00  0.00    +0.003 C 
ATOM      9  C   UNL     1      32.226  -4.938 -23.460  0.00  0.00    +0.053 C 
ATOM     10  C   UNL     1      33.969  -7.458 -21.472  0.00  0.00    -0.015 C 
ATOM     11  C   UNL     1      33.618  -8.869 -23.503  0.00  0.00    +0.013 C 
ATOM     12  C   UNL     1      31.254  -7.476 -24.290  0.00  0.00    +0.001 C 
ATOM     13  C   UNL     1      31.647  -9.947 -22.418  0.00  0.00    +0.005 C 
ATOM     14  C   UNL     1      33.246  -8.325 -20.432  0.00  0.00    -0.077 C 
ATOM     15  C   UNL     1      31.864  -6.680 -25.185  0.00  0.00    +0.031 C 
ATOM     16  C   UNL     1      32.897 -10.027 -23.270  0.00  0.00    -0.025 C 
ATOM     17  C   UNL     1      34.512  -8.741 -24.544  0.00  0.00    +0.168 C 
ATOM     18  C   UNL     1      33.272 -11.161 -23.990  0.00  0.00    -0.001 C 
ATOM     19  C   UNL     1      34.890  -9.845 -25.276  0.00  0.00    +0.167 C 
ATOM     20  C   UNL     1      34.285 -11.073 -24.967  0.00  0.00    +0.039 C 
ATOM     21  H   UNL     1      31.556  -7.233 -20.372  0.00  0.00    -0.080 HD
ENDROOT
BRANCH   9  22
ATOM     22  C   UNL     1      31.268  -3.866 -23.990  0.00  0.00    +0.091 C 
ATOM     23  C   UNL     1      30.389  -3.333 -22.861  0.00  0.00    +0.029 C 
ATOM     24  C   UNL     1      32.049  -2.738 -24.657  0.00  0.00    +0.029 C 
BRANCH  22  25
ATOM     25  O   UNL     1      30.433  -4.486 -24.966  0.00  0.00    -0.387 OA
ATOM     26  H   UNL     1      29.684  -4.915 -24.525  0.00  0.00    +0.210 HD
ENDBRANCH  22  25
ENDBRANCH   9  22
BRANCH   6  27
ATOM     27  O   UNL     1      33.498  -4.927 -25.575  0.00  0.00    -0.352 OA
ATOM     28  C   UNL     1      33.114  -5.310 -26.890  0.00  0.00    +0.174 C 
ENDBRANCH   6  27
BRANCH  19  29
ATOM     29  O   UNL     1      35.779  -9.750 -26.295  0.00  0.00    -0.503 OA
ATOM     30  H   UNL     1      35.606 -10.179 -27.110  0.00  0.00    +0.292 HD
ENDBRANCH  19  29
BRANCH   2  31
ATOM     31  C   UNL     1      31.116  -8.983 -19.494  0.00  0.00    -0.077 C 
BRANCH  31  32
ATOM     32  C   UNL     1      31.947 -10.147 -19.059  0.00  0.00    -0.021 C 
ATOM     33  C   UNL     1      31.355 -11.163 -18.126  0.00  0.00    -0.002 C 
ATOM     34  C   UNL     1      31.609 -11.519 -19.561  0.00  0.00    -0.002 C 
ENDBRANCH  31  32
ENDBRANCH   2  31
TORSDOF 6
ENDMDL
MODEL 2
REMARK VINA RESULT:      -4.8     14.841     19.270
REMARK  Name = 20054882
REMARK  6 active torsions:
REMARK  status: ('A' for Active; 'I' for Inactive)
REMARK    1  A    between atoms: N_2  and  C_31
REMARK    2  A    between atoms: C_6  and  O_27
REMARK    3  A    between atoms: C_9  and  C_22
REMARK    4  A    between atoms: C_19  and  O_29
REMARK    5  A    between atoms: C_22  and  O_25
REMARK    6  A    between atoms: C_31  and  C_32
REMARK                            x       y       z     vdW  Elec       q    Type
REMARK                         _______ _______ _______ _____ _____    ______ ____
ROOT
ATOM      1  O   UNL     1      33.928 -23.534 -12.787  0.00  0.00    -0.474 OA
ATOM      2  N   UNL     1      36.406 -22.350 -17.336  0.00  0.00    +0.388 N 
ATOM      3  C   UNL     1      35.277 -23.100 -14.786  0.00  0.00    +0.057 C 
ATOM      4  C   UNL     1      35.951 -24.150 -15.716  0.00  0.00    -0.010 C 
ATOM      5  C   UNL     1      35.296 -23.521 -13.302  0.00  0.00    +0.194 C 
ATOM      6  C   UNL     1      36.019 -24.900 -13.205  0.00  0.00    +0.132 C 
ATOM      7  C   UNL     1      35.690 -23.637 -17.169  0.00  0.00    -0.053 C 
ATOM      8  C   UNL     1      37.434 -24.302 -15.272  0.00  0.00    +0.003 C 
ATOM      9  C   UNL     1      37.481 -24.681 -13.747  0.00  0.00    +0.053 C 
ATOM     10  C   UNL     1      35.826 -21.678 -15.008  0.00  0.00    -0.015 C 
ATOM     11  C   UNL     1      33.820 -23.165 -15.048  0.00  0.00    +0.013 C 
ATOM     12  C   UNL     1      35.357 -25.540 -15.428  0.00  0.00    +0.001 C 
ATOM     13  C   UNL     1      34.141 -23.537 -17.494  0.00  0.00    +0.005 C 
ATOM     14  C   UNL     1      35.876 -21.276 -16.489  0.00  0.00    -0.077 C 
ATOM     15  C   UNL     1      35.359 -25.902 -14.133  0.00  0.00    +0.031 C 
ATOM     16  C   UNL     1      33.242 -23.301 -16.299  0.00  0.00    -0.025 C 
ATOM     17  C   UNL     1      33.117 -23.337 -13.877  0.00  0.00    +0.168 C 
ATOM     18  C   UNL     1      31.851 -23.394 -16.345  0.00  0.00    -0.001 C 
ATOM     19  C   UNL     1      31.743 -23.442 -13.897  0.00  0.00    +0.167 C 
ATOM     20  C   UNL     1      31.106 -23.434 -15.148  0.00  0.00    +0.039 C 
ATOM     21  H   UNL     1      37.354 -22.539 -17.010  0.00  0.00    -0.080 HD
ENDROOT
BRANCH   9  22
ATOM     22  C   UNL     1      38.411 -25.875 -13.508  0.00  0.00    +0.091 C 
ATOM     23  C   UNL     1      37.946 -27.081 -14.321  0.00  0.00    +0.029 C 
ATOM     24  C   UNL     1      39.851 -25.505 -13.849  0.00  0.00    +0.029 C 
BRANCH  22  25
ATOM     25  O   UNL     1      38.336 -26.201 -12.121  0.00  0.00    -0.387 OA
ATOM     26  H   UNL     1      38.696 -27.090 -11.979  0.00  0.00    +0.210 HD
ENDBRANCH  22  25
ENDBRANCH   9  22
BRANCH   6  27
ATOM     27  O   UNL     1      36.034 -25.358 -11.866  0.00  0.00    -0.352 OA
ATOM     28  C   UNL     1      36.057 -24.278 -10.939  0.00  0.00    +0.174 C 
ENDBRANCH   6  27
BRANCH  19  29
ATOM     29  O   UNL     1      31.026 -23.596 -12.757  0.00  0.00    -0.503 OA
ATOM     30  H   UNL     1      31.398 -24.051 -12.027  0.00  0.00    +0.292 HD
ENDBRANCH  19  29
BRANCH   2  31
ATOM     31  C   UNL     1      36.516 -21.927 -18.728  0.00  0.00    -0.077 C 
BRANCH  31  32
ATOM     32  C   UNL     1      35.511 -20.871 -19.057  0.00  0.00    -0.021 C 
ATOM     33  C   UNL     1      35.383 -20.395 -20.474  0.00  0.00    -0.002 C 
ATOM     34  C   UNL     1      34.300 -21.236 -19.864  0.00  0.00    -0.002 C 
ENDBRANCH  31  32
ENDBRANCH   2  31
TORSDOF 6
ENDMDL
MODEL 3
REMARK VINA RESULT:      -4.1     15.765     19.011
REMARK  Name = 20054882
REMARK  6 active torsions:
REMARK  status: ('A' for Active; 'I' for Inactive)
REMARK    1  A    between atoms: N_2  and  C_31
REMARK    2  A    between atoms: C_6  and  O_27
REMARK    3  A    between atoms: C_9  and  C_22
REMARK    4  A    between atoms: C_19  and  O_29
REMARK    5  A    between atoms: C_22  and  O_25
REMARK    6  A    between atoms: C_31  and  C_32
REMARK                            x       y       z     vdW  Elec       q    Type
REMARK                         _______ _______ _______ _____ _____    ______ ____
ROOT
ATOM      1  O   UNL     1      33.836 -25.359 -12.274  0.00  0.00    -0.474 OA
ATOM      2  N   UNL     1      36.079 -23.186 -16.574  0.00  0.00    +0.388 N 
ATOM      3  C   UNL     1      34.640 -24.364 -14.365  0.00  0.00    +0.057 C 
ATOM      4  C   UNL     1      34.185 -23.021 -15.007  0.00  0.00    -0.010 C 
ATOM      5  C   UNL     1      33.483 -25.113 -13.672  0.00  0.00    +0.194 C 
ATOM      6  C   UNL     1      32.186 -24.266 -13.855  0.00  0.00    +0.132 C 
ATOM      7  C   UNL     1      35.500 -22.339 -15.505  0.00  0.00    -0.053 C 
ATOM      8  C   UNL     1      33.103 -23.344 -16.077  0.00  0.00    +0.003 C 
ATOM      9  C   UNL     1      31.936 -24.155 -15.406  0.00  0.00    +0.053 C 
ATOM     10  C   UNL     1      35.419 -25.254 -15.351  0.00  0.00    -0.015 C 
ATOM     11  C   UNL     1      35.461 -24.018 -13.181  0.00  0.00    +0.013 C 
ATOM     12  C   UNL     1      33.408 -22.196 -13.965  0.00  0.00    +0.001 C 
ATOM     13  C   UNL     1      36.510 -22.058 -14.313  0.00  0.00    +0.005 C 
ATOM     14  C   UNL     1      36.529 -24.498 -16.096  0.00  0.00    -0.077 C 
ATOM     15  C   UNL     1      32.409 -22.853 -13.350  0.00  0.00    +0.031 C 
ATOM     16  C   UNL     1      36.393 -22.996 -13.130  0.00  0.00    -0.025 C 
ATOM     17  C   UNL     1      35.000 -24.666 -12.056  0.00  0.00    +0.168 C 
ATOM     18  C   UNL     1      37.037 -22.788 -11.911  0.00  0.00    -0.001 C 
ATOM     19  C   UNL     1      35.613 -24.469 -10.838  0.00  0.00    +0.167 C 
ATOM     20  C   UNL     1      36.666 -23.543 -10.779  0.00  0.00    +0.039 C 
ATOM     21  H   UNL     1      35.304 -23.357 -17.215  0.00  0.00    -0.080 HD
ENDROOT
BRANCH   9  22
ATOM     22  C   UNL     1      30.574 -23.554 -15.767  0.00  0.00    +0.091 C 
ATOM     23  C   UNL     1      30.704 -22.630 -16.975  0.00  0.00    +0.029 C 
ATOM     24  C   UNL     1      29.557 -24.661 -16.030  0.00  0.00    +0.029 C 
BRANCH  22  25
ATOM     25  O   UNL     1      30.137 -22.786 -14.647  0.00  0.00    -0.387 OA
ATOM     26  H   UNL     1      30.907 -22.408 -14.195  0.00  0.00    +0.210 HD
ENDBRANCH  22  25
ENDBRANCH   9  22
BRANCH   6  27
ATOM     27  O   UNL     1      31.093 -24.887 -13.206  0.00  0.00    -0.352 OA
ATOM     28  C   UNL     1      30.481 -24.021 -12.257  0.00  0.00    +0.174 C 
ENDBRANCH   6  27
BRANCH  19  29
ATOM     29  O   UNL     1      35.189 -25.106  -9.719  0.00  0.00    -0.503 OA
ATOM     30  H   UNL     1      35.019 -26.028  -9.740  0.00  0.00    +0.292 HD
ENDBRANCH  19  29
BRANCH   2  31
ATOM     31  C   UNL     1      37.120 -22.512 -17.343  0.00  0.00    -0.077 C 
BRANCH  31  32
ATOM     32  C   UNL     1      36.549 -21.422 -18.192  0.00  0.00    -0.021 C 
ATOM     33  C   UNL     1      36.749 -21.469 -19.679  0.00  0.00    -0.002 C 
ATOM     34  C   UNL     1      35.391 -21.726 -19.095  0.00  0.00    -0.002 C 
ENDBRANCH  31  32
ENDBRANCH   2  31
TORSDOF 6
ENDMDL
MODEL 4
REMARK VINA RESULT:      -3.4      2.683      6.785
REMARK  Name = 20054882
REMARK  6 active torsions:
REMARK  status: ('A' for Active; 'I' for Inactive)
REMARK    1  A    between atoms: N_2  and  C_31
REMARK    2  A    between atoms: C_6  and  O_27
REMARK    3  A    between atoms: C_9  and  C_22
REMARK    4  A    between atoms: C_19  and  O_29
REMARK    5  A    between atoms: C_22  and  O_25
REMARK    6  A    between atoms: C_31  and  C_32
REMARK                            x       y       z     vdW  Elec       q    Type
REMARK                         _______ _______ _______ _____ _____    ______ ____
ROOT
ATOM      1  O   UNL     1      31.660  -7.460 -20.460  0.00  0.00    -0.474 OA
ATOM      2  N   UNL     1      34.558  -7.685 -24.909  0.00  0.00    +0.388 N 
ATOM      3  C   UNL     1      33.006  -7.815 -22.478  0.00  0.00    +0.057 C 
ATOM      4  C   UNL     1      32.622  -8.652 -23.733  0.00  0.00    -0.010 C 
ATOM      5  C   UNL     1      32.487  -8.439 -21.166  0.00  0.00    +0.194 C 
ATOM      6  C   UNL     1      31.732  -9.756 -21.527  0.00  0.00    +0.132 C 
ATOM      7  C   UNL     1      33.081  -7.793 -24.954  0.00  0.00    -0.053 C 
ATOM      8  C   UNL     1      33.257 -10.065 -23.579  0.00  0.00    +0.003 C 
ATOM      9  C   UNL     1      32.783 -10.700 -22.222  0.00  0.00    +0.053 C 
ATOM     10  C   UNL     1      34.510  -7.488 -22.426  0.00  0.00    -0.015 C 
ATOM     11  C   UNL     1      32.183  -6.583 -22.515  0.00  0.00    +0.013 C 
ATOM     12  C   UNL     1      31.111  -8.946 -23.706  0.00  0.00    +0.001 C 
ATOM     13  C   UNL     1      32.351  -6.385 -24.996  0.00  0.00    +0.005 C 
ATOM     14  C   UNL     1      35.050  -6.931 -23.751  0.00  0.00    -0.077 C 
ATOM     15  C   UNL     1      30.655  -9.475 -22.557  0.00  0.00    +0.031 C 
ATOM     16  C   UNL     1      31.906  -5.845 -23.653  0.00  0.00    -0.025 C 
ATOM     17  C   UNL     1      31.511  -6.405 -21.326  0.00  0.00    +0.168 C 
ATOM     18  C   UNL     1      31.071  -4.739 -23.500  0.00  0.00    -0.001 C 
ATOM     19  C   UNL     1      30.672  -5.326 -21.154  0.00  0.00    +0.167 C 
ATOM     20  C   UNL     1      30.481  -4.467 -22.248  0.00  0.00    +0.039 C 
ATOM     21  H   UNL     1      34.883  -8.644 -24.794  0.00  0.00    -0.080 HD
ENDROOT
BRANCH   9  22
ATOM     22  C   UNL     1      32.278 -12.131 -22.434  0.00  0.00    +0.091 C 
ATOM     23  C   UNL     1      32.726 -12.657 -23.795  0.00  0.00    +0.029 C 
ATOM     24  C   UNL     1      32.763 -13.039 -21.308  0.00  0.00    +0.029 C 
BRANCH  22  25
ATOM     25  O   UNL     1      30.853 -12.087 -22.407  0.00  0.00    -0.387 OA
ATOM     26  H   UNL     1      30.550 -11.226 -22.733  0.00  0.00    +0.210 HD
ENDBRANCH  22  25
ENDBRANCH   9  22
BRANCH   6  27
ATOM     27  O   UNL     1      31.199 -10.356 -20.362  0.00  0.00    -0.352 OA
ATOM     28  C   UNL     1      32.061 -10.193 -19.242  0.00  0.00    +0.174 C 
ENDBRANCH   6  27
BRANCH  19  29
ATOM     29  O   UNL     1      30.011  -5.119 -19.990  0.00  0.00    -0.503 OA
ATOM     30  H   UNL     1      29.796  -5.845 -19.437  0.00  0.00    +0.292 HD
ENDBRANCH  19  29
BRANCH   2  31
ATOM     31  C   UNL     1      35.138  -7.191 -26.154  0.00  0.00    -0.077 C 
BRANCH  31  32
ATOM     32  C   UNL     1      35.213  -5.698 -26.164  0.00  0.00    -0.021 C 
ATOM     33  C   UNL     1      35.836  -5.002 -27.338  0.00  0.00    -0.002 C 
ATOM     34  C   UNL     1      34.353  -4.927 -27.122  0.00  0.00    -0.002 C 
ENDBRANCH  31  32
ENDBRANCH   2  31
TORSDOF 6
ENDMDL
