MODEL 1
REMARK VINA RESULT:      -9.0      0.000      0.000
REMARK  Name = 448055
REMARK  4 active torsions:
REMARK  status: ('A' for Active; 'I' for Inactive)
REMARK    1  A    between atoms: C_1  and  C_9
REMARK    2  A    between atoms: C_2  and  O_16
REMARK    3  A    between atoms: C_5  and  O_14
REMARK    4  A    between atoms: O_16  and  C_17
REMARK                            x       y       z     vdW  Elec       q    Type
REMARK                         _______ _______ _______ _____ _____    ______ ____
ROOT
ATOM      1  C   UNL     1      34.836 -23.435 -15.290  0.00  0.00    -0.017 C 
ATOM      2  C   UNL     1      32.791 -23.238 -16.548  0.00  0.00    +0.172 C 
ATOM      3  C   UNL     1      33.452 -23.575 -15.371  0.00  0.00    +0.036 C 
ATOM      4  C   UNL     1      35.554 -22.958 -16.387  0.00  0.00    -0.001 C 
ATOM      5  C   UNL     1      33.501 -22.762 -17.645  0.00  0.00    +0.172 C 
ATOM      6  C   UNL     1      34.886 -22.622 -17.564  0.00  0.00    +0.040 C 
ENDROOT
BRANCH   1   9
ATOM      7  O   UNL     1      35.332 -24.962 -10.649  0.00  0.00    -0.275 OA
ATOM      8  N   UNL     1      36.441 -25.476 -12.646  0.00  0.00    -0.304 N 
ATOM      9  C   UNL     1      35.561 -23.800 -14.013  0.00  0.00    +0.051 C 
ATOM     10  C   UNL     1      36.321 -25.127 -14.033  0.00  0.00    +0.094 C 
ATOM     11  C   UNL     1      34.675 -23.959 -12.762  0.00  0.00    +0.091 C 
ATOM     12  C   UNL     1      35.502 -24.831 -11.852  0.00  0.00    +0.223 C 
ATOM     13  H   UNL     1      37.115 -26.103 -12.295  0.00  0.00    +0.149 HD
ENDBRANCH   1   9
BRANCH   5  14
ATOM     14  O   UNL     1      32.860 -22.429 -18.800  0.00  0.00    -0.468 OA
ATOM     15  C   UNL     1      33.437 -21.386 -19.583  0.00  0.00    +0.253 C 
ENDBRANCH   5  14
BRANCH   2  16
ATOM     16  O   UNL     1      31.430 -23.379 -16.614  0.00  0.00    -0.476 OA
BRANCH  16  17
ATOM     17  C   UNL     1      30.770 -23.798 -15.426  0.00  0.00    +0.166 C 
ATOM     18  C   UNL     1      29.802 -24.924 -15.754  0.00  0.00    +0.044 C 
ATOM     19  C   UNL     1      29.856 -22.698 -14.912  0.00  0.00    +0.044 C 
ATOM     20  C   UNL     1      28.576 -24.218 -16.331  0.00  0.00    +0.004 C 
ATOM     21  C   UNL     1      28.627 -22.781 -15.814  0.00  0.00    +0.004 C 
ENDBRANCH  16  17
ENDBRANCH   2  16
TORSDOF 4
ENDMDL
MODEL 2
REMARK VINA RESULT:      -8.8      6.099      9.391
REMARK  Name = 448055
REMARK  4 active torsions:
REMARK  status: ('A' for Active; 'I' for Inactive)
REMARK    1  A    between atoms: C_1  and  C_9
REMARK    2  A    between atoms: C_2  and  O_16
REMARK    3  A    between atoms: C_5  and  O_14
REMARK    4  A    between atoms: O_16  and  C_17
REMARK                            x       y       z     vdW  Elec       q    Type
REMARK                         _______ _______ _______ _____ _____    ______ ____
ROOT
ATOM      1  C   UNL     1      34.721 -18.855 -21.500  0.00  0.00    -0.017 C 
ATOM      2  C   UNL     1      34.432 -16.634 -22.386  0.00  0.00    +0.172 C 
ATOM      3  C   UNL     1      34.349 -17.524 -21.320  0.00  0.00    +0.036 C 
ATOM      4  C   UNL     1      35.176 -19.290 -22.745  0.00  0.00    -0.001 C 
ATOM      5  C   UNL     1      34.885 -17.061 -23.629  0.00  0.00    +0.172 C 
ATOM      6  C   UNL     1      35.257 -18.393 -23.810  0.00  0.00    +0.040 C 
ENDROOT
BRANCH   1   9
ATOM      7  O   UNL     1      32.892 -22.544 -18.825  0.00  0.00    -0.275 OA
ATOM      8  N   UNL     1      35.051 -21.976 -19.530  0.00  0.00    -0.304 N 
ATOM      9  C   UNL     1      34.633 -19.829 -20.345  0.00  0.00    +0.051 C 
ATOM     10  C   UNL     1      35.655 -20.967 -20.352  0.00  0.00    +0.094 C 
ATOM     11  C   UNL     1      33.302 -20.596 -20.217  0.00  0.00    +0.091 C 
ATOM     12  C   UNL     1      33.676 -21.819 -19.417  0.00  0.00    +0.223 C 
ATOM     13  H   UNL     1      35.555 -22.701 -19.093  0.00  0.00    +0.149 HD
ENDBRANCH   1   9
BRANCH   5  14
ATOM     14  O   UNL     1      34.970 -16.194 -24.677  0.00  0.00    -0.468 OA
ATOM     15  C   UNL     1      33.858 -16.144 -25.569  0.00  0.00    +0.253 C 
ENDBRANCH   5  14
BRANCH   2  16
ATOM     16  O   UNL     1      34.065 -15.328 -22.195  0.00  0.00    -0.476 OA
BRANCH  16  17
ATOM     17  C   UNL     1      32.671 -15.047 -22.198  0.00  0.00    +0.166 C 
ATOM     18  C   UNL     1      32.405 -13.808 -23.039  0.00  0.00    +0.044 C 
ATOM     19  C   UNL     1      32.213 -14.625 -20.811  0.00  0.00    +0.044 C 
ATOM     20  C   UNL     1      32.762 -12.640 -22.123  0.00  0.00    +0.004 C 
ATOM     21  C   UNL     1      32.668 -13.172 -20.693  0.00  0.00    +0.004 C 
ENDBRANCH  16  17
ENDBRANCH   2  16
TORSDOF 4
ENDMDL
MODEL 3
REMARK VINA RESULT:      -8.7      2.743      5.565
REMARK  Name = 448055
REMARK  4 active torsions:
REMARK  status: ('A' for Active; 'I' for Inactive)
REMARK    1  A    between atoms: C_1  and  C_9
REMARK    2  A    between atoms: C_2  and  O_16
REMARK    3  A    between atoms: C_5  and  O_14
REMARK    4  A    between atoms: O_16  and  C_17
REMARK                            x       y       z     vdW  Elec       q    Type
REMARK                         _______ _______ _______ _____ _____    ______ ____
ROOT
ATOM      1  C   UNL     1      34.522 -22.382 -18.163  0.00  0.00    -0.017 C 
ATOM      2  C   UNL     1      33.033 -23.439 -16.592  0.00  0.00    +0.172 C 
ATOM      3  C   UNL     1      33.256 -22.870 -17.842  0.00  0.00    +0.036 C 
ATOM      4  C   UNL     1      35.559 -22.465 -17.234  0.00  0.00    -0.001 C 
ATOM      5  C   UNL     1      34.062 -23.524 -15.661  0.00  0.00    +0.172 C 
ATOM      6  C   UNL     1      35.328 -23.035 -15.982  0.00  0.00    +0.040 C 
ENDROOT
BRANCH   1   9
ATOM      7  O   UNL     1      33.951 -19.193 -21.854  0.00  0.00    -0.275 OA
ATOM      8  N   UNL     1      35.822 -20.095 -20.773  0.00  0.00    -0.304 N 
ATOM      9  C   UNL     1      34.772 -21.762 -19.521  0.00  0.00    +0.051 C 
ATOM     10  C   UNL     1      36.073 -20.971 -19.664  0.00  0.00    +0.094 C 
ATOM     11  C   UNL     1      33.721 -20.738 -19.993  0.00  0.00    +0.091 C 
ATOM     12  C   UNL     1      34.466 -19.913 -21.012  0.00  0.00    +0.223 C 
ATOM     13  H   UNL     1      36.532 -19.669 -21.307  0.00  0.00    +0.149 HD
ENDBRANCH   1   9
BRANCH   5  14
ATOM     14  O   UNL     1      33.850 -24.081 -14.435  0.00  0.00    -0.468 OA
ATOM     15  C   UNL     1      34.932 -24.034 -13.507  0.00  0.00    +0.253 C 
ENDBRANCH   5  14
BRANCH   2  16
ATOM     16  O   UNL     1      31.785 -23.916 -16.288  0.00  0.00    -0.476 OA
BRANCH  16  17
ATOM     17  C   UNL     1      30.882 -23.005 -15.675  0.00  0.00    +0.166 C 
ATOM     18  C   UNL     1      30.353 -23.609 -14.383  0.00  0.00    +0.044 C 
ATOM     19  C   UNL     1      29.628 -22.851 -16.521  0.00  0.00    +0.044 C 
ATOM     20  C   UNL     1      29.261 -24.578 -14.834  0.00  0.00    +0.004 C 
ATOM     21  C   UNL     1      28.816 -24.109 -16.218  0.00  0.00    +0.004 C 
ENDBRANCH  16  17
ENDBRANCH   2  16
TORSDOF 4
ENDMDL
MODEL 4
REMARK VINA RESULT:      -8.7      2.570      6.162
REMARK  Name = 448055
REMARK  4 active torsions:
REMARK  status: ('A' for Active; 'I' for Inactive)
REMARK    1  A    between atoms: C_1  and  C_9
REMARK    2  A    between atoms: C_2  and  O_16
REMARK    3  A    between atoms: C_5  and  O_14
REMARK    4  A    between atoms: O_16  and  C_17
REMARK                            x       y       z     vdW  Elec       q    Type
REMARK                         _______ _______ _______ _____ _____    ______ ____
ROOT
ATOM      1  C   UNL     1      32.284 -23.390 -15.427  0.00  0.00    -0.017 C 
ATOM      2  C   UNL     1      34.607 -23.356 -14.789  0.00  0.00    +0.172 C 
ATOM      3  C   UNL     1      33.264 -23.446 -14.437  0.00  0.00    +0.036 C 
ATOM      4  C   UNL     1      32.651 -23.243 -16.765  0.00  0.00    -0.001 C 
ATOM      5  C   UNL     1      34.979 -23.209 -16.121  0.00  0.00    +0.172 C 
ATOM      6  C   UNL     1      33.999 -23.152 -17.111  0.00  0.00    +0.040 C 
ENDROOT
BRANCH   1   9
ATOM      7  O   UNL     1      27.422 -23.269 -16.104  0.00  0.00    -0.275 OA
ATOM      8  N   UNL     1      28.865 -24.762 -15.022  0.00  0.00    -0.304 N 
ATOM      9  C   UNL     1      30.821 -23.487 -15.051  0.00  0.00    +0.051 C 
ATOM     10  C   UNL     1      30.281 -24.902 -14.834  0.00  0.00    +0.094 C 
ATOM     11  C   UNL     1      29.826 -22.920 -16.081  0.00  0.00    +0.091 C 
ATOM     12  C   UNL     1      28.535 -23.626 -15.750  0.00  0.00    +0.223 C 
ATOM     13  H   UNL     1      28.200 -25.400 -14.675  0.00  0.00    +0.149 HD
ENDBRANCH   1   9
BRANCH   5  14
ATOM     14  O   UNL     1      36.293 -23.121 -16.472  0.00  0.00    -0.468 OA
ATOM     15  C   UNL     1      36.775 -21.835 -16.857  0.00  0.00    +0.253 C 
ENDBRANCH   5  14
BRANCH   2  16
ATOM     16  O   UNL     1      35.560 -23.414 -13.807  0.00  0.00    -0.476 OA
BRANCH  16  17
ATOM     17  C   UNL     1      35.689 -24.647 -13.110  0.00  0.00    +0.166 C 
ATOM     18  C   UNL     1      36.262 -24.389 -11.725  0.00  0.00    +0.044 C 
ATOM     19  C   UNL     1      36.751 -25.517 -13.764  0.00  0.00    +0.044 C 
ATOM     20  C   UNL     1      37.762 -24.223 -11.957  0.00  0.00    +0.004 C 
ATOM     21  C   UNL     1      38.071 -24.921 -13.281  0.00  0.00    +0.004 C 
ENDBRANCH  16  17
ENDBRANCH   2  16
TORSDOF 4
ENDMDL
MODEL 5
REMARK VINA RESULT:      -8.6      2.970      6.729
REMARK  Name = 448055
REMARK  4 active torsions:
REMARK  status: ('A' for Active; 'I' for Inactive)
REMARK    1  A    between atoms: C_1  and  C_9
REMARK    2  A    between atoms: C_2  and  O_16
REMARK    3  A    between atoms: C_5  and  O_14
REMARK    4  A    between atoms: O_16  and  C_17
REMARK                            x       y       z     vdW  Elec       q    Type
REMARK                         _______ _______ _______ _____ _____    ______ ____
ROOT
ATOM      1  C   UNL     1      33.734 -22.938 -17.460  0.00  0.00    -0.017 C 
ATOM      2  C   UNL     1      34.317 -23.910 -15.334  0.00  0.00    +0.172 C 
ATOM      3  C   UNL     1      34.700 -23.426 -16.582  0.00  0.00    +0.036 C 
ATOM      4  C   UNL     1      32.390 -22.935 -17.088  0.00  0.00    -0.001 C 
ATOM      5  C   UNL     1      32.979 -23.909 -14.957  0.00  0.00    +0.172 C 
ATOM      6  C   UNL     1      32.013 -23.422 -15.837  0.00  0.00    +0.040 C 
ENDROOT
BRANCH   1   9
ATOM      7  O   UNL     1      33.805 -19.857 -21.283  0.00  0.00    -0.275 OA
ATOM      8  N   UNL     1      35.475 -20.943 -20.053  0.00  0.00    -0.304 N 
ATOM      9  C   UNL     1      34.144 -22.411 -18.818  0.00  0.00    +0.051 C 
ATOM     10  C   UNL     1      35.543 -21.797 -18.902  0.00  0.00    +0.094 C 
ATOM     11  C   UNL     1      33.265 -21.283 -19.392  0.00  0.00    +0.091 C 
ATOM     12  C   UNL     1      34.171 -20.601 -20.386  0.00  0.00    +0.223 C 
ATOM     13  H   UNL     1      36.265 -20.633 -20.553  0.00  0.00    +0.149 HD
ENDBRANCH   1   9
BRANCH   5  14
ATOM     14  O   UNL     1      32.598 -24.380 -13.737  0.00  0.00    -0.468 OA
ATOM     15  C   UNL     1      31.358 -25.083 -13.673  0.00  0.00    +0.253 C 
ENDBRANCH   5  14
BRANCH   2  16
ATOM     16  O   UNL     1      35.276 -24.385 -14.479  0.00  0.00    -0.476 OA
BRANCH  16  17
ATOM     17  C   UNL     1      36.543 -24.695 -15.045  0.00  0.00    +0.166 C 
ATOM     18  C   UNL     1      36.763 -26.200 -15.003  0.00  0.00    +0.044 C 
ATOM     19  C   UNL     1      37.662 -24.160 -14.165  0.00  0.00    +0.044 C 
ATOM     20  C   UNL     1      37.200 -26.482 -13.566  0.00  0.00    +0.004 C 
ATOM     21  C   UNL     1      37.749 -25.165 -13.019  0.00  0.00    +0.004 C 
ENDBRANCH  16  17
ENDBRANCH   2  16
TORSDOF 4
ENDMDL
MODEL 6
REMARK VINA RESULT:      -8.6     12.299     14.851
REMARK  Name = 448055
REMARK  4 active torsions:
REMARK  status: ('A' for Active; 'I' for Inactive)
REMARK    1  A    between atoms: C_1  and  C_9
REMARK    2  A    between atoms: C_2  and  O_16
REMARK    3  A    between atoms: C_5  and  O_14
REMARK    4  A    between atoms: O_16  and  C_17
REMARK                            x       y       z     vdW  Elec       q    Type
REMARK                         _______ _______ _______ _____ _____    ______ ____
ROOT
ATOM      1  C   UNL     1      32.903 -13.239 -23.029  0.00  0.00    -0.017 C 
ATOM      2  C   UNL     1      31.781 -11.253 -22.255  0.00  0.00    +0.172 C 
ATOM      3  C   UNL     1      32.422 -11.954 -23.272  0.00  0.00    +0.036 C 
ATOM      4  C   UNL     1      32.742 -13.819 -21.771  0.00  0.00    -0.001 C 
ATOM      5  C   UNL     1      31.617 -11.825 -20.998  0.00  0.00    +0.172 C 
ATOM      6  C   UNL     1      32.099 -13.111 -20.755  0.00  0.00    +0.040 C 
ENDROOT
BRANCH   1   9
ATOM      7  O   UNL     1      34.474 -17.181 -25.501  0.00  0.00    -0.275 OA
ATOM      8  N   UNL     1      33.428 -15.186 -26.139  0.00  0.00    -0.304 N 
ATOM      9  C   UNL     1      33.601 -14.007 -24.131  0.00  0.00    +0.051 C 
ATOM     10  C   UNL     1      32.888 -14.028 -25.484  0.00  0.00    +0.094 C 
ATOM     11  C   UNL     1      33.824 -15.508 -23.864  0.00  0.00    +0.091 C 
ATOM     12  C   UNL     1      33.983 -16.093 -25.245  0.00  0.00    +0.223 C 
ATOM     13  H   UNL     1      33.407 -15.324 -27.114  0.00  0.00    +0.149 HD
ENDBRANCH   1   9
BRANCH   5  14
ATOM     14  O   UNL     1      30.989 -11.145 -19.998  0.00  0.00    -0.468 OA
ATOM     15  C   UNL     1      31.812 -10.373 -19.125  0.00  0.00    +0.253 C 
ENDBRANCH   5  14
BRANCH   2  16
ATOM     16  O   UNL     1      31.311  -9.991 -22.506  0.00  0.00    -0.476 OA
BRANCH  16  17
ATOM     17  C   UNL     1      32.166  -9.124 -23.241  0.00  0.00    +0.166 C 
ATOM     18  C   UNL     1      33.115  -8.418 -22.285  0.00  0.00    +0.044 C 
ATOM     19  C   UNL     1      31.367  -7.977 -23.841  0.00  0.00    +0.044 C 
ATOM     20  C   UNL     1      32.281  -7.287 -21.685  0.00  0.00    +0.004 C 
ATOM     21  C   UNL     1      31.142  -7.025 -22.669  0.00  0.00    +0.004 C 
ENDBRANCH  16  17
ENDBRANCH   2  16
TORSDOF 4
ENDMDL
MODEL 7
REMARK VINA RESULT:      -8.5      9.014     12.602
REMARK  Name = 448055
REMARK  4 active torsions:
REMARK  status: ('A' for Active; 'I' for Inactive)
REMARK    1  A    between atoms: C_1  and  C_9
REMARK    2  A    between atoms: C_2  and  O_16
REMARK    3  A    between atoms: C_5  and  O_14
REMARK    4  A    between atoms: O_16  and  C_17
REMARK                            x       y       z     vdW  Elec       q    Type
REMARK                         _______ _______ _______ _____ _____    ______ ____
ROOT
ATOM      1  C   UNL     1      33.851 -14.252 -23.715  0.00  0.00    -0.017 C 
ATOM      2  C   UNL     1      34.860 -16.438 -23.650  0.00  0.00    +0.172 C 
ATOM      3  C   UNL     1      34.586 -15.221 -23.034  0.00  0.00    +0.036 C 
ATOM      4  C   UNL     1      33.392 -14.505 -25.008  0.00  0.00    -0.001 C 
ATOM      5  C   UNL     1      34.406 -16.697 -24.938  0.00  0.00    +0.172 C 
ATOM      6  C   UNL     1      33.671 -15.727 -25.620  0.00  0.00    +0.040 C 
ENDROOT
BRANCH   1   9
ATOM      7  O   UNL     1      32.795  -9.464 -23.451  0.00  0.00    -0.275 OA
ATOM      8  N   UNL     1      31.946 -11.366 -22.383  0.00  0.00    -0.304 N 
ATOM      9  C   UNL     1      33.549 -12.926 -23.052  0.00  0.00    +0.051 C 
ATOM     10  C   UNL     1      32.152 -12.785 -22.446  0.00  0.00    +0.094 C 
ATOM     11  C   UNL     1      33.628 -11.687 -23.965  0.00  0.00    +0.091 C 
ATOM     12  C   UNL     1      32.774 -10.668 -23.253  0.00  0.00    +0.223 C 
ATOM     13  H   UNL     1      31.290 -10.933 -21.789  0.00  0.00    +0.149 HD
ENDBRANCH   1   9
BRANCH   5  14
ATOM     14  O   UNL     1      34.670 -17.887 -25.546  0.00  0.00    -0.468 OA
ATOM     15  C   UNL     1      33.869 -19.003 -25.161  0.00  0.00    +0.253 C 
ENDBRANCH   5  14
BRANCH   2  16
ATOM     16  O   UNL     1      35.583 -17.383 -22.970  0.00  0.00    -0.476 OA
BRANCH  16  17
ATOM     17  C   UNL     1      35.369 -17.466 -21.566  0.00  0.00    +0.166 C 
ATOM     18  C   UNL     1      36.194 -18.610 -20.995  0.00  0.00    +0.044 C 
ATOM     19  C   UNL     1      33.940 -17.895 -21.273  0.00  0.00    +0.044 C 
ATOM     20  C   UNL     1      35.383 -19.864 -21.317  0.00  0.00    +0.004 C 
ATOM     21  C   UNL     1      33.941 -19.401 -21.525  0.00  0.00    +0.004 C 
ENDBRANCH  16  17
ENDBRANCH   2  16
TORSDOF 4
ENDMDL
MODEL 8
REMARK VINA RESULT:      -8.4     10.920     14.247
REMARK  Name = 448055
REMARK  4 active torsions:
REMARK  status: ('A' for Active; 'I' for Inactive)
REMARK    1  A    between atoms: C_1  and  C_9
REMARK    2  A    between atoms: C_2  and  O_16
REMARK    3  A    between atoms: C_5  and  O_14
REMARK    4  A    between atoms: O_16  and  C_17
REMARK                            x       y       z     vdW  Elec       q    Type
REMARK                         _______ _______ _______ _____ _____    ______ ____
ROOT
ATOM      1  C   UNL     1      32.688 -10.821 -23.083  0.00  0.00    -0.017 C 
ATOM      2  C   UNL     1      32.668 -13.229 -23.028  0.00  0.00    +0.172 C 
ATOM      3  C   UNL     1      32.311 -12.010 -22.461  0.00  0.00    +0.036 C 
ATOM      4  C   UNL     1      33.421 -10.856 -24.270  0.00  0.00    -0.001 C 
ATOM      5  C   UNL     1      33.398 -13.272 -24.211  0.00  0.00    +0.172 C 
ATOM      6  C   UNL     1      33.776 -12.082 -24.833  0.00  0.00    +0.040 C 
ENDROOT
BRANCH   1   9
ATOM      7  O   UNL     1      32.036  -7.498 -19.527  0.00  0.00    -0.275 OA
ATOM      8  N   UNL     1      32.990  -7.412 -21.663  0.00  0.00    -0.304 N 
ATOM      9  C   UNL     1      32.304  -9.492 -22.471  0.00  0.00    +0.051 C 
ATOM     10  C   UNL     1      33.272  -8.335 -22.725  0.00  0.00    +0.094 C 
ATOM     11  C   UNL     1      32.178  -9.473 -20.936  0.00  0.00    +0.091 C 
ATOM     12  C   UNL     1      32.357  -8.017 -20.585  0.00  0.00    +0.223 C 
ATOM     13  H   UNL     1      33.219  -6.454 -21.694  0.00  0.00    +0.149 HD
ENDBRANCH   1   9
BRANCH   5  14
ATOM     14  O   UNL     1      33.750 -14.462 -24.772  0.00  0.00    -0.468 OA
ATOM     15  C   UNL     1      33.032 -14.867 -25.935  0.00  0.00    +0.253 C 
ENDBRANCH   5  14
BRANCH   2  16
ATOM     16  O   UNL     1      32.291 -14.391 -22.407  0.00  0.00    -0.476 OA
BRANCH  16  17
ATOM     17  C   UNL     1      32.717 -14.568 -21.062  0.00  0.00    +0.166 C 
ATOM     18  C   UNL     1      34.237 -14.550 -21.007  0.00  0.00    +0.044 C 
ATOM     19  C   UNL     1      32.372 -15.966 -20.576  0.00  0.00    +0.044 C 
ATOM     20  C   UNL     1      34.652 -15.952 -21.450  0.00  0.00    +0.004 C 
ATOM     21  C   UNL     1      33.445 -16.855 -21.202  0.00  0.00    +0.004 C 
ENDBRANCH  16  17
ENDBRANCH   2  16
TORSDOF 4
ENDMDL
MODEL 9
REMARK VINA RESULT:      -8.3      2.659      5.461
REMARK  Name = 448055
REMARK  4 active torsions:
REMARK  status: ('A' for Active; 'I' for Inactive)
REMARK    1  A    between atoms: C_1  and  C_9
REMARK    2  A    between atoms: C_2  and  O_16
REMARK    3  A    between atoms: C_5  and  O_14
REMARK    4  A    between atoms: O_16  and  C_17
REMARK                            x       y       z     vdW  Elec       q    Type
REMARK                         _______ _______ _______ _____ _____    ______ ____
ROOT
ATOM      1  C   UNL     1      34.833 -22.563 -17.531  0.00  0.00    -0.017 C 
ATOM      2  C   UNL     1      33.804 -23.615 -15.624  0.00  0.00    +0.172 C 
ATOM      3  C   UNL     1      33.733 -23.188 -16.946  0.00  0.00    +0.036 C 
ATOM      4  C   UNL     1      35.999 -22.367 -16.792  0.00  0.00    -0.001 C 
ATOM      5  C   UNL     1      34.964 -23.424 -14.881  0.00  0.00    +0.172 C 
ATOM      6  C   UNL     1      36.064 -22.797 -15.466  0.00  0.00    +0.040 C 
ENDROOT
BRANCH   1   9
ATOM      7  O   UNL     1      33.227 -19.943 -21.361  0.00  0.00    -0.275 OA
ATOM      8  N   UNL     1      35.357 -20.497 -20.562  0.00  0.00    -0.304 N 
ATOM      9  C   UNL     1      34.762 -22.096 -18.969  0.00  0.00    +0.051 C 
ATOM     10  C   UNL     1      35.906 -21.194 -19.434  0.00  0.00    +0.094 C 
ATOM     11  C   UNL     1      33.523 -21.257 -19.340  0.00  0.00    +0.091 C 
ATOM     12  C   UNL     1      33.968 -20.492 -20.561  0.00  0.00    +0.223 C 
ATOM     13  H   UNL     1      35.903 -20.068 -21.261  0.00  0.00    +0.149 HD
ENDBRANCH   1   9
BRANCH   5  14
ATOM     14  O   UNL     1      35.040 -23.840 -13.586  0.00  0.00    -0.468 OA
ATOM     15  C   UNL     1      36.213 -23.481 -12.858  0.00  0.00    +0.253 C 
ENDBRANCH   5  14
BRANCH   2  16
ATOM     16  O   UNL     1      32.717 -24.230 -15.061  0.00  0.00    -0.476 OA
BRANCH  16  17
ATOM     17  C   UNL     1      31.776 -23.392 -14.402  0.00  0.00    +0.166 C 
ATOM     18  C   UNL     1      30.884 -24.237 -13.506  0.00  0.00    +0.044 C 
ATOM     19  C   UNL     1      30.796 -22.804 -15.405  0.00  0.00    +0.044 C 
ATOM     20  C   UNL     1      29.857 -24.849 -14.456  0.00  0.00    +0.004 C 
ATOM     21  C   UNL     1      29.821 -23.946 -15.688  0.00  0.00    +0.004 C 
ENDBRANCH  16  17
ENDBRANCH   2  16
TORSDOF 4
ENDMDL
