MODEL 1
REMARK VINA RESULT:      -9.1      0.000      0.000
REMARK  Name = 13789
REMARK  0 active torsions:
REMARK  status: ('A' for Active; 'I' for Inactive)
REMARK                            x       y       z     vdW  Elec       q    Type
REMARK                         _______ _______ _______ _____ _____    ______ ____
ROOT
ATOM      1  O   UNL     1      37.719 -24.567 -13.586  0.00  0.00    -0.456 OA
ATOM      2  O   UNL     1      38.524 -25.095 -11.507  0.00  0.00    -0.250 OA
ATOM      3  O   UNL     1      27.123 -22.600 -15.835  0.00  0.00    -0.291 OA
ATOM      4  C   UNL     1      35.397 -24.284 -14.429  0.00  0.00    +0.034 C 
ATOM      5  C   UNL     1      34.835 -23.283 -15.468  0.00  0.00    +0.007 C 
ATOM      6  C   UNL     1      36.782 -23.625 -14.133  0.00  0.00    +0.136 C 
ATOM      7  C   UNL     1      33.483 -23.728 -16.046  0.00  0.00    +0.022 C 
ATOM      8  C   UNL     1      32.462 -23.824 -14.868  0.00  0.00    +0.008 C 
ATOM      9  C   UNL     1      34.387 -24.394 -13.271  0.00  0.00    +0.003 C 
ATOM     10  C   UNL     1      36.005 -23.073 -16.426  0.00  0.00    +0.004 C 
ATOM     11  C   UNL     1      37.257 -23.167 -15.536  0.00  0.00    +0.040 C 
ATOM     12  C   UNL     1      32.976 -24.774 -13.760  0.00  0.00    +0.001 C 
ATOM     13  C   UNL     1      31.006 -24.115 -15.381  0.00  0.00    +0.020 C 
ATOM     14  C   UNL     1      36.808 -22.478 -13.126  0.00  0.00    +0.052 C 
ATOM     15  C   UNL     1      35.628 -25.715 -15.003  0.00  0.00    +0.003 C 
ATOM     16  C   UNL     1      32.961 -22.813 -17.122  0.00  0.00    -0.027 C 
ATOM     17  C   UNL     1      30.616 -23.031 -16.397  0.00  0.00    -0.020 C 
ATOM     18  C   UNL     1      30.014 -24.066 -14.189  0.00  0.00    +0.012 C 
ATOM     19  C   UNL     1      37.105 -23.161 -11.810  0.00  0.00    +0.113 C 
ATOM     20  C   UNL     1      30.909 -25.499 -16.067  0.00  0.00    +0.004 C 
ATOM     21  C   UNL     1      31.666 -22.502 -17.256  0.00  0.00    -0.009 C 
ATOM     22  C   UNL     1      37.871 -24.371 -12.243  0.00  0.00    +0.317 C 
ATOM     23  C   UNL     1      28.552 -24.079 -14.616  0.00  0.00    +0.069 C 
ATOM     24  C   UNL     1      29.370 -22.539 -16.510  0.00  0.00    +0.033 C 
ATOM     25  C   UNL     1      28.262 -23.027 -15.656  0.00  0.00    +0.173 C 
ENDROOT
TORSDOF 0
ENDMDL
MODEL 2
REMARK VINA RESULT:      -8.4     19.835     22.022
REMARK  Name = 13789
REMARK  0 active torsions:
REMARK  status: ('A' for Active; 'I' for Inactive)
REMARK                            x       y       z     vdW  Elec       q    Type
REMARK                         _______ _______ _______ _____ _____    ______ ____
ROOT
ATOM      1  O   UNL     1      34.378  -3.136 -28.912  0.00  0.00    -0.456 OA
ATOM      2  O   UNL     1      36.383  -3.348 -30.000  0.00  0.00    -0.250 OA
ATOM      3  O   UNL     1      31.974  -7.945 -19.305  0.00  0.00    -0.291 OA
ATOM      4  C   UNL     1      33.482  -4.250 -26.877  0.00  0.00    +0.034 C 
ATOM      5  C   UNL     1      32.588  -3.681 -25.748  0.00  0.00    +0.007 C 
ATOM      6  C   UNL     1      33.942  -2.922 -27.560  0.00  0.00    +0.136 C 
ATOM      7  C   UNL     1      31.885  -4.782 -24.940  0.00  0.00    +0.022 C 
ATOM      8  C   UNL     1      32.984  -5.675 -24.282  0.00  0.00    +0.008 C 
ATOM      9  C   UNL     1      34.560  -5.143 -26.235  0.00  0.00    +0.003 C 
ATOM     10  C   UNL     1      31.731  -2.641 -26.466  0.00  0.00    +0.004 C 
ATOM     11  C   UNL     1      32.652  -2.061 -27.554  0.00  0.00    +0.040 C 
ATOM     12  C   UNL     1      33.952  -6.246 -25.345  0.00  0.00    +0.001 C 
ATOM     13  C   UNL     1      32.364  -6.734 -23.300  0.00  0.00    +0.020 C 
ATOM     14  C   UNL     1      35.117  -2.182 -26.925  0.00  0.00    +0.052 C 
ATOM     15  C   UNL     1      32.702  -5.111 -27.917  0.00  0.00    +0.003 C 
ATOM     16  C   UNL     1      30.943  -4.248 -23.894  0.00  0.00    -0.027 C 
ATOM     17  C   UNL     1      31.515  -5.996 -22.253  0.00  0.00    -0.020 C 
ATOM     18  C   UNL     1      33.502  -7.498 -22.573  0.00  0.00    +0.012 C 
ATOM     19  C   UNL     1      36.322  -2.717 -27.666  0.00  0.00    +0.113 C 
ATOM     20  C   UNL     1      31.466  -7.747 -24.048  0.00  0.00    +0.004 C 
ATOM     21  C   UNL     1      30.799  -4.804 -22.684  0.00  0.00    -0.009 C 
ATOM     22  C   UNL     1      35.740  -3.094 -28.992  0.00  0.00    +0.317 C 
ATOM     23  C   UNL     1      33.011  -8.362 -21.419  0.00  0.00    +0.069 C 
ATOM     24  C   UNL     1      31.422  -6.386 -20.970  0.00  0.00    +0.033 C 
ATOM     25  C   UNL     1      32.137  -7.583 -20.469  0.00  0.00    +0.173 C 
ENDROOT
TORSDOF 0
ENDMDL
MODEL 3
REMARK VINA RESULT:      -8.3      1.438      7.172
REMARK  Name = 13789
REMARK  0 active torsions:
REMARK  status: ('A' for Active; 'I' for Inactive)
REMARK                            x       y       z     vdW  Elec       q    Type
REMARK                         _______ _______ _______ _____ _____    ______ ____
ROOT
ATOM      1  O   UNL     1      29.833 -23.531 -15.148  0.00  0.00    -0.456 OA
ATOM      2  O   UNL     1      28.104 -24.728 -14.238  0.00  0.00    -0.250 OA
ATOM      3  O   UNL     1      40.485 -25.879 -13.663  0.00  0.00    -0.291 OA
ATOM      4  C   UNL     1      32.293 -23.687 -14.825  0.00  0.00    +0.034 C 
ATOM      5  C   UNL     1      33.440 -23.496 -15.847  0.00  0.00    +0.007 C 
ATOM      6  C   UNL     1      31.079 -23.828 -15.798  0.00  0.00    +0.136 C 
ATOM      7  C   UNL     1      34.792 -23.218 -15.172  0.00  0.00    +0.022 C 
ATOM      8  C   UNL     1      35.145 -24.445 -14.274  0.00  0.00    +0.008 C 
ATOM      9  C   UNL     1      32.642 -24.888 -13.927  0.00  0.00    +0.003 C 
ATOM     10  C   UNL     1      32.881 -22.459 -16.818  0.00  0.00    +0.004 C 
ATOM     11  C   UNL     1      31.373 -22.759 -16.882  0.00  0.00    +0.040 C 
ATOM     12  C   UNL     1      34.020 -24.732 -13.251  0.00  0.00    +0.001 C 
ATOM     13  C   UNL     1      36.590 -24.327 -13.667  0.00  0.00    +0.020 C 
ATOM     14  C   UNL     1      30.835 -25.204 -16.414  0.00  0.00    +0.052 C 
ATOM     15  C   UNL     1      32.065 -22.448 -13.905  0.00  0.00    +0.003 C 
ATOM     16  C   UNL     1      35.904 -22.943 -16.150  0.00  0.00    -0.027 C 
ATOM     17  C   UNL     1      37.593 -24.145 -14.816  0.00  0.00    -0.020 C 
ATOM     18  C   UNL     1      36.940 -25.629 -12.898  0.00  0.00    +0.012 C 
ATOM     19  C   UNL     1      29.859 -25.856 -15.460  0.00  0.00    +0.113 C 
ATOM     20  C   UNL     1      36.707 -23.121 -12.706  0.00  0.00    +0.004 C 
ATOM     21  C   UNL     1      37.158 -23.380 -15.977  0.00  0.00    -0.009 C 
ATOM     22  C   UNL     1      29.143 -24.678 -14.878  0.00  0.00    +0.317 C 
ATOM     23  C   UNL     1      38.405 -25.719 -12.494  0.00  0.00    +0.069 C 
ATOM     24  C   UNL     1      38.830 -24.672 -14.808  0.00  0.00    +0.033 C 
ATOM     25  C   UNL     1      39.325 -25.470 -13.662  0.00  0.00    +0.173 C 
ENDROOT
TORSDOF 0
ENDMDL
MODEL 4
REMARK VINA RESULT:      -8.1     13.508     16.007
REMARK  Name = 13789
REMARK  0 active torsions:
REMARK  status: ('A' for Active; 'I' for Inactive)
REMARK                            x       y       z     vdW  Elec       q    Type
REMARK                         _______ _______ _______ _____ _____    ______ ____
ROOT
ATOM      1  O   UNL     1      32.834  -7.038 -24.243  0.00  0.00    -0.456 OA
ATOM      2  O   UNL     1      34.156  -5.867 -25.702  0.00  0.00    -0.250 OA
ATOM      3  O   UNL     1      34.623 -17.474 -21.232  0.00  0.00    -0.291 OA
ATOM      4  C   UNL     1      32.860  -9.426 -23.550  0.00  0.00    +0.034 C 
ATOM      5  C   UNL     1      32.571 -10.059 -22.167  0.00  0.00    +0.007 C 
ATOM      6  C   UNL     1      33.038  -7.929 -23.136  0.00  0.00    +0.136 C 
ATOM      7  C   UNL     1      32.239 -11.556 -22.261  0.00  0.00    +0.022 C 
ATOM      8  C   UNL     1      33.474 -12.287 -22.877  0.00  0.00    +0.008 C 
ATOM      9  C   UNL     1      34.069 -10.151 -24.169  0.00  0.00    +0.003 C 
ATOM     10  C   UNL     1      31.535  -9.118 -21.557  0.00  0.00    +0.004 C 
ATOM     11  C   UNL     1      31.918  -7.724 -22.083  0.00  0.00    +0.040 C 
ATOM     12  C   UNL     1      33.858 -11.677 -24.247  0.00  0.00    +0.001 C 
ATOM     13  C   UNL     1      33.295 -13.848 -22.864  0.00  0.00    +0.020 C 
ATOM     14  C   UNL     1      34.404  -7.513 -22.596  0.00  0.00    +0.052 C 
ATOM     15  C   UNL     1      31.668  -9.537 -24.549  0.00  0.00    +0.003 C 
ATOM     16  C   UNL     1      31.870 -12.171 -20.937  0.00  0.00    -0.027 C 
ATOM     17  C   UNL     1      33.018 -14.298 -21.421  0.00  0.00    -0.020 C 
ATOM     18  C   UNL     1      34.600 -14.526 -23.359  0.00  0.00    +0.012 C 
ATOM     19  C   UNL     1      35.142  -7.026 -23.823  0.00  0.00    +0.113 C 
ATOM     20  C   UNL     1      32.117 -14.294 -23.761  0.00  0.00    +0.004 C 
ATOM     21  C   UNL     1      32.240 -13.406 -20.573  0.00  0.00    -0.009 C 
ATOM     22  C   UNL     1      34.027  -6.559 -24.704  0.00  0.00    +0.317 C 
ATOM     23  C   UNL     1      34.620 -16.033 -23.140  0.00  0.00    +0.069 C 
ATOM     24  C   UNL     1      33.474 -15.454 -20.908  0.00  0.00    +0.033 C 
ATOM     25  C   UNL     1      34.280 -16.398 -21.717  0.00  0.00    +0.173 C 
ENDROOT
TORSDOF 0
ENDMDL
MODEL 5
REMARK VINA RESULT:      -7.8      1.721      3.417
REMARK  Name = 13789
REMARK  0 active torsions:
REMARK  status: ('A' for Active; 'I' for Inactive)
REMARK                            x       y       z     vdW  Elec       q    Type
REMARK                         _______ _______ _______ _____ _____    ______ ____
ROOT
ATOM      1  O   UNL     1      39.268 -24.551 -13.424  0.00  0.00    -0.456 OA
ATOM      2  O   UNL     1      41.078 -24.367 -14.817  0.00  0.00    -0.250 OA
ATOM      3  O   UNL     1      28.787 -23.871 -16.723  0.00  0.00    -0.291 OA
ATOM      4  C   UNL     1      36.837 -24.233 -13.834  0.00  0.00    +0.034 C 
ATOM      5  C   UNL     1      35.625 -25.005 -13.254  0.00  0.00    +0.007 C 
ATOM      6  C   UNL     1      37.993 -25.212 -13.453  0.00  0.00    +0.136 C 
ATOM      7  C   UNL     1      34.310 -24.222 -13.384  0.00  0.00    +0.022 C 
ATOM      8  C   UNL     1      34.043 -23.976 -14.903  0.00  0.00    +0.008 C 
ATOM      9  C   UNL     1      36.572 -23.976 -15.329  0.00  0.00    +0.003 C 
ATOM     10  C   UNL     1      36.099 -25.410 -11.860  0.00  0.00    +0.004 C 
ATOM     11  C   UNL     1      37.607 -25.669 -12.022  0.00  0.00    +0.040 C 
ATOM     12  C   UNL     1      35.235 -23.248 -15.570  0.00  0.00    +0.001 C 
ATOM     13  C   UNL     1      32.635 -23.323 -15.149  0.00  0.00    +0.020 C 
ATOM     14  C   UNL     1      38.234 -26.402 -14.378  0.00  0.00    +0.052 C 
ATOM     15  C   UNL     1      37.088 -22.858 -13.146  0.00  0.00    +0.003 C 
ATOM     16  C   UNL     1      33.135 -24.916 -12.748  0.00  0.00    -0.027 C 
ATOM     17  C   UNL     1      31.560 -24.216 -14.510  0.00  0.00    -0.020 C 
ATOM     18  C   UNL     1      32.365 -23.226 -16.674  0.00  0.00    +0.012 C 
ATOM     19  C   UNL     1      39.282 -25.898 -15.346  0.00  0.00    +0.113 C 
ATOM     20  C   UNL     1      32.545 -21.910 -14.525  0.00  0.00    +0.004 C 
ATOM     21  C   UNL     1      31.905 -24.911 -13.278  0.00  0.00    -0.009 C 
ATOM     22  C   UNL     1      40.001 -24.869 -14.532  0.00  0.00    +0.317 C 
ATOM     23  C   UNL     1      30.929 -22.848 -17.012  0.00  0.00    +0.069 C 
ATOM     24  C   UNL     1      30.340 -24.399 -15.044  0.00  0.00    +0.033 C 
ATOM     25  C   UNL     1      29.934 -23.731 -16.302  0.00  0.00    +0.173 C 
ENDROOT
TORSDOF 0
ENDMDL
MODEL 6
REMARK VINA RESULT:      -7.4     10.087     12.079
REMARK  Name = 13789
REMARK  0 active torsions:
REMARK  status: ('A' for Active; 'I' for Inactive)
REMARK                            x       y       z     vdW  Elec       q    Type
REMARK                         _______ _______ _______ _____ _____    ______ ____
ROOT
ATOM      1  O   UNL     1      35.266 -20.012 -21.294  0.00  0.00    -0.456 OA
ATOM      2  O   UNL     1      36.280 -20.519 -19.303  0.00  0.00    -0.250 OA
ATOM      3  O   UNL     1      33.799  -9.789 -25.103  0.00  0.00    -0.291 OA
ATOM      4  C   UNL     1      34.612 -17.835 -22.301  0.00  0.00    +0.034 C 
ATOM      5  C   UNL     1      34.646 -17.379 -23.781  0.00  0.00    +0.007 C 
ATOM      6  C   UNL     1      35.507 -19.113 -22.388  0.00  0.00    +0.136 C 
ATOM      7  C   UNL     1      33.743 -16.163 -24.044  0.00  0.00    +0.022 C 
ATOM      8  C   UNL     1      34.255 -14.981 -23.162  0.00  0.00    +0.008 C 
ATOM      9  C   UNL     1      35.103 -16.668 -21.425  0.00  0.00    +0.003 C 
ATOM     10  C   UNL     1      34.381 -18.667 -24.555  0.00  0.00    +0.004 C 
ATOM     11  C   UNL     1      35.050 -19.770 -23.717  0.00  0.00    +0.040 C 
ATOM     12  C   UNL     1      34.296 -15.376 -21.666  0.00  0.00    +0.001 C 
ATOM     13  C   UNL     1      33.496 -13.643 -23.482  0.00  0.00    +0.020 C 
ATOM     14  C   UNL     1      37.019 -18.909 -22.350  0.00  0.00    +0.052 C 
ATOM     15  C   UNL     1      33.191 -18.244 -21.807  0.00  0.00    +0.003 C 
ATOM     16  C   UNL     1      33.694 -15.757 -25.493  0.00  0.00    -0.027 C 
ATOM     17  C   UNL     1      33.634 -13.346 -24.984  0.00  0.00    -0.020 C 
ATOM     18  C   UNL     1      34.133 -12.478 -22.680  0.00  0.00    +0.012 C 
ATOM     19  C   UNL     1      37.363 -19.042 -20.883  0.00  0.00    +0.113 C 
ATOM     20  C   UNL     1      31.993 -13.743 -23.129  0.00  0.00    +0.004 C 
ATOM     21  C   UNL     1      33.657 -14.480 -25.896  0.00  0.00    -0.009 C 
ATOM     22  C   UNL     1      36.278 -19.942 -20.380  0.00  0.00    +0.317 C 
ATOM     23  C   UNL     1      33.639 -11.104 -23.112  0.00  0.00    +0.069 C 
ATOM     24  C   UNL     1      33.756 -12.104 -25.482  0.00  0.00    +0.033 C 
ATOM     25  C   UNL     1      33.752 -10.911 -24.604  0.00  0.00    +0.173 C 
ENDROOT
TORSDOF 0
ENDMDL
MODEL 7
REMARK VINA RESULT:      -7.3      3.850      6.549
REMARK  Name = 13789
REMARK  0 active torsions:
REMARK  status: ('A' for Active; 'I' for Inactive)
REMARK                            x       y       z     vdW  Elec       q    Type
REMARK                         _______ _______ _______ _____ _____    ______ ____
ROOT
ATOM      1  O   UNL     1      32.144 -24.822 -14.595  0.00  0.00    -0.456 OA
ATOM      2  O   UNL     1      29.895 -25.100 -14.262  0.00  0.00    -0.250 OA
ATOM      3  O   UNL     1      36.536 -18.114 -22.138  0.00  0.00    -0.291 OA
ATOM      4  C   UNL     1      33.410 -23.567 -16.328  0.00  0.00    +0.034 C 
ATOM      5  C   UNL     1      34.725 -22.759 -16.203  0.00  0.00    +0.007 C 
ATOM      6  C   UNL     1      33.037 -23.719 -14.818  0.00  0.00    +0.136 C 
ATOM      7  C   UNL     1      35.411 -22.534 -17.560  0.00  0.00    +0.022 C 
ATOM      8  C   UNL     1      34.431 -21.725 -18.468  0.00  0.00    +0.008 C 
ATOM      9  C   UNL     1      32.445 -22.780 -17.234  0.00  0.00    +0.003 C 
ATOM     10  C   UNL     1      35.493 -23.498 -15.111  0.00  0.00    +0.004 C 
ATOM     11  C   UNL     1      34.405 -24.007 -14.148  0.00  0.00    +0.040 C 
ATOM     12  C   UNL     1      33.069 -22.447 -18.604  0.00  0.00    +0.001 C 
ATOM     13  C   UNL     1      35.106 -21.304 -19.823  0.00  0.00    +0.020 C 
ATOM     14  C   UNL     1      32.320 -22.546 -14.155  0.00  0.00    +0.052 C 
ATOM     15  C   UNL     1      33.605 -24.984 -16.948  0.00  0.00    +0.003 C 
ATOM     16  C   UNL     1      36.735 -21.826 -17.451  0.00  0.00    -0.027 C 
ATOM     17  C   UNL     1      36.388 -20.516 -19.510  0.00  0.00    -0.020 C 
ATOM     18  C   UNL     1      34.140 -20.391 -20.624  0.00  0.00    +0.012 C 
ATOM     19  C   UNL     1      30.854 -22.881 -14.319  0.00  0.00    +0.113 C 
ATOM     20  C   UNL     1      35.474 -22.535 -20.683  0.00  0.00    +0.004 C 
ATOM     21  C   UNL     1      37.152 -20.911 -18.336  0.00  0.00    -0.009 C 
ATOM     22  C   UNL     1      30.872 -24.376 -14.375  0.00  0.00    +0.317 C 
ATOM     23  C   UNL     1      34.794 -19.723 -21.826  0.00  0.00    +0.069 C 
ATOM     24  C   UNL     1      36.817 -19.480 -20.250  0.00  0.00    +0.033 C 
ATOM     25  C   UNL     1      36.076 -19.023 -21.450  0.00  0.00    +0.173 C 
ENDROOT
TORSDOF 0
ENDMDL
MODEL 8
REMARK VINA RESULT:      -7.3      3.148      4.354
REMARK  Name = 13789
REMARK  0 active torsions:
REMARK  status: ('A' for Active; 'I' for Inactive)
REMARK                            x       y       z     vdW  Elec       q    Type
REMARK                         _______ _______ _______ _____ _____    ______ ____
ROOT
ATOM      1  O   UNL     1      36.534 -25.177 -12.552  0.00  0.00    -0.456 OA
ATOM      2  O   UNL     1      35.233 -25.615 -10.717  0.00  0.00    -0.250 OA
ATOM      3  O   UNL     1      33.196 -19.400 -21.308  0.00  0.00    -0.291 OA
ATOM      4  C   UNL     1      36.000 -24.105 -14.731  0.00  0.00    +0.034 C 
ATOM      5  C   UNL     1      36.861 -23.163 -15.608  0.00  0.00    +0.007 C 
ATOM      6  C   UNL     1      36.804 -24.043 -13.392  0.00  0.00    +0.136 C 
ATOM      7  C   UNL     1      36.369 -23.098 -17.062  0.00  0.00    +0.022 C 
ATOM      8  C   UNL     1      34.907 -22.548 -17.054  0.00  0.00    +0.008 C 
ATOM      9  C   UNL     1      34.554 -23.576 -14.729  0.00  0.00    +0.003 C 
ATOM     10  C   UNL     1      38.288 -23.634 -15.340  0.00  0.00    +0.004 C 
ATOM     11  C   UNL     1      38.279 -24.083 -13.868  0.00  0.00    +0.040 C 
ATOM     12  C   UNL     1      33.990 -23.413 -16.155  0.00  0.00    +0.001 C 
ATOM     13  C   UNL     1      34.372 -22.291 -18.508  0.00  0.00    +0.020 C 
ATOM     14  C   UNL     1      36.539 -22.853 -12.474  0.00  0.00    +0.052 C 
ATOM     15  C   UNL     1      35.973 -25.579 -15.239  0.00  0.00    +0.003 C 
ATOM     16  C   UNL     1      37.243 -22.255 -17.953  0.00  0.00    -0.027 C 
ATOM     17  C   UNL     1      35.342 -21.341 -19.228  0.00  0.00    -0.020 C 
ATOM     18  C   UNL     1      32.974 -21.621 -18.438  0.00  0.00    +0.012 C 
ATOM     19  C   UNL     1      35.459 -23.353 -11.540  0.00  0.00    +0.113 C 
ATOM     20  C   UNL     1      34.267 -23.605 -19.318  0.00  0.00    +0.004 C 
ATOM     21  C   UNL     1      36.760 -21.461 -18.917  0.00  0.00    -0.009 C 
ATOM     22  C   UNL     1      35.708 -24.828 -11.521  0.00  0.00    +0.317 C 
ATOM     23  C   UNL     1      32.485 -21.098 -19.782  0.00  0.00    +0.069 C 
ATOM     24  C   UNL     1      34.943 -20.403 -20.104  0.00  0.00    +0.033 C 
ATOM     25  C   UNL     1      33.514 -20.224 -20.453  0.00  0.00    +0.173 C 
ENDROOT
TORSDOF 0
ENDMDL
MODEL 9
REMARK VINA RESULT:      -6.6     14.476     16.831
REMARK  Name = 13789
REMARK  0 active torsions:
REMARK  status: ('A' for Active; 'I' for Inactive)
REMARK                            x       y       z     vdW  Elec       q    Type
REMARK                         _______ _______ _______ _____ _____    ______ ____
ROOT
ATOM      1  O   UNL     1      34.050 -15.062 -24.010  0.00  0.00    -0.456 OA
ATOM      2  O   UNL     1      35.062 -16.315 -25.639  0.00  0.00    -0.250 OA
ATOM      3  O   UNL     1      32.144  -4.246 -24.769  0.00  0.00    -0.291 OA
ATOM      4  C   UNL     1      33.684 -12.611 -23.808  0.00  0.00    +0.034 C 
ATOM      5  C   UNL     1      32.476 -11.835 -23.227  0.00  0.00    +0.007 C 
ATOM      6  C   UNL     1      33.050 -14.032 -23.957  0.00  0.00    +0.136 C 
ATOM      7  C   UNL     1      32.827 -10.384 -22.864  0.00  0.00    +0.022 C 
ATOM      8  C   UNL     1      33.285  -9.657 -24.168  0.00  0.00    +0.008 C 
ATOM      9  C   UNL     1      34.149 -11.891 -25.087  0.00  0.00    +0.003 C 
ATOM     10  C   UNL     1      31.958 -12.758 -22.127  0.00  0.00    +0.004 C 
ATOM     11  C   UNL     1      32.214 -14.179 -22.660  0.00  0.00    +0.040 C 
ATOM     12  C   UNL     1      34.464 -10.402 -24.838  0.00  0.00    +0.001 C 
ATOM     13  C   UNL     1      33.511  -8.120 -23.930  0.00  0.00    +0.020 C 
ATOM     14  C   UNL     1      32.209 -14.294 -25.203  0.00  0.00    +0.052 C 
ATOM     15  C   UNL     1      34.898 -12.696 -22.835  0.00  0.00    +0.003 C 
ATOM     16  C   UNL     1      31.691  -9.637 -22.216  0.00  0.00    -0.027 C 
ATOM     17  C   UNL     1      32.220  -7.517 -23.355  0.00  0.00    -0.020 C 
ATOM     18  C   UNL     1      33.831  -7.426 -25.280  0.00  0.00    +0.012 C 
ATOM     19  C   UNL     1      33.197 -14.877 -26.188  0.00  0.00    +0.113 C 
ATOM     20  C   UNL     1      34.668  -7.861 -22.937  0.00  0.00    +0.004 C 
ATOM     21  C   UNL     1      31.427  -8.347 -22.460  0.00  0.00    -0.009 C 
ATOM     22  C   UNL     1      34.207 -15.517 -25.288  0.00  0.00    +0.317 C 
ATOM     23  C   UNL     1      33.811  -5.905 -25.199  0.00  0.00    +0.069 C 
ATOM     24  C   UNL     1      31.785  -6.281 -23.656  0.00  0.00    +0.033 C 
ATOM     25  C   UNL     1      32.540  -5.393 -24.570  0.00  0.00    +0.173 C 
ENDROOT
TORSDOF 0
ENDMDL
