MODEL 1
REMARK VINA RESULT:      -8.6      0.000      0.000
REMARK  Name = 4893
REMARK  3 active torsions:
REMARK  status: ('A' for Active; 'I' for Inactive)
REMARK    1  A    between atoms: C_12  and  C_23
REMARK    2  A    between atoms: C_18  and  O_27
REMARK    3  A    between atoms: C_19  and  O_29
REMARK                            x       y       z     vdW  Elec       q    Type
REMARK                         _______ _______ _______ _____ _____    ______ ____
ROOT
ATOM      1  O   UNL     1      34.199 -19.777 -23.761  0.00  0.00    -0.267 OA
ATOM      2  N   UNL     1      34.022 -14.760 -23.436  0.00  0.00    -0.231 N 
ATOM      3  N   UNL     1      34.470 -17.596 -23.042  0.00  0.00    -0.270 N 
ATOM      4  N   UNL     1      33.125 -12.712 -22.665  0.00  0.00    -0.332 NA
ATOM      5  N   UNL     1      34.321 -12.823 -24.754  0.00  0.00    -0.317 NA
ATOM      6  N   UNL     1      34.621 -10.895 -26.069  0.00  0.00    -0.335 N 
ATOM      7  C   UNL     1      33.509 -15.442 -22.245  0.00  0.00    +0.125 C 
ATOM      8  C   UNL     1      34.748 -15.556 -24.430  0.00  0.00    +0.125 C 
ATOM      9  C   UNL     1      34.365 -16.664 -21.912  0.00  0.00    +0.116 C 
ATOM     10  C   UNL     1      34.307 -17.018 -24.373  0.00  0.00    +0.116 C 
ATOM     11  C   UNL     1      33.818 -13.395 -23.625  0.00  0.00    +0.203 C 
ATOM     12  C   UNL     1      34.636 -18.989 -22.918  0.00  0.00    +0.284 C 
ATOM     13  C   UNL     1      32.923 -11.395 -22.841  0.00  0.00    +0.138 C 
ATOM     14  C   UNL     1      33.407 -10.725 -23.976  0.00  0.00    +0.146 C 
ATOM     15  C   UNL     1      34.102 -11.502 -24.898  0.00  0.00    +0.178 C 
ATOM     16  C   UNL     1      32.223 -10.650 -21.895  0.00  0.00    +0.069 C 
ATOM     17  C   UNL     1      33.191  -9.346 -24.149  0.00  0.00    +0.029 C 
ATOM     18  C   UNL     1      32.004  -9.279 -22.060  0.00  0.00    +0.174 C 
ATOM     19  C   UNL     1      32.488  -8.627 -23.188  0.00  0.00    +0.169 C 
ATOM     20  H   UNL     1      35.114 -11.437 -26.727  0.00  0.00    +0.144 HD
ATOM     21  H   UNL     1      34.489  -9.932 -26.224  0.00  0.00    +0.144 HD
ENDROOT
BRANCH  12  23
ATOM     22  O   UNL     1      36.590 -19.007 -21.514  0.00  0.00    -0.446 OA
ATOM     23  C   UNL     1      35.342 -19.483 -21.739  0.00  0.00    +0.199 C 
ATOM     24  C   UNL     1      34.969 -20.377 -20.773  0.00  0.00    +0.045 C 
ATOM     25  C   UNL     1      36.066 -20.462 -19.882  0.00  0.00    +0.044 C 
ATOM     26  C   UNL     1      37.026 -19.609 -20.377  0.00  0.00    +0.180 C 
ENDBRANCH  12  23
BRANCH  18  27
ATOM     27  O   UNL     1      31.312  -8.593 -21.106  0.00  0.00    -0.468 OA
ATOM     28  C   UNL     1      32.066  -8.059 -20.019  0.00  0.00    +0.253 C 
ENDBRANCH  18  27
BRANCH  19  29
ATOM     29  O   UNL     1      32.281  -7.292 -23.361  0.00  0.00    -0.469 OA
ATOM     30  C   UNL     1      31.249  -6.907 -24.269  0.00  0.00    +0.253 C 
ENDBRANCH  19  29
TORSDOF 3
ENDMDL
MODEL 2
REMARK VINA RESULT:      -8.4      4.022     11.045
REMARK  Name = 4893
REMARK  3 active torsions:
REMARK  status: ('A' for Active; 'I' for Inactive)
REMARK    1  A    between atoms: C_12  and  C_23
REMARK    2  A    between atoms: C_18  and  O_27
REMARK    3  A    between atoms: C_19  and  O_29
REMARK                            x       y       z     vdW  Elec       q    Type
REMARK                         _______ _______ _______ _____ _____    ______ ____
ROOT
ATOM      1  O   UNL     1      30.147  -2.994 -24.560  0.00  0.00    -0.267 OA
ATOM      2  N   UNL     1      31.647  -7.469 -22.816  0.00  0.00    -0.231 N 
ATOM      3  N   UNL     1      31.369  -4.917 -24.162  0.00  0.00    -0.270 N 
ATOM      4  N   UNL     1      31.900  -9.817 -22.933  0.00  0.00    -0.332 NA
ATOM      5  N   UNL     1      31.814  -8.693 -20.804  0.00  0.00    -0.317 NA
ATOM      6  N   UNL     1      31.981  -9.910 -18.796  0.00  0.00    -0.335 N 
ATOM      7  C   UNL     1      31.614  -7.391 -24.279  0.00  0.00    +0.125 C 
ATOM      8  C   UNL     1      31.514  -6.223 -22.055  0.00  0.00    +0.125 C 
ATOM      9  C   UNL     1      32.117  -6.030 -24.760  0.00  0.00    +0.116 C 
ATOM     10  C   UNL     1      30.749  -5.178 -22.865  0.00  0.00    +0.116 C 
ATOM     11  C   UNL     1      31.791  -8.691 -22.165  0.00  0.00    +0.203 C 
ATOM     12  C   UNL     1      31.153  -3.672 -24.784  0.00  0.00    +0.284 C 
ATOM     13  C   UNL     1      32.038 -11.001 -22.312  0.00  0.00    +0.138 C 
ATOM     14  C   UNL     1      32.072 -11.094 -20.911  0.00  0.00    +0.146 C 
ATOM     15  C   UNL     1      31.954  -9.895 -20.213  0.00  0.00    +0.178 C 
ATOM     16  C   UNL     1      32.153 -12.179 -23.045  0.00  0.00    +0.069 C 
ATOM     17  C   UNL     1      32.218 -12.338 -20.272  0.00  0.00    +0.029 C 
ATOM     18  C   UNL     1      32.298 -13.420 -22.417  0.00  0.00    +0.174 C 
ATOM     19  C   UNL     1      32.330 -13.500 -21.029  0.00  0.00    +0.169 C 
ATOM     20  H   UNL     1      31.898  -9.067 -18.294  0.00  0.00    +0.144 HD
ATOM     21  H   UNL     1      32.081 -10.762 -18.315  0.00  0.00    +0.144 HD
ENDROOT
BRANCH  12  23
ATOM     22  O   UNL     1      32.727  -1.993 -25.486  0.00  0.00    -0.446 OA
ATOM     23  C   UNL     1      32.167  -3.202 -25.725  0.00  0.00    +0.199 C 
ATOM     24  C   UNL     1      32.684  -3.776 -26.854  0.00  0.00    +0.045 C 
ATOM     25  C   UNL     1      33.636  -2.855 -27.353  0.00  0.00    +0.044 C 
ATOM     26  C   UNL     1      33.625  -1.787 -26.486  0.00  0.00    +0.180 C 
ENDBRANCH  12  23
BRANCH  18  27
ATOM     27  O   UNL     1      32.407 -14.546 -23.178  0.00  0.00    -0.468 OA
ATOM     28  C   UNL     1      33.433 -14.562 -24.168  0.00  0.00    +0.253 C 
ENDBRANCH  18  27
BRANCH  19  29
ATOM     29  O   UNL     1      32.471 -14.702 -20.404  0.00  0.00    -0.469 OA
ATOM     30  C   UNL     1      33.784 -15.259 -20.357  0.00  0.00    +0.253 C 
ENDBRANCH  19  29
TORSDOF 3
ENDMDL
MODEL 3
REMARK VINA RESULT:      -7.9      6.653     11.966
REMARK  Name = 4893
REMARK  3 active torsions:
REMARK  status: ('A' for Active; 'I' for Inactive)
REMARK    1  A    between atoms: C_12  and  C_23
REMARK    2  A    between atoms: C_18  and  O_27
REMARK    3  A    between atoms: C_19  and  O_29
REMARK                            x       y       z     vdW  Elec       q    Type
REMARK                         _______ _______ _______ _____ _____    ______ ____
ROOT
ATOM      1  O   UNL     1      36.475 -17.829 -22.029  0.00  0.00    -0.267 OA
ATOM      2  N   UNL     1      33.987 -21.228 -19.276  0.00  0.00    -0.231 N 
ATOM      3  N   UNL     1      35.026 -19.504 -21.362  0.00  0.00    -0.270 N 
ATOM      4  N   UNL     1      32.160 -21.983 -17.980  0.00  0.00    -0.332 NA
ATOM      5  N   UNL     1      34.361 -22.914 -17.666  0.00  0.00    -0.317 NA
ATOM      6  N   UNL     1      34.735 -24.595 -16.062  0.00  0.00    -0.335 N 
ATOM      7  C   UNL     1      33.110 -20.288 -19.980  0.00  0.00    +0.125 C 
ATOM      8  C   UNL     1      35.407 -21.255 -19.642  0.00  0.00    +0.125 C 
ATOM      9  C   UNL     1      33.644 -19.998 -21.383  0.00  0.00    +0.116 C 
ATOM     10  C   UNL     1      35.839 -19.906 -20.217  0.00  0.00    +0.116 C 
ATOM     11  C   UNL     1      33.491 -22.065 -18.280  0.00  0.00    +0.203 C 
ATOM     12  C   UNL     1      35.577 -18.625 -22.315  0.00  0.00    +0.284 C 
ATOM     13  C   UNL     1      31.674 -22.788 -17.019  0.00  0.00    +0.138 C 
ATOM     14  C   UNL     1      32.500 -23.693 -16.334  0.00  0.00    +0.146 C 
ATOM     15  C   UNL     1      33.841 -23.706 -16.708  0.00  0.00    +0.178 C 
ATOM     16  C   UNL     1      30.326 -22.747 -16.672  0.00  0.00    +0.069 C 
ATOM     17  C   UNL     1      31.980 -24.531 -15.331  0.00  0.00    +0.029 C 
ATOM     18  C   UNL     1      29.801 -23.576 -15.676  0.00  0.00    +0.174 C 
ATOM     19  C   UNL     1      30.629 -24.468 -15.005  0.00  0.00    +0.169 C 
ATOM     20  H   UNL     1      35.685 -24.610 -16.320  0.00  0.00    +0.144 HD
ATOM     21  H   UNL     1      34.407 -25.195 -15.355  0.00  0.00    +0.144 HD
ENDROOT
BRANCH  12  23
ATOM     22  O   UNL     1      34.605 -17.515 -24.216  0.00  0.00    -0.446 OA
ATOM     23  C   UNL     1      35.039 -18.677 -23.672  0.00  0.00    +0.199 C 
ATOM     24  C   UNL     1      34.882 -19.723 -24.540  0.00  0.00    +0.045 C 
ATOM     25  C   UNL     1      34.308 -19.169 -25.710  0.00  0.00    +0.044 C 
ATOM     26  C   UNL     1      34.159 -17.824 -25.462  0.00  0.00    +0.180 C 
ENDBRANCH  12  23
BRANCH  18  27
ATOM     27  O   UNL     1      28.474 -23.498 -15.372  0.00  0.00    -0.468 OA
ATOM     28  C   UNL     1      27.752 -22.391 -15.907  0.00  0.00    +0.253 C 
ENDBRANCH  18  27
BRANCH  19  29
ATOM     29  O   UNL     1      30.131 -25.282 -14.032  0.00  0.00    -0.469 OA
ATOM     30  C   UNL     1      30.334 -24.874 -12.679  0.00  0.00    +0.253 C 
ENDBRANCH  19  29
TORSDOF 3
ENDMDL
MODEL 4
REMARK VINA RESULT:      -7.8      1.956      9.732
REMARK  Name = 4893
REMARK  3 active torsions:
REMARK  status: ('A' for Active; 'I' for Inactive)
REMARK    1  A    between atoms: C_12  and  C_23
REMARK    2  A    between atoms: C_18  and  O_27
REMARK    3  A    between atoms: C_19  and  O_29
REMARK                            x       y       z     vdW  Elec       q    Type
REMARK                         _______ _______ _______ _____ _____    ______ ____
ROOT
ATOM      1  O   UNL     1      30.429  -7.625 -24.001  0.00  0.00    -0.267 OA
ATOM      2  N   UNL     1      32.613 -11.974 -22.722  0.00  0.00    -0.231 N 
ATOM      3  N   UNL     1      31.993  -9.280 -23.593  0.00  0.00    -0.270 N 
ATOM      4  N   UNL     1      33.536 -14.101 -23.182  0.00  0.00    -0.332 NA
ATOM      5  N   UNL     1      32.582 -13.614 -21.024  0.00  0.00    -0.317 NA
ATOM      6  N   UNL     1      32.550 -15.247 -19.329  0.00  0.00    -0.335 N 
ATOM      7  C   UNL     1      32.945 -11.528 -24.078  0.00  0.00    +0.125 C 
ATOM      8  C   UNL     1      31.940 -11.027 -21.828  0.00  0.00    +0.125 C 
ATOM      9  C   UNL     1      33.152 -10.014 -24.113  0.00  0.00    +0.116 C 
ATOM     10  C   UNL     1      31.153  -9.994 -22.634  0.00  0.00    +0.116 C 
ATOM     11  C   UNL     1      32.918 -13.264 -22.296  0.00  0.00    +0.203 C 
ATOM     12  C   UNL     1      31.607  -7.991 -24.011  0.00  0.00    +0.284 C 
ATOM     13  C   UNL     1      33.833 -15.349 -22.778  0.00  0.00    +0.138 C 
ATOM     14  C   UNL     1      33.523 -15.793 -21.483  0.00  0.00    +0.146 C 
ATOM     15  C   UNL     1      32.894 -14.870 -20.651  0.00  0.00    +0.178 C 
ATOM     16  C   UNL     1      34.463 -16.244 -23.639  0.00  0.00    +0.069 C 
ATOM     17  C   UNL     1      33.839 -17.100 -21.071  0.00  0.00    +0.029 C 
ATOM     18  C   UNL     1      34.781 -17.545 -23.237  0.00  0.00    +0.174 C 
ATOM     19  C   UNL     1      34.468 -17.974 -21.952  0.00  0.00    +0.169 C 
ATOM     20  H   UNL     1      32.105 -14.600 -18.734  0.00  0.00    +0.144 HD
ATOM     21  H   UNL     1      32.755 -16.153 -19.006  0.00  0.00    +0.144 HD
ENDROOT
BRANCH  12  23
ATOM     22  O   UNL     1      32.287  -6.045 -25.252  0.00  0.00    -0.446 OA
ATOM     23  C   UNL     1      32.658  -7.089 -24.474  0.00  0.00    +0.199 C 
ATOM     24  C   UNL     1      34.010  -7.096 -24.262  0.00  0.00    +0.045 C 
ATOM     25  C   UNL     1      34.515  -5.973 -24.961  0.00  0.00    +0.044 C 
ATOM     26  C   UNL     1      33.427  -5.366 -25.545  0.00  0.00    +0.180 C 
ENDBRANCH  12  23
BRANCH  18  27
ATOM     27  O   UNL     1      35.397 -18.385 -24.117  0.00  0.00    -0.468 OA
ATOM     28  C   UNL     1      34.557 -19.213 -24.918  0.00  0.00    +0.253 C 
ENDBRANCH  18  27
BRANCH  19  29
ATOM     29  O   UNL     1      34.771 -19.238 -21.547  0.00  0.00    -0.469 OA
ATOM     30  C   UNL     1      33.791 -19.922 -20.767  0.00  0.00    +0.253 C 
ENDBRANCH  19  29
TORSDOF 3
ENDMDL
MODEL 5
REMARK VINA RESULT:      -7.6      5.735     12.841
REMARK  Name = 4893
REMARK  3 active torsions:
REMARK  status: ('A' for Active; 'I' for Inactive)
REMARK    1  A    between atoms: C_12  and  C_23
REMARK    2  A    between atoms: C_18  and  O_27
REMARK    3  A    between atoms: C_19  and  O_29
REMARK                            x       y       z     vdW  Elec       q    Type
REMARK                         _______ _______ _______ _____ _____    ______ ____
ROOT
ATOM      1  O   UNL     1      33.658 -19.670 -23.491  0.00  0.00    -0.267 OA
ATOM      2  N   UNL     1      34.705 -21.490 -18.919  0.00  0.00    -0.231 N 
ATOM      3  N   UNL     1      34.348 -19.865 -21.292  0.00  0.00    -0.270 N 
ATOM      4  N   UNL     1      36.136 -22.411 -17.278  0.00  0.00    -0.332 NA
ATOM      5  N   UNL     1      33.763 -22.826 -17.215  0.00  0.00    -0.317 NA
ATOM      6  N   UNL     1      32.821 -24.157 -15.518  0.00  0.00    -0.335 N 
ATOM      7  C   UNL     1      35.852 -20.855 -19.574  0.00  0.00    +0.125 C 
ATOM      8  C   UNL     1      33.378 -21.298 -19.511  0.00  0.00    +0.125 C 
ATOM      9  C   UNL     1      35.417 -19.595 -20.323  0.00  0.00    +0.116 C 
ATOM     10  C   UNL     1      33.493 -21.015 -21.008  0.00  0.00    +0.116 C 
ATOM     11  C   UNL     1      34.871 -22.264 -17.773  0.00  0.00    +0.203 C 
ATOM     12  C   UNL     1      34.151 -19.147 -22.488  0.00  0.00    +0.284 C 
ATOM     13  C   UNL     1      36.303 -23.157 -16.172  0.00  0.00    +0.138 C 
ATOM     14  C   UNL     1      35.217 -23.774 -15.532  0.00  0.00    +0.146 C 
ATOM     15  C   UNL     1      33.966 -23.567 -16.109  0.00  0.00    +0.178 C 
ATOM     16  C   UNL     1      37.570 -23.342 -15.624  0.00  0.00    +0.069 C 
ATOM     17  C   UNL     1      35.403 -24.551 -14.376  0.00  0.00    +0.029 C 
ATOM     18  C   UNL     1      37.765 -24.114 -14.474  0.00  0.00    +0.174 C 
ATOM     19  C   UNL     1      36.681 -24.719 -13.850  0.00  0.00    +0.169 C 
ATOM     20  H   UNL     1      31.933 -24.016 -15.919  0.00  0.00    +0.144 HD
ATOM     21  H   UNL     1      32.914 -24.707 -14.708  0.00  0.00    +0.144 HD
ENDROOT
BRANCH  12  23
ATOM     22  O   UNL     1      34.424 -17.036 -21.367  0.00  0.00    -0.446 OA
ATOM     23  C   UNL     1      34.564 -17.746 -22.511  0.00  0.00    +0.199 C 
ATOM     24  C   UNL     1      35.090 -16.977 -23.513  0.00  0.00    +0.045 C 
ATOM     25  C   UNL     1      35.291 -15.695 -22.949  0.00  0.00    +0.044 C 
ATOM     26  C   UNL     1      34.871 -15.782 -21.642  0.00  0.00    +0.180 C 
ENDBRANCH  12  23
BRANCH  18  27
ATOM     27  O   UNL     1      39.025 -24.265 -13.976  0.00  0.00    -0.468 OA
ATOM     28  C   UNL     1      39.804 -25.338 -14.501  0.00  0.00    +0.253 C 
ENDBRANCH  18  27
BRANCH  19  29
ATOM     29  O   UNL     1      36.856 -25.474 -12.729  0.00  0.00    -0.469 OA
ATOM     30  C   UNL     1      36.288 -24.978 -11.518  0.00  0.00    +0.253 C 
ENDBRANCH  19  29
TORSDOF 3
ENDMDL
MODEL 6
REMARK VINA RESULT:      -7.5      3.573      6.316
REMARK  Name = 4893
REMARK  3 active torsions:
REMARK  status: ('A' for Active; 'I' for Inactive)
REMARK    1  A    between atoms: C_12  and  C_23
REMARK    2  A    between atoms: C_18  and  O_27
REMARK    3  A    between atoms: C_19  and  O_29
REMARK                            x       y       z     vdW  Elec       q    Type
REMARK                         _______ _______ _______ _____ _____    ______ ____
ROOT
ATOM      1  O   UNL     1      34.102 -14.000 -21.885  0.00  0.00    -0.267 OA
ATOM      2  N   UNL     1      32.644  -9.480 -23.545  0.00  0.00    -0.231 N 
ATOM      3  N   UNL     1      33.348 -12.273 -23.226  0.00  0.00    -0.270 N 
ATOM      4  N   UNL     1      32.983  -7.404 -24.625  0.00  0.00    -0.332 NA
ATOM      5  N   UNL     1      31.291  -7.646 -22.927  0.00  0.00    -0.317 NA
ATOM      6  N   UNL     1      29.940  -5.820 -22.309  0.00  0.00    -0.335 N 
ATOM      7  C   UNL     1      33.716 -10.080 -24.345  0.00  0.00    +0.125 C 
ATOM      8  C   UNL     1      31.955 -10.326 -22.566  0.00  0.00    +0.125 C 
ATOM      9  C   UNL     1      33.487 -11.582 -24.514  0.00  0.00    +0.116 C 
ATOM     10  C   UNL     1      32.864 -11.467 -22.109  0.00  0.00    +0.116 C 
ATOM     11  C   UNL     1      32.295  -8.141 -23.702  0.00  0.00    +0.203 C 
ATOM     12  C   UNL     1      33.720 -13.612 -22.992  0.00  0.00    +0.284 C 
ATOM     13  C   UNL     1      32.653  -6.110 -24.781  0.00  0.00    +0.138 C 
ATOM     14  C   UNL     1      31.630  -5.519 -24.024  0.00  0.00    +0.146 C 
ATOM     15  C   UNL     1      30.985  -6.347 -23.109  0.00  0.00    +0.178 C 
ATOM     16  C   UNL     1      33.321  -5.313 -25.707  0.00  0.00    +0.069 C 
ATOM     17  C   UNL     1      31.292  -4.165 -24.196  0.00  0.00    +0.029 C 
ATOM     18  C   UNL     1      32.991  -3.965 -25.885  0.00  0.00    +0.174 C 
ATOM     19  C   UNL     1      31.976  -3.391 -25.128  0.00  0.00    +0.169 C 
ATOM     20  H   UNL     1      29.479  -6.399 -21.659  0.00  0.00    +0.144 HD
ATOM     21  H   UNL     1      29.677  -4.877 -22.402  0.00  0.00    +0.144 HD
ENDROOT
BRANCH  12  23
ATOM     22  O   UNL     1      34.387 -15.671 -24.043  0.00  0.00    -0.446 OA
ATOM     23  C   UNL     1      33.646 -14.540 -24.117  0.00  0.00    +0.199 C 
ATOM     24  C   UNL     1      32.939 -14.484 -25.288  0.00  0.00    +0.045 C 
ATOM     25  C   UNL     1      33.266 -15.668 -25.991  0.00  0.00    +0.044 C 
ATOM     26  C   UNL     1      34.149 -16.356 -25.192  0.00  0.00    +0.180 C 
ENDBRANCH  12  23
BRANCH  18  27
ATOM     27  O   UNL     1      33.674  -3.226 -26.803  0.00  0.00    -0.468 OA
ATOM     28  C   UNL     1      34.615  -3.918 -27.622  0.00  0.00    +0.253 C 
ENDBRANCH  18  27
BRANCH  19  29
ATOM     29  O   UNL     1      31.645  -2.080 -25.291  0.00  0.00    -0.469 OA
ATOM     30  C   UNL     1      30.276  -1.786 -25.570  0.00  0.00    +0.253 C 
ENDBRANCH  19  29
TORSDOF 3
ENDMDL
MODEL 7
REMARK VINA RESULT:      -7.4      1.951      3.468
REMARK  Name = 4893
REMARK  3 active torsions:
REMARK  status: ('A' for Active; 'I' for Inactive)
REMARK    1  A    between atoms: C_12  and  C_23
REMARK    2  A    between atoms: C_18  and  O_27
REMARK    3  A    between atoms: C_19  and  O_29
REMARK                            x       y       z     vdW  Elec       q    Type
REMARK                         _______ _______ _______ _____ _____    ______ ____
ROOT
ATOM      1  O   UNL     1      35.677 -18.123 -21.180  0.00  0.00    -0.267 OA
ATOM      2  N   UNL     1      33.341 -13.744 -22.006  0.00  0.00    -0.231 N 
ATOM      3  N   UNL     1      34.456 -16.415 -22.151  0.00  0.00    -0.270 N 
ATOM      4  N   UNL     1      33.187 -11.550 -22.874  0.00  0.00    -0.332 NA
ATOM      5  N   UNL     1      31.901 -12.202 -20.944  0.00  0.00    -0.317 NA
ATOM      6  N   UNL     1      30.466 -10.668 -19.884  0.00  0.00    -0.335 N 
ATOM      7  C   UNL     1      34.308 -14.098 -23.049  0.00  0.00    +0.125 C 
ATOM      8  C   UNL     1      32.972 -14.772 -21.028  0.00  0.00    +0.125 C 
ATOM      9  C   UNL     1      34.251 -15.595 -23.352  0.00  0.00    +0.116 C 
ATOM     10  C   UNL     1      34.094 -15.798 -20.878  0.00  0.00    +0.116 C 
ATOM     11  C   UNL     1      32.794 -12.465 -21.938  0.00  0.00    +0.203 C 
ATOM     12  C   UNL     1      35.040 -17.697 -22.147  0.00  0.00    +0.284 C 
ATOM     13  C   UNL     1      32.665 -10.313 -22.815  0.00  0.00    +0.138 C 
ATOM     14  C   UNL     1      31.738  -9.956 -21.823  0.00  0.00    +0.146 C 
ATOM     15  C   UNL     1      31.397 -10.954 -20.914  0.00  0.00    +0.178 C 
ATOM     16  C   UNL     1      33.030  -9.341 -23.743  0.00  0.00    +0.069 C 
ATOM     17  C   UNL     1      31.197  -8.659 -21.771  0.00  0.00    +0.029 C 
ATOM     18  C   UNL     1      32.497  -8.049 -23.698  0.00  0.00    +0.174 C 
ATOM     19  C   UNL     1      31.580  -7.708 -22.711  0.00  0.00    +0.169 C 
ATOM     20  H   UNL     1      30.219 -11.367 -19.236  0.00  0.00    +0.144 HD
ATOM     21  H   UNL     1      30.067  -9.771 -19.816  0.00  0.00    +0.144 HD
ENDROOT
BRANCH  12  23
ATOM     22  O   UNL     1      34.183 -17.983 -24.377  0.00  0.00    -0.446 OA
ATOM     23  C   UNL     1      34.874 -18.518 -23.343  0.00  0.00    +0.199 C 
ATOM     24  C   UNL     1      35.304 -19.785 -23.634  0.00  0.00    +0.045 C 
ATOM     25  C   UNL     1      34.845 -20.055 -24.946  0.00  0.00    +0.044 C 
ATOM     26  C   UNL     1      34.169 -18.928 -25.354  0.00  0.00    +0.180 C 
ENDBRANCH  12  23
BRANCH  18  27
ATOM     27  O   UNL     1      32.887  -7.133 -24.629  0.00  0.00    -0.468 OA
ATOM     28  C   UNL     1      34.257  -6.737 -24.614  0.00  0.00    +0.253 C 
ENDBRANCH  18  27
BRANCH  19  29
ATOM     29  O   UNL     1      31.053  -6.453 -22.655  0.00  0.00    -0.469 OA
ATOM     30  C   UNL     1      31.625  -5.551 -21.708  0.00  0.00    +0.253 C 
ENDBRANCH  19  29
TORSDOF 3
ENDMDL
MODEL 8
REMARK VINA RESULT:      -7.3      4.991     12.111
REMARK  Name = 4893
REMARK  3 active torsions:
REMARK  status: ('A' for Active; 'I' for Inactive)
REMARK    1  A    between atoms: C_12  and  C_23
REMARK    2  A    between atoms: C_18  and  O_27
REMARK    3  A    between atoms: C_19  and  O_29
REMARK                            x       y       z     vdW  Elec       q    Type
REMARK                         _______ _______ _______ _____ _____    ______ ____
ROOT
ATOM      1  O   UNL     1      33.846 -18.615 -24.353  0.00  0.00    -0.267 OA
ATOM      2  N   UNL     1      34.461 -20.759 -19.844  0.00  0.00    -0.231 N 
ATOM      3  N   UNL     1      34.253 -18.955 -22.102  0.00  0.00    -0.270 N 
ATOM      4  N   UNL     1      35.749 -21.696 -18.096  0.00  0.00    -0.332 NA
ATOM      5  N   UNL     1      33.446 -22.334 -18.406  0.00  0.00    -0.317 NA
ATOM      6  N   UNL     1      32.432 -23.903 -16.975  0.00  0.00    -0.335 N 
ATOM      7  C   UNL     1      35.611 -19.960 -20.274  0.00  0.00    +0.125 C 
ATOM      8  C   UNL     1      33.211 -20.636 -20.600  0.00  0.00    +0.125 C 
ATOM      9  C   UNL     1      35.149 -18.681 -20.972  0.00  0.00    +0.116 C 
ATOM     10  C   UNL     1      33.495 -20.201 -22.038  0.00  0.00    +0.116 C 
ATOM     11  C   UNL     1      34.552 -21.620 -18.753  0.00  0.00    +0.203 C 
ATOM     12  C   UNL     1      34.143 -18.147 -23.251  0.00  0.00    +0.284 C 
ATOM     13  C   UNL     1      35.845 -22.525 -17.043  0.00  0.00    +0.138 C 
ATOM     14  C   UNL     1      34.754 -23.299 -16.617  0.00  0.00    +0.146 C 
ATOM     15  C   UNL     1      33.577 -23.155 -17.346  0.00  0.00    +0.178 C 
ATOM     16  C   UNL     1      37.040 -22.643 -16.337  0.00  0.00    +0.069 C 
ATOM     17  C   UNL     1      34.866 -24.163 -15.513  0.00  0.00    +0.029 C 
ATOM     18  C   UNL     1      37.160 -23.500 -15.238  0.00  0.00    +0.174 C 
ATOM     19  C   UNL     1      36.072 -24.260 -14.826  0.00  0.00    +0.169 C 
ATOM     20  H   UNL     1      31.595 -23.808 -17.485  0.00  0.00    +0.144 HD
ATOM     21  H   UNL     1      32.474 -24.518 -16.208  0.00  0.00    +0.144 HD
ENDROOT
BRANCH  12  23
ATOM     22  O   UNL     1      34.222 -16.176 -21.873  0.00  0.00    -0.446 OA
ATOM     23  C   UNL     1      34.405 -16.718 -23.100  0.00  0.00    +0.199 C 
ATOM     24  C   UNL     1      34.820 -15.777 -24.002  0.00  0.00    +0.045 C 
ATOM     25  C   UNL     1      34.900 -14.561 -23.282  0.00  0.00    +0.044 C 
ATOM     26  C   UNL     1      34.526 -14.857 -21.991  0.00  0.00    +0.180 C 
ENDBRANCH  12  23
BRANCH  18  27
ATOM     27  O   UNL     1      38.351 -23.580 -14.580  0.00  0.00    -0.468 OA
ATOM     28  C   UNL     1      39.235 -24.630 -14.967  0.00  0.00    +0.253 C 
ENDBRANCH  18  27
BRANCH  19  29
ATOM     29  O   UNL     1      36.175 -25.099 -13.758  0.00  0.00    -0.469 OA
ATOM     30  C   UNL     1      35.583 -24.666 -12.534  0.00  0.00    +0.253 C 
ENDBRANCH  19  29
TORSDOF 3
ENDMDL
MODEL 9
REMARK VINA RESULT:      -6.3      6.899     12.311
REMARK  Name = 4893
REMARK  3 active torsions:
REMARK  status: ('A' for Active; 'I' for Inactive)
REMARK    1  A    between atoms: C_12  and  C_23
REMARK    2  A    between atoms: C_18  and  O_27
REMARK    3  A    between atoms: C_19  and  O_29
REMARK                            x       y       z     vdW  Elec       q    Type
REMARK                         _______ _______ _______ _____ _____    ______ ____
ROOT
ATOM      1  O   UNL     1      36.149 -17.268 -22.620  0.00  0.00    -0.267 OA
ATOM      2  N   UNL     1      35.901 -20.926 -19.176  0.00  0.00    -0.231 N 
ATOM      3  N   UNL     1      35.713 -19.268 -21.545  0.00  0.00    -0.270 N 
ATOM      4  N   UNL     1      34.836 -22.162 -17.464  0.00  0.00    -0.332 NA
ATOM      5  N   UNL     1      37.240 -22.040 -17.581  0.00  0.00    -0.317 NA
ATOM      6  N   UNL     1      38.576 -23.150 -15.993  0.00  0.00    -0.335 N 
ATOM      7  C   UNL     1      34.596 -20.553 -19.729  0.00  0.00    +0.125 C 
ATOM      8  C   UNL     1      37.105 -20.420 -19.842  0.00  0.00    +0.125 C 
ATOM      9  C   UNL     1      34.703 -20.286 -21.231  0.00  0.00    +0.116 C 
ATOM     10  C   UNL     1      36.801 -19.119 -20.583  0.00  0.00    +0.116 C 
ATOM     11  C   UNL     1      35.997 -21.731 -18.044  0.00  0.00    +0.203 C 
ATOM     12  C   UNL     1      35.654 -18.397 -22.651  0.00  0.00    +0.284 C 
ATOM     13  C   UNL     1      34.920 -22.939 -16.370  0.00  0.00    +0.138 C 
ATOM     14  C   UNL     1      36.161 -23.306 -15.826  0.00  0.00    +0.146 C 
ATOM     15  C   UNL     1      37.288 -22.820 -16.484  0.00  0.00    +0.178 C 
ATOM     16  C   UNL     1      33.770 -23.406 -15.739  0.00  0.00    +0.069 C 
ATOM     17  C   UNL     1      36.238 -24.119 -14.682  0.00  0.00    +0.029 C 
ATOM     18  C   UNL     1      33.837 -24.215 -14.601  0.00  0.00    +0.174 C 
ATOM     19  C   UNL     1      35.072 -24.572 -14.072  0.00  0.00    +0.169 C 
ATOM     20  H   UNL     1      39.379 -22.811 -16.452  0.00  0.00    +0.144 HD
ATOM     21  H   UNL     1      38.668 -23.716 -15.195  0.00  0.00    +0.144 HD
ENDROOT
BRANCH  12  23
ATOM     22  O   UNL     1      34.125 -18.014 -24.470  0.00  0.00    -0.446 OA
ATOM     23  C   UNL     1      34.970 -18.873 -23.850  0.00  0.00    +0.199 C 
ATOM     24  C   UNL     1      35.021 -20.076 -24.500  0.00  0.00    +0.045 C 
ATOM     25  C   UNL     1      34.143 -19.956 -25.603  0.00  0.00    +0.044 C 
ATOM     26  C   UNL     1      33.623 -18.683 -25.541  0.00  0.00    +0.180 C 
ENDBRANCH  12  23
BRANCH  18  27
ATOM     27  O   UNL     1      32.683 -24.647 -14.019  0.00  0.00    -0.468 OA
ATOM     28  C   UNL     1      31.566 -23.761 -14.060  0.00  0.00    +0.253 C 
ENDBRANCH  18  27
BRANCH  19  29
ATOM     29  O   UNL     1      35.152 -25.359 -12.963  0.00  0.00    -0.469 OA
ATOM     30  C   UNL     1      35.531 -24.724 -11.742  0.00  0.00    +0.253 C 
ENDBRANCH  19  29
TORSDOF 3
ENDMDL
