MODEL 1
REMARK VINA RESULT:      -6.3      0.000      0.000
REMARK  Name = 21751
REMARK  5 active torsions:
REMARK  status: ('A' for Active; 'I' for Inactive)
REMARK    1  A    between atoms: N_4  and  C_10
REMARK    2  A    between atoms: C_10  and  C_11
REMARK    3  A    between atoms: C_11  and  O_12
REMARK    4  A    between atoms: C_11  and  C_14
REMARK    5  A    between atoms: C_14  and  O_15
REMARK                            x       y       z     vdW  Elec       q    Type
REMARK                         _______ _______ _______ _____ _____    ______ ____
ROOT
ATOM      1  I   UNL     1      34.090 -22.477 -19.124  0.00  0.00    -0.038 I 
ATOM      2  I   UNL     1      35.200 -24.191 -13.329  0.00  0.00    -0.038 I 
ATOM      3  O   UNL     1      35.663 -23.341 -16.424  0.00  0.00    -0.286 OA
ATOM      4  N   UNL     1      31.684 -23.136 -15.601  0.00  0.00    -0.281 N 
ATOM      5  C   UNL     1      32.167 -22.859 -16.871  0.00  0.00    +0.075 C 
ATOM      6  C   UNL     1      32.596 -23.522 -14.631  0.00  0.00    +0.075 C 
ATOM      7  C   UNL     1      33.459 -22.905 -17.230  0.00  0.00    +0.084 C 
ATOM      8  C   UNL     1      33.921 -23.619 -14.816  0.00  0.00    +0.084 C 
ATOM      9  C   UNL     1      34.461 -23.292 -16.179  0.00  0.00    +0.209 C 
ENDROOT
BRANCH   4  10
ATOM     10  C   UNL     1      30.253 -23.100 -15.318  0.00  0.00    +0.127 C 
BRANCH  10  11
ATOM     11  C   UNL     1      29.430 -23.191 -16.602  0.00  0.00    +0.160 C 
BRANCH  11  12
ATOM     12  O   UNL     1      28.763 -21.951 -16.836  0.00  0.00    -0.380 OA
ATOM     13  H   UNL     1      28.217 -21.727 -16.067  0.00  0.00    +0.211 HD
ENDBRANCH  11  12
BRANCH  11  14
ATOM     14  C   UNL     1      28.384 -24.301 -16.571  0.00  0.00    +0.168 C 
BRANCH  14  15
ATOM     15  O   UNL     1      27.505 -24.135 -17.680  0.00  0.00    -0.379 OA
ATOM     16  H   UNL     1      26.795 -24.795 -17.632  0.00  0.00    +0.211 HD
ENDBRANCH  14  15
ENDBRANCH  11  14
ENDBRANCH  10  11
ENDBRANCH   4  10
TORSDOF 5
ENDMDL
MODEL 2
REMARK VINA RESULT:      -6.3      2.799      6.165
REMARK  Name = 21751
REMARK  5 active torsions:
REMARK  status: ('A' for Active; 'I' for Inactive)
REMARK    1  A    between atoms: N_4  and  C_10
REMARK    2  A    between atoms: C_10  and  C_11
REMARK    3  A    between atoms: C_11  and  O_12
REMARK    4  A    between atoms: C_11  and  C_14
REMARK    5  A    between atoms: C_14  and  O_15
REMARK                            x       y       z     vdW  Elec       q    Type
REMARK                         _______ _______ _______ _____ _____    ______ ____
ROOT
ATOM      1  I   UNL     1      30.116 -23.901 -14.466  0.00  0.00    -0.038 I 
ATOM      2  I   UNL     1      34.030 -22.331 -18.933  0.00  0.00    -0.038 I 
ATOM      3  O   UNL     1      31.286 -22.734 -17.254  0.00  0.00    -0.286 OA
ATOM      4  N   UNL     1      34.397 -24.068 -14.998  0.00  0.00    -0.281 N 
ATOM      5  C   UNL     1      33.091 -24.155 -14.539  0.00  0.00    +0.075 C 
ATOM      6  C   UNL     1      34.605 -23.548 -16.266  0.00  0.00    +0.075 C 
ATOM      7  C   UNL     1      32.008 -23.743 -15.216  0.00  0.00    +0.084 C 
ATOM      8  C   UNL     1      33.639 -23.089 -17.077  0.00  0.00    +0.084 C 
ATOM      9  C   UNL     1      32.223 -23.149 -16.579  0.00  0.00    +0.209 C 
ENDROOT
BRANCH   4  10
ATOM     10  C   UNL     1      35.508 -24.582 -14.203  0.00  0.00    +0.127 C 
BRANCH  10  11
ATOM     11  C   UNL     1      36.431 -25.463 -15.045  0.00  0.00    +0.160 C 
BRANCH  11  12
ATOM     12  O   UNL     1      35.938 -26.802 -15.058  0.00  0.00    -0.380 OA
ATOM     13  H   UNL     1      35.644 -27.030 -15.955  0.00  0.00    +0.211 HD
ENDBRANCH  11  12
BRANCH  11  14
ATOM     14  C   UNL     1      37.870 -25.485 -14.538  0.00  0.00    +0.168 C 
BRANCH  14  15
ATOM     15  O   UNL     1      38.668 -26.230 -15.454  0.00  0.00    -0.379 OA
ATOM     16  H   UNL     1      39.506 -25.765 -15.605  0.00  0.00    +0.211 HD
ENDBRANCH  14  15
ENDBRANCH  11  14
ENDBRANCH  10  11
ENDBRANCH   4  10
TORSDOF 5
ENDMDL
MODEL 3
REMARK VINA RESULT:      -6.2      2.899      5.805
REMARK  Name = 21751
REMARK  5 active torsions:
REMARK  status: ('A' for Active; 'I' for Inactive)
REMARK    1  A    between atoms: N_4  and  C_10
REMARK    2  A    between atoms: C_10  and  C_11
REMARK    3  A    between atoms: C_11  and  O_12
REMARK    4  A    between atoms: C_11  and  C_14
REMARK    5  A    between atoms: C_14  and  O_15
REMARK                            x       y       z     vdW  Elec       q    Type
REMARK                         _______ _______ _______ _____ _____    ______ ____
ROOT
ATOM      1  I   UNL     1      34.121 -22.301 -18.993  0.00  0.00    -0.038 I 
ATOM      2  I   UNL     1      30.266 -23.716 -14.424  0.00  0.00    -0.038 I 
ATOM      3  O   UNL     1      31.394 -22.685 -17.284  0.00  0.00    -0.286 OA
ATOM      4  N   UNL     1      34.511 -24.123 -15.099  0.00  0.00    -0.281 N 
ATOM      5  C   UNL     1      34.711 -23.579 -16.359  0.00  0.00    +0.075 C 
ATOM      6  C   UNL     1      33.220 -24.126 -14.592  0.00  0.00    +0.075 C 
ATOM      7  C   UNL     1      33.744 -23.081 -17.145  0.00  0.00    +0.084 C 
ATOM      8  C   UNL     1      32.138 -23.670 -15.241  0.00  0.00    +0.084 C 
ATOM      9  C   UNL     1      32.336 -23.107 -16.619  0.00  0.00    +0.209 C 
ENDROOT
BRANCH   4  10
ATOM     10  C   UNL     1      35.635 -24.602 -14.301  0.00  0.00    +0.127 C 
BRANCH  10  11
ATOM     11  C   UNL     1      36.518 -25.557 -15.104  0.00  0.00    +0.160 C 
BRANCH  11  12
ATOM     12  O   UNL     1      35.927 -26.857 -15.124  0.00  0.00    -0.380 OA
ATOM     13  H   UNL     1      35.202 -26.893 -14.480  0.00  0.00    +0.211 HD
ENDBRANCH  11  12
BRANCH  11  14
ATOM     14  C   UNL     1      37.933 -25.682 -14.548  0.00  0.00    +0.168 C 
BRANCH  14  15
ATOM     15  O   UNL     1      38.370 -27.029 -14.699  0.00  0.00    -0.379 OA
ATOM     16  H   UNL     1      39.339 -27.059 -14.684  0.00  0.00    +0.211 HD
ENDBRANCH  14  15
ENDBRANCH  11  14
ENDBRANCH  10  11
ENDBRANCH   4  10
TORSDOF 5
ENDMDL
MODEL 4
REMARK VINA RESULT:      -6.1      2.798      6.343
REMARK  Name = 21751
REMARK  5 active torsions:
REMARK  status: ('A' for Active; 'I' for Inactive)
REMARK    1  A    between atoms: N_4  and  C_10
REMARK    2  A    between atoms: C_10  and  C_11
REMARK    3  A    between atoms: C_11  and  O_12
REMARK    4  A    between atoms: C_11  and  C_14
REMARK    5  A    between atoms: C_14  and  O_15
REMARK                            x       y       z     vdW  Elec       q    Type
REMARK                         _______ _______ _______ _____ _____    ______ ____
ROOT
ATOM      1  I   UNL     1      30.372 -24.093 -14.243  0.00  0.00    -0.038 I 
ATOM      2  I   UNL     1      34.042 -22.381 -18.863  0.00  0.00    -0.038 I 
ATOM      3  O   UNL     1      31.380 -22.917 -17.090  0.00  0.00    -0.286 OA
ATOM      4  N   UNL     1      34.636 -24.006 -14.908  0.00  0.00    -0.281 N 
ATOM      5  C   UNL     1      33.353 -24.164 -14.406  0.00  0.00    +0.075 C 
ATOM      6  C   UNL     1      34.772 -23.502 -16.192  0.00  0.00    +0.075 C 
ATOM      7  C   UNL     1      32.226 -23.835 -15.056  0.00  0.00    +0.084 C 
ATOM      8  C   UNL     1      33.756 -23.121 -16.981  0.00  0.00    +0.084 C 
ATOM      9  C   UNL     1      32.362 -23.258 -16.437  0.00  0.00    +0.209 C 
ENDROOT
BRANCH   4  10
ATOM     10  C   UNL     1      35.801 -24.434 -14.139  0.00  0.00    +0.127 C 
BRANCH  10  11
ATOM     11  C   UNL     1      36.629 -23.237 -13.675  0.00  0.00    +0.160 C 
BRANCH  11  12
ATOM     12  O   UNL     1      37.896 -23.244 -14.334  0.00  0.00    -0.380 OA
ATOM     13  H   UNL     1      37.766 -23.404 -15.281  0.00  0.00    +0.211 HD
ENDBRANCH  11  12
BRANCH  11  14
ATOM     14  C   UNL     1      36.872 -23.219 -12.168  0.00  0.00    +0.168 C 
BRANCH  14  15
ATOM     15  O   UNL     1      38.072 -22.498 -11.904  0.00  0.00    -0.379 OA
ATOM     16  H   UNL     1      38.479 -22.229 -12.742  0.00  0.00    +0.211 HD
ENDBRANCH  14  15
ENDBRANCH  11  14
ENDBRANCH  10  11
ENDBRANCH   4  10
TORSDOF 5
ENDMDL
MODEL 5
REMARK VINA RESULT:      -6.0      2.838      5.955
REMARK  Name = 21751
REMARK  5 active torsions:
REMARK  status: ('A' for Active; 'I' for Inactive)
REMARK    1  A    between atoms: N_4  and  C_10
REMARK    2  A    between atoms: C_10  and  C_11
REMARK    3  A    between atoms: C_11  and  O_12
REMARK    4  A    between atoms: C_11  and  C_14
REMARK    5  A    between atoms: C_14  and  O_15
REMARK                            x       y       z     vdW  Elec       q    Type
REMARK                         _______ _______ _______ _____ _____    ______ ____
ROOT
ATOM      1  I   UNL     1      34.201 -22.398 -18.754  0.00  0.00    -0.038 I 
ATOM      2  I   UNL     1      30.425 -23.992 -14.177  0.00  0.00    -0.038 I 
ATOM      3  O   UNL     1      31.497 -22.939 -17.051  0.00  0.00    -0.286 OA
ATOM      4  N   UNL     1      34.692 -24.114 -14.823  0.00  0.00    -0.281 N 
ATOM      5  C   UNL     1      34.862 -23.582 -16.092  0.00  0.00    +0.075 C 
ATOM      6  C   UNL     1      33.402 -24.198 -14.323  0.00  0.00    +0.075 C 
ATOM      7  C   UNL     1      33.867 -23.167 -16.892  0.00  0.00    +0.084 C 
ATOM      8  C   UNL     1      32.294 -23.832 -14.985  0.00  0.00    +0.084 C 
ATOM      9  C   UNL     1      32.462 -23.281 -16.374  0.00  0.00    +0.209 C 
ENDROOT
BRANCH   4  10
ATOM     10  C   UNL     1      35.842 -24.499 -14.011  0.00  0.00    +0.127 C 
BRANCH  10  11
ATOM     11  C   UNL     1      36.666 -23.279 -13.603  0.00  0.00    +0.160 C 
BRANCH  11  12
ATOM     12  O   UNL     1      37.935 -23.315 -14.256  0.00  0.00    -0.380 OA
ATOM     13  H   UNL     1      38.620 -22.988 -13.651  0.00  0.00    +0.211 HD
ENDBRANCH  11  12
BRANCH  11  14
ATOM     14  C   UNL     1      36.903 -23.185 -12.099  0.00  0.00    +0.168 C 
BRANCH  14  15
ATOM     15  O   UNL     1      37.838 -22.141 -11.844  0.00  0.00    -0.379 OA
ATOM     16  H   UNL     1      38.248 -21.863 -12.678  0.00  0.00    +0.211 HD
ENDBRANCH  14  15
ENDBRANCH  11  14
ENDBRANCH  10  11
ENDBRANCH   4  10
TORSDOF 5
ENDMDL
MODEL 6
REMARK VINA RESULT:      -5.9     11.608     13.025
REMARK  Name = 21751
REMARK  5 active torsions:
REMARK  status: ('A' for Active; 'I' for Inactive)
REMARK    1  A    between atoms: N_4  and  C_10
REMARK    2  A    between atoms: C_10  and  C_11
REMARK    3  A    between atoms: C_11  and  O_12
REMARK    4  A    between atoms: C_11  and  C_14
REMARK    5  A    between atoms: C_14  and  O_15
REMARK                            x       y       z     vdW  Elec       q    Type
REMARK                         _______ _______ _______ _____ _____    ______ ____
ROOT
ATOM      1  I   UNL     1      34.933 -10.381 -25.501  0.00  0.00    -0.038 I 
ATOM      2  I   UNL     1      30.902 -11.056 -20.914  0.00  0.00    -0.038 I 
ATOM      3  O   UNL     1      32.757  -9.695 -23.199  0.00  0.00    -0.286 OA
ATOM      4  N   UNL     1      33.252 -13.730 -23.356  0.00  0.00    -0.281 N 
ATOM      5  C   UNL     1      33.959 -12.889 -24.202  0.00  0.00    +0.075 C 
ATOM      6  C   UNL     1      32.400 -13.149 -22.429  0.00  0.00    +0.075 C 
ATOM      7  C   UNL     1      33.859 -11.550 -24.217  0.00  0.00    +0.084 C 
ATOM      8  C   UNL     1      32.180 -11.831 -22.306  0.00  0.00    +0.084 C 
ATOM      9  C   UNL     1      32.916 -10.911 -23.238  0.00  0.00    +0.209 C 
ENDROOT
BRANCH   4  10
ATOM     10  C   UNL     1      33.460 -15.174 -23.388  0.00  0.00    +0.127 C 
BRANCH  10  11
ATOM     11  C   UNL     1      34.748 -15.565 -22.664  0.00  0.00    +0.160 C 
BRANCH  11  12
ATOM     12  O   UNL     1      35.634 -16.215 -23.576  0.00  0.00    -0.380 OA
ATOM     13  H   UNL     1      35.705 -17.154 -23.344  0.00  0.00    +0.211 HD
ENDBRANCH  11  12
BRANCH  11  14
ATOM     14  C   UNL     1      34.516 -16.493 -21.476  0.00  0.00    +0.168 C 
BRANCH  14  15
ATOM     15  O   UNL     1      34.965 -15.844 -20.291  0.00  0.00    -0.379 OA
ATOM     16  H   UNL     1      35.235 -14.937 -20.500  0.00  0.00    +0.211 HD
ENDBRANCH  14  15
ENDBRANCH  11  14
ENDBRANCH  10  11
ENDBRANCH   4  10
TORSDOF 5
ENDMDL
MODEL 7
REMARK VINA RESULT:      -5.8     11.606     13.191
REMARK  Name = 21751
REMARK  5 active torsions:
REMARK  status: ('A' for Active; 'I' for Inactive)
REMARK    1  A    between atoms: N_4  and  C_10
REMARK    2  A    between atoms: C_10  and  C_11
REMARK    3  A    between atoms: C_11  and  O_12
REMARK    4  A    between atoms: C_11  and  C_14
REMARK    5  A    between atoms: C_14  and  O_15
REMARK                            x       y       z     vdW  Elec       q    Type
REMARK                         _______ _______ _______ _____ _____    ______ ____
ROOT
ATOM      1  I   UNL     1      30.838 -11.106 -20.935  0.00  0.00    -0.038 I 
ATOM      2  I   UNL     1      34.925 -10.328 -25.456  0.00  0.00    -0.038 I 
ATOM      3  O   UNL     1      32.775  -9.689 -23.114  0.00  0.00    -0.286 OA
ATOM      4  N   UNL     1      33.327 -13.715 -23.309  0.00  0.00    -0.281 N 
ATOM      5  C   UNL     1      32.425 -13.159 -22.414  0.00  0.00    +0.075 C 
ATOM      6  C   UNL     1      34.005 -12.859 -24.162  0.00  0.00    +0.075 C 
ATOM      7  C   UNL     1      32.180 -11.846 -22.285  0.00  0.00    +0.084 C 
ATOM      8  C   UNL     1      33.882 -11.522 -24.168  0.00  0.00    +0.084 C 
ATOM      9  C   UNL     1      32.932 -10.905 -23.182  0.00  0.00    +0.209 C 
ENDROOT
BRANCH   4  10
ATOM     10  C   UNL     1      33.494 -15.162 -23.404  0.00  0.00    +0.127 C 
BRANCH  10  11
ATOM     11  C   UNL     1      34.798 -15.614 -22.748  0.00  0.00    +0.160 C 
BRANCH  11  12
ATOM     12  O   UNL     1      35.619 -16.272 -23.713  0.00  0.00    -0.380 OA
ATOM     13  H   UNL     1      36.534 -15.962 -23.625  0.00  0.00    +0.211 HD
ENDBRANCH  11  12
BRANCH  11  14
ATOM     14  C   UNL     1      34.585 -16.562 -21.572  0.00  0.00    +0.168 C 
BRANCH  14  15
ATOM     15  O   UNL     1      34.979 -15.903 -20.372  0.00  0.00    -0.379 OA
ATOM     16  H   UNL     1      34.228 -15.870 -19.759  0.00  0.00    +0.211 HD
ENDBRANCH  14  15
ENDBRANCH  11  14
ENDBRANCH  10  11
ENDBRANCH   4  10
TORSDOF 5
ENDMDL
MODEL 8
REMARK VINA RESULT:      -5.7      3.333      5.737
REMARK  Name = 21751
REMARK  5 active torsions:
REMARK  status: ('A' for Active; 'I' for Inactive)
REMARK    1  A    between atoms: N_4  and  C_10
REMARK    2  A    between atoms: C_10  and  C_11
REMARK    3  A    between atoms: C_11  and  O_12
REMARK    4  A    between atoms: C_11  and  C_14
REMARK    5  A    between atoms: C_14  and  O_15
REMARK                            x       y       z     vdW  Elec       q    Type
REMARK                         _______ _______ _______ _____ _____    ______ ____
ROOT
ATOM      1  I   UNL     1      35.720 -21.616 -19.640  0.00  0.00    -0.038 I 
ATOM      2  I   UNL     1      31.236 -23.576 -15.927  0.00  0.00    -0.038 I 
ATOM      3  O   UNL     1      32.796 -22.502 -18.559  0.00  0.00    -0.286 OA
ATOM      4  N   UNL     1      35.505 -23.044 -15.572  0.00  0.00    -0.281 N 
ATOM      5  C   UNL     1      35.893 -22.552 -16.809  0.00  0.00    +0.075 C 
ATOM      6  C   UNL     1      34.159 -23.309 -15.373  0.00  0.00    +0.075 C 
ATOM      7  C   UNL     1      35.068 -22.340 -17.846  0.00  0.00    +0.084 C 
ATOM      8  C   UNL     1      33.200 -23.157 -16.299  0.00  0.00    +0.084 C 
ATOM      9  C   UNL     1      33.611 -22.653 -17.653  0.00  0.00    +0.209 C 
ENDROOT
BRANCH   4  10
ATOM     10  C   UNL     1      36.472 -23.201 -14.490  0.00  0.00    +0.127 C 
BRANCH  10  11
ATOM     11  C   UNL     1      37.272 -24.493 -14.644  0.00  0.00    +0.160 C 
BRANCH  11  12
ATOM     12  O   UNL     1      38.355 -24.284 -15.550  0.00  0.00    -0.380 OA
ATOM     13  H   UNL     1      38.072 -23.687 -16.260  0.00  0.00    +0.211 HD
ENDBRANCH  11  12
BRANCH  11  14
ATOM     14  C   UNL     1      36.438 -25.664 -15.155  0.00  0.00    +0.168 C 
BRANCH  14  15
ATOM     15  O   UNL     1      37.298 -26.589 -15.813  0.00  0.00    -0.379 OA
ATOM     16  H   UNL     1      36.794 -27.380 -16.061  0.00  0.00    +0.211 HD
ENDBRANCH  14  15
ENDBRANCH  11  14
ENDBRANCH  10  11
ENDBRANCH   4  10
TORSDOF 5
ENDMDL
MODEL 9
REMARK VINA RESULT:      -5.7     13.453     14.574
REMARK  Name = 21751
REMARK  5 active torsions:
REMARK  status: ('A' for Active; 'I' for Inactive)
REMARK    1  A    between atoms: N_4  and  C_10
REMARK    2  A    between atoms: C_10  and  C_11
REMARK    3  A    between atoms: C_11  and  O_12
REMARK    4  A    between atoms: C_11  and  C_14
REMARK    5  A    between atoms: C_14  and  O_15
REMARK                            x       y       z     vdW  Elec       q    Type
REMARK                         _______ _______ _______ _____ _____    ______ ____
ROOT
ATOM      1  I   UNL     1      34.309  -7.370 -24.041  0.00  0.00    -0.038 I 
ATOM      2  I   UNL     1      30.897 -11.123 -20.576  0.00  0.00    -0.038 I 
ATOM      3  O   UNL     1      32.245  -8.431 -21.779  0.00  0.00    -0.286 OA
ATOM      4  N   UNL     1      33.511 -11.612 -23.977  0.00  0.00    -0.281 N 
ATOM      5  C   UNL     1      33.963 -10.329 -24.248  0.00  0.00    +0.075 C 
ATOM      6  C   UNL     1      32.644 -11.781 -22.908  0.00  0.00    +0.075 C 
ATOM      7  C   UNL     1      33.601  -9.227 -23.574  0.00  0.00    +0.084 C 
ATOM      8  C   UNL     1      32.179 -10.791 -22.131  0.00  0.00    +0.084 C 
ATOM      9  C   UNL     1      32.637  -9.392 -22.434  0.00  0.00    +0.209 C 
ENDROOT
BRANCH   4  10
ATOM     10  C   UNL     1      33.997 -12.756 -24.741  0.00  0.00    +0.127 C 
BRANCH  10  11
ATOM     11  C   UNL     1      32.946 -13.863 -24.811  0.00  0.00    +0.160 C 
BRANCH  11  12
ATOM     12  O   UNL     1      33.373 -14.982 -24.034  0.00  0.00    -0.380 OA
ATOM     13  H   UNL     1      33.652 -14.679 -23.155  0.00  0.00    +0.211 HD
ENDBRANCH  11  12
BRANCH  11  14
ATOM     14  C   UNL     1      32.667 -14.344 -26.232  0.00  0.00    +0.168 C 
BRANCH  14  15
ATOM     15  O   UNL     1      33.678 -15.274 -26.609  0.00  0.00    -0.379 OA
ATOM     16  H   UNL     1      34.275 -15.425 -25.860  0.00  0.00    +0.211 HD
ENDBRANCH  14  15
ENDBRANCH  11  14
ENDBRANCH  10  11
ENDBRANCH   4  10
TORSDOF 5
ENDMDL
