MODEL 1
REMARK VINA RESULT:      -8.6      0.000      0.000
REMARK  Name = 4919
REMARK  6 active torsions:
REMARK  status: ('A' for Active; 'I' for Inactive)
REMARK    1  A    between atoms: C_1  and  C_2
REMARK    2  A    between atoms: C_1  and  C_8
REMARK    3  A    between atoms: C_1  and  O_14
REMARK    4  A    between atoms: C_1  and  C_16
REMARK    5  A    between atoms: C_16  and  C_17
REMARK    6  A    between atoms: C_17  and  N_18
REMARK                            x       y       z     vdW  Elec       q    Type
REMARK                         _______ _______ _______ _____ _____    ______ ____
ROOT
ATOM      1  C   UNL     1      35.136 -23.436 -15.416  0.00  0.00    +0.105 C 
ENDROOT
BRANCH   1   2
ATOM      2  C   UNL     1      36.386 -24.256 -15.102  0.00  0.00    +0.029 C 
ATOM      3  C   UNL     1      36.969 -23.855 -13.740  0.00  0.00    +0.003 C 
ATOM      4  C   UNL     1      36.073 -25.757 -15.142  0.00  0.00    +0.003 C 
ATOM      5  C   UNL     1      38.190 -24.699 -13.380  0.00  0.00    +0.000 C 
ATOM      6  C   UNL     1      37.296 -26.598 -14.779  0.00  0.00    +0.000 C 
ATOM      7  C   UNL     1      37.877 -26.191 -13.429  0.00  0.00    +0.000 C 
ENDBRANCH   1   2
BRANCH   1   8
ATOM      8  C   UNL     1      35.077 -22.850 -16.830  0.00  0.00    +0.002 C 
ATOM      9  C   UNL     1      33.921 -23.006 -17.558  0.00  0.00    -0.002 C 
ATOM     10  C   UNL     1      36.182 -22.192 -17.316  0.00  0.00    -0.002 C 
ATOM     11  C   UNL     1      33.866 -22.474 -18.846  0.00  0.00    -0.000 C 
ATOM     12  C   UNL     1      36.128 -21.658 -18.604  0.00  0.00    -0.000 C 
ATOM     13  C   UNL     1      34.970 -21.799 -19.369  0.00  0.00    -0.000 C 
ENDBRANCH   1   8
BRANCH   1  14
ATOM     14  O   UNL     1      35.172 -22.305 -14.519  0.00  0.00    -0.383 OA
ATOM     15  H   UNL     1      36.092 -22.106 -14.288  0.00  0.00    +0.211 HD
ENDBRANCH   1  14
BRANCH   1  16
ATOM     16  C   UNL     1      33.842 -24.232 -15.083  0.00  0.00    +0.008 C 
BRANCH  16  17
ATOM     17  C   UNL     1      33.259 -23.958 -13.694  0.00  0.00    -0.075 C 
BRANCH  17  18
ATOM     18  N   UNL     1      31.810 -23.840 -13.777  0.00  0.00    +0.387 N 
ATOM     19  C   UNL     1      31.386 -22.867 -14.783  0.00  0.00    -0.077 C 
ATOM     20  C   UNL     1      31.170 -25.095 -14.167  0.00  0.00    -0.077 C 
ATOM     21  C   UNL     1      29.910 -23.190 -14.969  0.00  0.00    -0.025 C 
ATOM     22  C   UNL     1      29.768 -24.654 -14.561  0.00  0.00    -0.025 C 
ATOM     23  H   UNL     1      31.532 -23.554 -12.838  0.00  0.00    -0.080 HD
ENDBRANCH  17  18
ENDBRANCH  16  17
ENDBRANCH   1  16
TORSDOF 6
ENDMDL
MODEL 2
REMARK VINA RESULT:      -8.3     14.170     17.474
REMARK  Name = 4919
REMARK  6 active torsions:
REMARK  status: ('A' for Active; 'I' for Inactive)
REMARK    1  A    between atoms: C_1  and  C_2
REMARK    2  A    between atoms: C_1  and  C_8
REMARK    3  A    between atoms: C_1  and  O_14
REMARK    4  A    between atoms: C_1  and  C_16
REMARK    5  A    between atoms: C_16  and  C_17
REMARK    6  A    between atoms: C_17  and  N_18
REMARK                            x       y       z     vdW  Elec       q    Type
REMARK                         _______ _______ _______ _____ _____    ______ ____
ROOT
ATOM      1  C   UNL     1      32.540  -8.537 -22.640  0.00  0.00    +0.105 C 
ENDROOT
BRANCH   1   2
ATOM      2  C   UNL     1      31.646  -7.359 -23.021  0.00  0.00    +0.029 C 
ATOM      3  C   UNL     1      31.490  -6.393 -21.838  0.00  0.00    +0.003 C 
ATOM      4  C   UNL     1      32.203  -6.632 -24.251  0.00  0.00    +0.003 C 
ATOM      5  C   UNL     1      30.642  -5.178 -22.211  0.00  0.00    +0.000 C 
ATOM      6  C   UNL     1      31.354  -5.417 -24.620  0.00  0.00    +0.000 C 
ATOM      7  C   UNL     1      31.195  -4.463 -23.440  0.00  0.00    +0.000 C 
ENDBRANCH   1   2
BRANCH   1   8
ATOM      8  C   UNL     1      32.024  -9.405 -21.489  0.00  0.00    +0.002 C 
ATOM      9  C   UNL     1      32.394  -9.081 -20.204  0.00  0.00    -0.002 C 
ATOM     10  C   UNL     1      31.213 -10.475 -21.784  0.00  0.00    -0.002 C 
ATOM     11  C   UNL     1      31.926  -9.872 -19.155  0.00  0.00    -0.000 C 
ATOM     12  C   UNL     1      30.743 -11.266 -20.735  0.00  0.00    -0.000 C 
ATOM     13  C   UNL     1      31.099 -10.965 -19.421  0.00  0.00    -0.000 C 
ENDBRANCH   1   8
BRANCH   1  14
ATOM     14  O   UNL     1      33.779  -7.958 -22.177  0.00  0.00    -0.383 OA
ATOM     15  H   UNL     1      33.994  -7.182 -22.716  0.00  0.00    +0.211 HD
ENDBRANCH   1  14
BRANCH   1  16
ATOM     16  C   UNL     1      32.888  -9.404 -23.884  0.00  0.00    +0.008 C 
BRANCH  16  17
ATOM     17  C   UNL     1      34.334  -9.908 -23.931  0.00  0.00    -0.075 C 
BRANCH  17  18
ATOM     18  N   UNL     1      34.366 -11.287 -24.396  0.00  0.00    +0.387 N 
ATOM     19  C   UNL     1      33.510 -12.164 -23.598  0.00  0.00    -0.077 C 
ATOM     20  C   UNL     1      33.880 -11.426 -25.767  0.00  0.00    -0.077 C 
ATOM     21  C   UNL     1      33.391 -13.408 -24.468  0.00  0.00    -0.025 C 
ATOM     22  C   UNL     1      33.638 -12.922 -25.894  0.00  0.00    -0.025 C 
ATOM     23  H   UNL     1      35.349 -11.551 -24.318  0.00  0.00    -0.080 HD
ENDBRANCH  17  18
ENDBRANCH  16  17
ENDBRANCH   1  16
TORSDOF 6
ENDMDL
MODEL 3
REMARK VINA RESULT:      -8.2      1.757      4.788
REMARK  Name = 4919
REMARK  6 active torsions:
REMARK  status: ('A' for Active; 'I' for Inactive)
REMARK    1  A    between atoms: C_1  and  C_2
REMARK    2  A    between atoms: C_1  and  C_8
REMARK    3  A    between atoms: C_1  and  O_14
REMARK    4  A    between atoms: C_1  and  C_16
REMARK    5  A    between atoms: C_16  and  C_17
REMARK    6  A    between atoms: C_17  and  N_18
REMARK                            x       y       z     vdW  Elec       q    Type
REMARK                         _______ _______ _______ _____ _____    ______ ____
ROOT
ATOM      1  C   UNL     1      34.773 -24.008 -14.748  0.00  0.00    +0.105 C 
ENDROOT
BRANCH   1   2
ATOM      2  C   UNL     1      35.565 -24.481 -13.531  0.00  0.00    +0.029 C 
ATOM      3  C   UNL     1      36.633 -25.502 -13.944  0.00  0.00    +0.003 C 
ATOM      4  C   UNL     1      36.199 -23.290 -12.801  0.00  0.00    +0.003 C 
ATOM      5  C   UNL     1      37.474 -25.951 -12.750  0.00  0.00    +0.000 C 
ATOM      6  C   UNL     1      37.041 -23.743 -11.609  0.00  0.00    +0.000 C 
ATOM      7  C   UNL     1      38.096 -24.764 -12.022  0.00  0.00    +0.000 C 
ENDBRANCH   1   2
BRANCH   1   8
ATOM      8  C   UNL     1      33.252 -23.979 -14.568  0.00  0.00    +0.002 C 
ATOM      9  C   UNL     1      32.533 -22.998 -15.210  0.00  0.00    -0.002 C 
ATOM     10  C   UNL     1      32.666 -24.933 -13.770  0.00  0.00    -0.002 C 
ATOM     11  C   UNL     1      31.148 -22.970 -15.045  0.00  0.00    -0.000 C 
ATOM     12  C   UNL     1      31.281 -24.906 -13.606  0.00  0.00    -0.000 C 
ATOM     13  C   UNL     1      30.522 -23.925 -14.243  0.00  0.00    -0.000 C 
ENDBRANCH   1   8
BRANCH   1  14
ATOM     14  O   UNL     1      35.031 -24.976 -15.787  0.00  0.00    -0.383 OA
ATOM     15  H   UNL     1      35.984 -25.019 -15.959  0.00  0.00    +0.211 HD
ENDBRANCH   1  14
BRANCH   1  16
ATOM     16  C   UNL     1      35.303 -22.640 -15.267  0.00  0.00    +0.008 C 
BRANCH  16  17
ATOM     17  C   UNL     1      36.168 -22.725 -16.528  0.00  0.00    -0.075 C 
BRANCH  17  18
ATOM     18  N   UNL     1      35.603 -21.887 -17.576  0.00  0.00    +0.387 N 
ATOM     19  C   UNL     1      36.570 -21.587 -18.632  0.00  0.00    -0.077 C 
ATOM     20  C   UNL     1      34.481 -22.528 -18.260  0.00  0.00    -0.077 C 
ATOM     21  C   UNL     1      35.692 -21.067 -19.762  0.00  0.00    -0.025 C 
ATOM     22  C   UNL     1      34.317 -21.683 -19.513  0.00  0.00    -0.025 C 
ATOM     23  H   UNL     1      35.310 -21.042 -17.086  0.00  0.00    -0.080 HD
ENDBRANCH  17  18
ENDBRANCH  16  17
ENDBRANCH   1  16
TORSDOF 6
ENDMDL
MODEL 4
REMARK VINA RESULT:      -8.1      9.621     13.128
REMARK  Name = 4919
REMARK  6 active torsions:
REMARK  status: ('A' for Active; 'I' for Inactive)
REMARK    1  A    between atoms: C_1  and  C_2
REMARK    2  A    between atoms: C_1  and  C_8
REMARK    3  A    between atoms: C_1  and  O_14
REMARK    4  A    between atoms: C_1  and  C_16
REMARK    5  A    between atoms: C_16  and  C_17
REMARK    6  A    between atoms: C_17  and  N_18
REMARK                            x       y       z     vdW  Elec       q    Type
REMARK                         _______ _______ _______ _____ _____    ______ ____
ROOT
ATOM      1  C   UNL     1      33.219 -13.737 -22.703  0.00  0.00    +0.105 C 
ENDROOT
BRANCH   1   2
ATOM      2  C   UNL     1      32.774 -12.531 -21.878  0.00  0.00    +0.029 C 
ATOM      3  C   UNL     1      31.712 -11.720 -22.632  0.00  0.00    +0.003 C 
ATOM      4  C   UNL     1      32.250 -12.977 -20.507  0.00  0.00    +0.003 C 
ATOM      5  C   UNL     1      31.212 -10.538 -21.804  0.00  0.00    +0.000 C 
ATOM      6  C   UNL     1      31.750 -11.793 -19.682  0.00  0.00    +0.000 C 
ATOM      7  C   UNL     1      30.700 -10.984 -20.438  0.00  0.00    +0.000 C 
ENDBRANCH   1   2
BRANCH   1   8
ATOM      8  C   UNL     1      33.292 -13.503 -24.215  0.00  0.00    +0.002 C 
ATOM      9  C   UNL     1      33.778 -12.302 -24.672  0.00  0.00    -0.002 C 
ATOM     10  C   UNL     1      32.865 -14.504 -25.056  0.00  0.00    -0.002 C 
ATOM     11  C   UNL     1      33.843 -12.088 -26.049  0.00  0.00    -0.000 C 
ATOM     12  C   UNL     1      32.931 -14.292 -26.433  0.00  0.00    -0.000 C 
ATOM     13  C   UNL     1      33.420 -13.084 -26.930  0.00  0.00    -0.000 C 
ENDBRANCH   1   8
BRANCH   1  14
ATOM     14  O   UNL     1      32.205 -14.745 -22.505  0.00  0.00    -0.383 OA
ATOM     15  H   UNL     1      32.044 -15.209 -23.341  0.00  0.00    +0.211 HD
ENDBRANCH   1  14
BRANCH   1  16
ATOM     16  C   UNL     1      34.552 -14.329 -22.162  0.00  0.00    +0.008 C 
BRANCH  16  17
ATOM     17  C   UNL     1      34.395 -15.602 -21.325  0.00  0.00    -0.075 C 
BRANCH  17  18
ATOM     18  N   UNL     1      34.261 -16.758 -22.200  0.00  0.00    +0.387 N 
ATOM     19  C   UNL     1      35.265 -16.774 -23.263  0.00  0.00    -0.077 C 
ATOM     20  C   UNL     1      34.443 -18.022 -21.487  0.00  0.00    -0.077 C 
ATOM     21  C   UNL     1      35.192 -18.203 -23.781  0.00  0.00    -0.025 C 
ATOM     22  C   UNL     1      34.648 -19.023 -22.613  0.00  0.00    -0.025 C 
ATOM     23  H   UNL     1      33.317 -16.674 -22.577  0.00  0.00    -0.080 HD
ENDBRANCH  17  18
ENDBRANCH  16  17
ENDBRANCH   1  16
TORSDOF 6
ENDMDL
MODEL 5
REMARK VINA RESULT:      -8.0      6.244      9.310
REMARK  Name = 4919
REMARK  6 active torsions:
REMARK  status: ('A' for Active; 'I' for Inactive)
REMARK    1  A    between atoms: C_1  and  C_2
REMARK    2  A    between atoms: C_1  and  C_8
REMARK    3  A    between atoms: C_1  and  O_14
REMARK    4  A    between atoms: C_1  and  C_16
REMARK    5  A    between atoms: C_16  and  C_17
REMARK    6  A    between atoms: C_17  and  N_18
REMARK                            x       y       z     vdW  Elec       q    Type
REMARK                         _______ _______ _______ _____ _____    ______ ____
ROOT
ATOM      1  C   UNL     1      34.908 -18.392 -21.606  0.00  0.00    +0.105 C 
ENDROOT
BRANCH   1   2
ATOM      2  C   UNL     1      34.680 -19.827 -21.137  0.00  0.00    +0.029 C 
ATOM      3  C   UNL     1      35.851 -20.306 -20.268  0.00  0.00    +0.003 C 
ATOM      4  C   UNL     1      33.352 -19.945 -20.378  0.00  0.00    +0.003 C 
ATOM      5  C   UNL     1      35.622 -21.721 -19.742  0.00  0.00    +0.000 C 
ATOM      6  C   UNL     1      33.127 -21.361 -19.852  0.00  0.00    +0.000 C 
ATOM      7  C   UNL     1      34.297 -21.836 -18.995  0.00  0.00    +0.000 C 
ENDBRANCH   1   2
BRANCH   1   8
ATOM      8  C   UNL     1      34.764 -18.166 -23.114  0.00  0.00    +0.002 C 
ATOM      9  C   UNL     1      34.954 -16.898 -23.610  0.00  0.00    -0.002 C 
ATOM     10  C   UNL     1      34.450 -19.241 -23.913  0.00  0.00    -0.002 C 
ATOM     11  C   UNL     1      34.821 -16.691 -24.983  0.00  0.00    -0.000 C 
ATOM     12  C   UNL     1      34.319 -19.035 -25.287  0.00  0.00    -0.000 C 
ATOM     13  C   UNL     1      34.504 -17.761 -25.822  0.00  0.00    -0.000 C 
ENDBRANCH   1   8
BRANCH   1  14
ATOM     14  O   UNL     1      36.283 -18.087 -21.288  0.00  0.00    -0.383 OA
ATOM     15  H   UNL     1      36.712 -17.689 -22.061  0.00  0.00    +0.211 HD
ENDBRANCH   1  14
BRANCH   1  16
ATOM     16  C   UNL     1      34.029 -17.391 -20.802  0.00  0.00    +0.008 C 
BRANCH  16  17
ATOM     17  C   UNL     1      34.753 -16.119 -20.354  0.00  0.00    -0.075 C 
BRANCH  17  18
ATOM     18  N   UNL     1      34.020 -14.944 -20.802  0.00  0.00    +0.387 N 
ATOM     19  C   UNL     1      34.589 -14.361 -22.017  0.00  0.00    -0.077 C 
ATOM     20  C   UNL     1      32.631 -15.248 -21.142  0.00  0.00    -0.077 C 
ATOM     21  C   UNL     1      33.481 -13.438 -22.504  0.00  0.00    -0.025 C 
ATOM     22  C   UNL     1      32.194 -14.021 -21.926  0.00  0.00    -0.025 C 
ATOM     23  H   UNL     1      34.080 -14.299 -20.014  0.00  0.00    -0.080 HD
ENDBRANCH  17  18
ENDBRANCH  16  17
ENDBRANCH   1  16
TORSDOF 6
ENDMDL
MODEL 6
REMARK VINA RESULT:      -8.0      9.766     12.696
REMARK  Name = 4919
REMARK  6 active torsions:
REMARK  status: ('A' for Active; 'I' for Inactive)
REMARK    1  A    between atoms: C_1  and  C_2
REMARK    2  A    between atoms: C_1  and  C_8
REMARK    3  A    between atoms: C_1  and  O_14
REMARK    4  A    between atoms: C_1  and  C_16
REMARK    5  A    between atoms: C_16  and  C_17
REMARK    6  A    between atoms: C_17  and  N_18
REMARK                            x       y       z     vdW  Elec       q    Type
REMARK                         _______ _______ _______ _____ _____    ______ ____
ROOT
ATOM      1  C   UNL     1      33.655 -14.396 -22.991  0.00  0.00    +0.105 C 
ENDROOT
BRANCH   1   2
ATOM      2  C   UNL     1      33.862 -15.903 -22.861  0.00  0.00    +0.029 C 
ATOM      3  C   UNL     1      35.156 -16.335 -23.564  0.00  0.00    +0.003 C 
ATOM      4  C   UNL     1      33.876 -16.322 -21.385  0.00  0.00    +0.003 C 
ATOM      5  C   UNL     1      35.412 -17.832 -23.401  0.00  0.00    +0.000 C 
ATOM      6  C   UNL     1      34.135 -17.819 -21.226  0.00  0.00    +0.000 C 
ATOM      7  C   UNL     1      35.417 -18.246 -21.934  0.00  0.00    +0.000 C 
ENDBRANCH   1   2
BRANCH   1   8
ATOM      8  C   UNL     1      33.529 -13.875 -24.426  0.00  0.00    +0.002 C 
ATOM      9  C   UNL     1      33.933 -12.588 -24.696  0.00  0.00    -0.002 C 
ATOM     10  C   UNL     1      33.016 -14.713 -25.387  0.00  0.00    -0.002 C 
ATOM     11  C   UNL     1      33.816 -12.112 -26.002  0.00  0.00    -0.000 C 
ATOM     12  C   UNL     1      32.900 -14.238 -26.694  0.00  0.00    -0.000 C 
ATOM     13  C   UNL     1      33.301 -12.938 -27.002  0.00  0.00    -0.000 C 
ENDBRANCH   1   8
BRANCH   1  14
ATOM     14  O   UNL     1      34.847 -13.786 -22.451  0.00  0.00    -0.383 OA
ATOM     15  H   UNL     1      34.673 -13.484 -21.546  0.00  0.00    +0.211 HD
ENDBRANCH   1  14
BRANCH   1  16
ATOM     16  C   UNL     1      32.466 -13.913 -22.112  0.00  0.00    +0.008 C 
BRANCH  16  17
ATOM     17  C   UNL     1      31.783 -12.633 -22.603  0.00  0.00    -0.075 C 
BRANCH  17  18
ATOM     18  N   UNL     1      31.314 -11.852 -21.468  0.00  0.00    +0.387 N 
ATOM     19  C   UNL     1      31.867 -12.324 -20.199  0.00  0.00    -0.077 C 
ATOM     20  C   UNL     1      31.709 -10.447 -21.555  0.00  0.00    -0.077 C 
ATOM     21  C   UNL     1      31.577 -11.171 -19.249  0.00  0.00    -0.025 C 
ATOM     22  C   UNL     1      31.470  -9.937 -20.142  0.00  0.00    -0.025 C 
ATOM     23  H   UNL     1      30.299 -11.958 -21.497  0.00  0.00    -0.080 HD
ENDBRANCH  17  18
ENDBRANCH  16  17
ENDBRANCH   1  16
TORSDOF 6
ENDMDL
MODEL 7
REMARK VINA RESULT:      -7.9      6.437     10.321
REMARK  Name = 4919
REMARK  6 active torsions:
REMARK  status: ('A' for Active; 'I' for Inactive)
REMARK    1  A    between atoms: C_1  and  C_2
REMARK    2  A    between atoms: C_1  and  C_8
REMARK    3  A    between atoms: C_1  and  O_14
REMARK    4  A    between atoms: C_1  and  C_16
REMARK    5  A    between atoms: C_16  and  C_17
REMARK    6  A    between atoms: C_17  and  N_18
REMARK                            x       y       z     vdW  Elec       q    Type
REMARK                         _______ _______ _______ _____ _____    ______ ____
ROOT
ATOM      1  C   UNL     1      34.834 -18.527 -21.437  0.00  0.00    +0.105 C 
ENDROOT
BRANCH   1   2
ATOM      2  C   UNL     1      34.196 -17.321 -20.752  0.00  0.00    +0.029 C 
ATOM      3  C   UNL     1      35.016 -16.051 -21.016  0.00  0.00    +0.003 C 
ATOM      4  C   UNL     1      32.744 -17.140 -21.214  0.00  0.00    +0.003 C 
ATOM      5  C   UNL     1      34.369 -14.820 -20.384  0.00  0.00    +0.000 C 
ATOM      6  C   UNL     1      32.101 -15.907 -20.582  0.00  0.00    +0.000 C 
ATOM      7  C   UNL     1      32.923 -14.649 -20.839  0.00  0.00    +0.000 C 
ENDBRANCH   1   2
BRANCH   1   8
ATOM      8  C   UNL     1      34.764 -19.839 -20.651  0.00  0.00    +0.002 C 
ATOM      9  C   UNL     1      33.527 -20.356 -20.343  0.00  0.00    -0.002 C 
ATOM     10  C   UNL     1      35.940 -20.448 -20.282  0.00  0.00    -0.002 C 
ATOM     11  C   UNL     1      33.462 -21.550 -19.625  0.00  0.00    -0.000 C 
ATOM     12  C   UNL     1      35.876 -21.644 -19.565  0.00  0.00    -0.000 C 
ATOM     13  C   UNL     1      34.638 -22.195 -19.237  0.00  0.00    -0.000 C 
ENDBRANCH   1   8
BRANCH   1  14
ATOM     14  O   UNL     1      36.238 -18.213 -21.560  0.00  0.00    -0.383 OA
ATOM     15  H   UNL     1      36.559 -18.503 -22.428  0.00  0.00    +0.211 HD
ENDBRANCH   1  14
BRANCH   1  16
ATOM     16  C   UNL     1      34.286 -18.708 -22.882  0.00  0.00    +0.008 C 
BRANCH  16  17
ATOM     17  C   UNL     1      34.948 -17.815 -23.936  0.00  0.00    -0.075 C 
BRANCH  17  18
ATOM     18  N   UNL     1      34.020 -16.779 -24.365  0.00  0.00    +0.387 N 
ATOM     19  C   UNL     1      34.489 -15.436 -24.028  0.00  0.00    -0.077 C 
ATOM     20  C   UNL     1      33.832 -16.763 -25.815  0.00  0.00    -0.077 C 
ATOM     21  C   UNL     1      33.605 -14.541 -24.885  0.00  0.00    -0.025 C 
ATOM     22  C   UNL     1      33.171 -15.415 -26.058  0.00  0.00    -0.025 C 
ATOM     23  H   UNL     1      33.153 -17.007 -23.878  0.00  0.00    -0.080 HD
ENDBRANCH  17  18
ENDBRANCH  16  17
ENDBRANCH   1  16
TORSDOF 6
ENDMDL
MODEL 8
REMARK VINA RESULT:      -7.9      6.190      9.492
REMARK  Name = 4919
REMARK  6 active torsions:
REMARK  status: ('A' for Active; 'I' for Inactive)
REMARK    1  A    between atoms: C_1  and  C_2
REMARK    2  A    between atoms: C_1  and  C_8
REMARK    3  A    between atoms: C_1  and  O_14
REMARK    4  A    between atoms: C_1  and  C_16
REMARK    5  A    between atoms: C_16  and  C_17
REMARK    6  A    between atoms: C_17  and  N_18
REMARK                            x       y       z     vdW  Elec       q    Type
REMARK                         _______ _______ _______ _____ _____    ______ ____
ROOT
ATOM      1  C   UNL     1      34.398 -18.682 -21.484  0.00  0.00    +0.105 C 
ENDROOT
BRANCH   1   2
ATOM      2  C   UNL     1      34.543 -19.687 -20.343  0.00  0.00    +0.029 C 
ATOM      3  C   UNL     1      33.328 -20.622 -20.286  0.00  0.00    +0.003 C 
ATOM      4  C   UNL     1      35.843 -20.488 -20.488  0.00  0.00    +0.003 C 
ATOM      5  C   UNL     1      33.474 -21.671 -19.185  0.00  0.00    +0.000 C 
ATOM      6  C   UNL     1      35.985 -21.537 -19.387  0.00  0.00    +0.000 C 
ATOM      7  C   UNL     1      34.772 -22.459 -19.329  0.00  0.00    +0.000 C 
ENDBRANCH   1   2
BRANCH   1   8
ATOM      8  C   UNL     1      33.915 -17.289 -21.071  0.00  0.00    +0.002 C 
ATOM      9  C   UNL     1      32.562 -17.044 -21.042  0.00  0.00    -0.002 C 
ATOM     10  C   UNL     1      34.852 -16.337 -20.748  0.00  0.00    -0.002 C 
ATOM     11  C   UNL     1      32.121 -15.775 -20.668  0.00  0.00    -0.000 C 
ATOM     12  C   UNL     1      34.413 -15.067 -20.373  0.00  0.00    -0.000 C 
ATOM     13  C   UNL     1      33.047 -14.786 -20.332  0.00  0.00    -0.000 C 
ENDBRANCH   1   8
BRANCH   1  14
ATOM     14  O   UNL     1      33.375 -19.217 -22.351  0.00  0.00    -0.383 OA
ATOM     15  H   UNL     1      32.787 -19.793 -21.839  0.00  0.00    +0.211 HD
ENDBRANCH   1  14
BRANCH   1  16
ATOM     16  C   UNL     1      35.702 -18.597 -22.328  0.00  0.00    +0.008 C 
BRANCH  16  17
ATOM     17  C   UNL     1      35.481 -18.475 -23.838  0.00  0.00    -0.075 C 
BRANCH  17  18
ATOM     18  N   UNL     1      34.546 -17.396 -24.119  0.00  0.00    +0.387 N 
ATOM     19  C   UNL     1      35.142 -16.075 -23.924  0.00  0.00    -0.077 C 
ATOM     20  C   UNL     1      34.086 -17.403 -25.507  0.00  0.00    -0.077 C 
ATOM     21  C   UNL     1      34.162 -15.149 -24.629  0.00  0.00    -0.025 C 
ATOM     22  C   UNL     1      33.464 -16.024 -25.667  0.00  0.00    -0.025 C 
ATOM     23  H   UNL     1      33.777 -17.560 -23.469  0.00  0.00    -0.080 HD
ENDBRANCH  17  18
ENDBRANCH  16  17
ENDBRANCH   1  16
TORSDOF 6
ENDMDL
MODEL 9
REMARK VINA RESULT:      -7.9      9.594     13.289
REMARK  Name = 4919
REMARK  6 active torsions:
REMARK  status: ('A' for Active; 'I' for Inactive)
REMARK    1  A    between atoms: C_1  and  C_2
REMARK    2  A    between atoms: C_1  and  C_8
REMARK    3  A    between atoms: C_1  and  O_14
REMARK    4  A    between atoms: C_1  and  C_16
REMARK    5  A    between atoms: C_16  and  C_17
REMARK    6  A    between atoms: C_17  and  N_18
REMARK                            x       y       z     vdW  Elec       q    Type
REMARK                         _______ _______ _______ _____ _____    ______ ____
ROOT
ATOM      1  C   UNL     1      33.179 -13.589 -22.884  0.00  0.00    +0.105 C 
ENDROOT
BRANCH   1   2
ATOM      2  C   UNL     1      32.878 -13.432 -24.373  0.00  0.00    +0.029 C 
ATOM      3  C   UNL     1      33.786 -12.365 -25.000  0.00  0.00    +0.003 C 
ATOM      4  C   UNL     1      33.029 -14.774 -25.101  0.00  0.00    +0.003 C 
ATOM      5  C   UNL     1      33.540 -12.227 -26.502  0.00  0.00    +0.000 C 
ATOM      6  C   UNL     1      32.785 -14.632 -26.602  0.00  0.00    +0.000 C 
ATOM      7  C   UNL     1      33.683 -13.565 -27.220  0.00  0.00    +0.000 C 
ENDBRANCH   1   2
BRANCH   1   8
ATOM      8  C   UNL     1      32.411 -12.641 -21.958  0.00  0.00    +0.002 C 
ATOM      9  C   UNL     1      31.785 -11.548 -22.509  0.00  0.00    -0.002 C 
ATOM     10  C   UNL     1      32.378 -12.921 -20.612  0.00  0.00    -0.002 C 
ATOM     11  C   UNL     1      31.087 -10.683 -21.666  0.00  0.00    -0.000 C 
ATOM     12  C   UNL     1      31.679 -12.057 -19.768  0.00  0.00    -0.000 C 
ATOM     13  C   UNL     1      31.033 -10.939 -20.295  0.00  0.00    -0.000 C 
ENDBRANCH   1   8
BRANCH   1  14
ATOM     14  O   UNL     1      34.574 -13.252 -22.727  0.00  0.00    -0.383 OA
ATOM     15  H   UNL     1      34.793 -12.505 -23.305  0.00  0.00    +0.211 HD
ENDBRANCH   1  14
BRANCH   1  16
ATOM     16  C   UNL     1      33.021 -15.068 -22.431  0.00  0.00    +0.008 C 
BRANCH  16  17
ATOM     17  C   UNL     1      34.311 -15.731 -21.940  0.00  0.00    -0.075 C 
BRANCH  17  18
ATOM     18  N   UNL     1      34.281 -17.157 -22.230  0.00  0.00    +0.387 N 
ATOM     19  C   UNL     1      34.952 -17.484 -23.488  0.00  0.00    -0.077 C 
ATOM     20  C   UNL     1      34.971 -17.949 -21.214  0.00  0.00    -0.077 C 
ATOM     21  C   UNL     1      35.142 -18.991 -23.391  0.00  0.00    -0.025 C 
ATOM     22  C   UNL     1      35.151 -19.296 -21.896  0.00  0.00    -0.025 C 
ATOM     23  H   UNL     1      33.286 -17.381 -22.267  0.00  0.00    -0.080 HD
ENDBRANCH  17  18
ENDBRANCH  16  17
ENDBRANCH   1  16
TORSDOF 6
ENDMDL
