MODEL 1
REMARK VINA RESULT:     -11.2      0.000      0.000
REMARK  Name = 25116064
REMARK  6 active torsions:
REMARK  status: ('A' for Active; 'I' for Inactive)
REMARK    1  A    between atoms: N_2  and  C_27
REMARK    2  A    between atoms: C_11  and  C_17
REMARK    3  A    between atoms: C_27  and  C_28
REMARK    4  A    between atoms: C_28  and  O_29
REMARK    5  A    between atoms: C_28  and  C_31
REMARK    6  A    between atoms: C_31  and  N_33
REMARK                            x       y       z     vdW  Elec       q    Type
REMARK                         _______ _______ _______ _____ _____    ______ ____
ROOT
ATOM      1  O   UNL     1      30.484  -9.809 -22.606  0.00  0.00    -0.270 OA
ATOM      2  N   UNL     1      32.201  -8.257 -22.854  0.00  0.00    -0.274 N 
ATOM      3  N   UNL     1      34.337 -11.797 -23.869  0.00  0.00    -0.357 N 
ATOM      4  C   UNL     1      33.636  -7.977 -22.730  0.00  0.00    +0.094 C 
ATOM      5  C   UNL     1      34.424  -8.178 -24.026  0.00  0.00    +0.028 C 
ATOM      6  C   UNL     1      34.126  -9.468 -24.792  0.00  0.00    +0.045 C 
ATOM      7  C   UNL     1      33.695 -10.585 -23.907  0.00  0.00    +0.038 A 
ATOM      8  C   UNL     1      32.614 -10.646 -23.043  0.00  0.00    +0.062 A 
ATOM      9  C   UNL     1      31.671  -9.560 -22.810  0.00  0.00    +0.250 C 
ATOM     10  C   UNL     1      32.585 -11.965 -22.515  0.00  0.00    -0.001 A 
ATOM     11  C   UNL     1      33.665 -12.646 -23.030  0.00  0.00    +0.053 A 
ATOM     12  C   UNL     1      31.604 -12.542 -21.571  0.00  0.00    +0.033 C 
ATOM     13  H   UNL     1      35.155 -12.022 -24.368  0.00  0.00    +0.166 HD
ENDROOT
BRANCH  11  17
ATOM     14  F   UNL     1      36.339 -18.999 -21.848  0.00  0.00    -0.204 F 
ATOM     15  O   UNL     1      32.844 -13.940 -25.554  0.00  0.00    -0.270 OA
ATOM     16  N   UNL     1      33.547 -16.194 -25.634  0.00  0.00    -0.280 N 
ATOM     17  C   UNL     1      34.172 -13.947 -22.872  0.00  0.00    +0.021 C 
ATOM     18  C   UNL     1      34.086 -15.006 -23.752  0.00  0.00    +0.056 C 
ATOM     19  C   UNL     1      34.606 -16.360 -23.600  0.00  0.00    +0.020 C 
ATOM     20  C   UNL     1      33.398 -14.916 -25.084  0.00  0.00    +0.250 C 
ATOM     21  C   UNL     1      34.252 -17.039 -24.769  0.00  0.00    +0.051 C 
ATOM     22  C   UNL     1      35.312 -17.001 -22.599  0.00  0.00    +0.031 C 
ATOM     23  C   UNL     1      34.581 -18.363 -24.985  0.00  0.00    +0.017 C 
ATOM     24  C   UNL     1      35.655 -18.343 -22.796  0.00  0.00    +0.140 C 
ATOM     25  C   UNL     1      35.293 -19.017 -23.978  0.00  0.00    +0.031 C 
ATOM     26  H   UNL     1      33.201 -16.463 -26.515  0.00  0.00    +0.155 HD
ENDBRANCH  11  17
BRANCH   2  27
ATOM     27  C   UNL     1      31.308  -7.108 -22.870  0.00  0.00    +0.121 C 
BRANCH  27  28
ATOM     28  C   UNL     1      32.044  -5.775 -22.717  0.00  0.00    +0.110 C 
BRANCH  28  29
ATOM     29  O   UNL     1      32.148  -5.478 -21.324  0.00  0.00    -0.385 OA
ATOM     30  H   UNL     1      31.577  -6.082 -20.821  0.00  0.00    +0.210 HD
ENDBRANCH  28  29
BRANCH  28  31
ATOM     31  C   UNL     1      31.384  -4.588 -23.427  0.00  0.00    -0.045 C 
BRANCH  31  33
ATOM     32  O   UNL     1      32.485  -4.082 -27.445  0.00  0.00    -0.358 OA
ATOM     33  N   UNL     1      32.119  -4.185 -24.624  0.00  0.00    +0.392 N 
ATOM     34  C   UNL     1      31.294  -3.315 -25.475  0.00  0.00    -0.045 C 
ATOM     35  C   UNL     1      32.561  -5.362 -25.385  0.00  0.00    -0.045 C 
ATOM     36  C   UNL     1      32.077  -2.918 -26.723  0.00  0.00    +0.119 C 
ATOM     37  C   UNL     1      33.314  -4.916 -26.635  0.00  0.00    +0.119 C 
ATOM     38  H   UNL     1      32.941  -3.663 -24.324  0.00  0.00    -0.079 HD
ENDBRANCH  31  33
ENDBRANCH  28  31
ENDBRANCH  27  28
ENDBRANCH   2  27
TORSDOF 6
ENDMDL
MODEL 2
REMARK VINA RESULT:     -11.0      4.247     11.439
REMARK  Name = 25116064
REMARK  6 active torsions:
REMARK  status: ('A' for Active; 'I' for Inactive)
REMARK    1  A    between atoms: N_2  and  C_27
REMARK    2  A    between atoms: C_11  and  C_17
REMARK    3  A    between atoms: C_27  and  C_28
REMARK    4  A    between atoms: C_28  and  O_29
REMARK    5  A    between atoms: C_28  and  C_31
REMARK    6  A    between atoms: C_31  and  N_33
REMARK                            x       y       z     vdW  Elec       q    Type
REMARK                         _______ _______ _______ _____ _____    ______ ____
ROOT
ATOM      1  O   UNL     1      34.307 -14.878 -24.600  0.00  0.00    -0.270 OA
ATOM      2  N   UNL     1      34.395 -15.317 -22.316  0.00  0.00    -0.274 N 
ATOM      3  N   UNL     1      31.969 -11.819 -22.239  0.00  0.00    -0.357 N 
ATOM      4  C   UNL     1      34.429 -14.766 -20.956  0.00  0.00    +0.094 C 
ATOM      5  C   UNL     1      33.055 -14.673 -20.289  0.00  0.00    +0.028 C 
ATOM      6  C   UNL     1      31.936 -14.084 -21.150  0.00  0.00    +0.045 C 
ATOM      7  C   UNL     1      32.430 -13.109 -22.160  0.00  0.00    +0.038 A 
ATOM      8  C   UNL     1      33.348 -13.299 -23.180  0.00  0.00    +0.062 A 
ATOM      9  C   UNL     1      34.055 -14.547 -23.443  0.00  0.00    +0.250 C 
ATOM     10  C   UNL     1      33.391 -12.089 -23.925  0.00  0.00    -0.001 A 
ATOM     11  C   UNL     1      32.543 -11.192 -23.314  0.00  0.00    +0.053 A 
ATOM     12  C   UNL     1      34.193 -11.796 -25.131  0.00  0.00    +0.033 C 
ATOM     13  H   UNL     1      31.326 -11.407 -21.619  0.00  0.00    +0.166 HD
ENDROOT
BRANCH  11  17
ATOM     14  F   UNL     1      30.716  -4.653 -24.989  0.00  0.00    -0.204 F 
ATOM     15  O   UNL     1      32.534 -10.034 -20.597  0.00  0.00    -0.270 OA
ATOM     16  N   UNL     1      31.952  -7.745 -20.640  0.00  0.00    -0.280 N 
ATOM     17  C   UNL     1      32.181  -9.858 -23.564  0.00  0.00    +0.021 C 
ATOM     18  C   UNL     1      32.018  -8.835 -22.652  0.00  0.00    +0.056 C 
ATOM     19  C   UNL     1      31.641  -7.448 -22.899  0.00  0.00    +0.020 C 
ATOM     20  C   UNL     1      32.216  -9.011 -21.174  0.00  0.00    +0.250 C 
ATOM     21  C   UNL     1      31.616  -6.831 -21.645  0.00  0.00    +0.051 C 
ATOM     22  C   UNL     1      31.341  -6.733 -24.043  0.00  0.00    +0.031 C 
ATOM     23  C   UNL     1      31.296  -5.497 -21.483  0.00  0.00    +0.017 C 
ATOM     24  C   UNL     1      31.013  -5.380 -23.902  0.00  0.00    +0.140 C 
ATOM     25  C   UNL     1      30.991  -4.768 -22.634  0.00  0.00    +0.031 C 
ATOM     26  H   UNL     1      31.997  -7.526 -19.682  0.00  0.00    +0.155 HD
ENDBRANCH  11  17
BRANCH   2  27
ATOM     27  C   UNL     1      34.886 -16.676 -22.485  0.00  0.00    +0.121 C 
BRANCH  27  28
ATOM     28  C   UNL     1      34.584 -17.576 -21.285  0.00  0.00    +0.110 C 
BRANCH  28  29
ATOM     29  O   UNL     1      35.652 -17.444 -20.346  0.00  0.00    -0.385 OA
ATOM     30  H   UNL     1      36.420 -17.951 -20.657  0.00  0.00    +0.210 HD
ENDBRANCH  28  29
BRANCH  28  31
ATOM     31  C   UNL     1      34.402 -19.061 -21.621  0.00  0.00    -0.045 C 
BRANCH  31  33
ATOM     32  O   UNL     1      34.710 -22.447 -19.159  0.00  0.00    -0.358 OA
ATOM     33  N   UNL     1      34.519 -19.910 -20.437  0.00  0.00    +0.392 N 
ATOM     34  C   UNL     1      35.756 -20.702 -20.482  0.00  0.00    -0.045 C 
ATOM     35  C   UNL     1      33.355 -20.800 -20.316  0.00  0.00    -0.045 C 
ATOM     36  C   UNL     1      35.849 -21.589 -19.244  0.00  0.00    +0.119 C 
ATOM     37  C   UNL     1      33.506 -21.684 -19.081  0.00  0.00    +0.119 C 
ATOM     38  H   UNL     1      34.551 -19.302 -19.619  0.00  0.00    -0.079 HD
ENDBRANCH  31  33
ENDBRANCH  28  31
ENDBRANCH  27  28
ENDBRANCH   2  27
TORSDOF 6
ENDMDL
MODEL 3
REMARK VINA RESULT:     -10.9      2.465      3.645
REMARK  Name = 25116064
REMARK  6 active torsions:
REMARK  status: ('A' for Active; 'I' for Inactive)
REMARK    1  A    between atoms: N_2  and  C_27
REMARK    2  A    between atoms: C_11  and  C_17
REMARK    3  A    between atoms: C_27  and  C_28
REMARK    4  A    between atoms: C_28  and  O_29
REMARK    5  A    between atoms: C_28  and  C_31
REMARK    6  A    between atoms: C_31  and  N_33
REMARK                            x       y       z     vdW  Elec       q    Type
REMARK                         _______ _______ _______ _____ _____    ______ ____
ROOT
ATOM      1  O   UNL     1      31.522 -11.313 -21.709  0.00  0.00    -0.270 OA
ATOM      2  N   UNL     1      33.024 -10.948 -23.449  0.00  0.00    -0.274 N 
ATOM      3  N   UNL     1      33.057 -15.205 -23.410  0.00  0.00    -0.357 N 
ATOM      4  C   UNL     1      34.229 -11.403 -24.152  0.00  0.00    +0.094 C 
ATOM      5  C   UNL     1      33.943 -12.288 -25.367  0.00  0.00    +0.028 C 
ATOM      6  C   UNL     1      32.915 -13.400 -25.154  0.00  0.00    +0.045 C 
ATOM      7  C   UNL     1      32.870 -13.889 -23.748  0.00  0.00    +0.038 A 
ATOM      8  C   UNL     1      32.602 -13.182 -22.587  0.00  0.00    +0.062 A 
ATOM      9  C   UNL     1      32.330 -11.752 -22.525  0.00  0.00    +0.250 C 
ATOM     10  C   UNL     1      32.576 -14.129 -21.527  0.00  0.00    -0.001 A 
ATOM     11  C   UNL     1      32.874 -15.363 -22.061  0.00  0.00    +0.053 A 
ATOM     12  C   UNL     1      32.300 -13.881 -20.096  0.00  0.00    +0.033 C 
ATOM     13  H   UNL     1      33.288 -15.925 -24.040  0.00  0.00    +0.166 HD
ENDROOT
BRANCH  11  17
ATOM     14  F   UNL     1      33.152 -21.771 -19.275  0.00  0.00    -0.204 F 
ATOM     15  O   UNL     1      35.671 -16.016 -22.751  0.00  0.00    -0.270 OA
ATOM     16  N   UNL     1      36.263 -18.172 -21.988  0.00  0.00    -0.280 N 
ATOM     17  C   UNL     1      33.015 -16.656 -21.528  0.00  0.00    +0.021 C 
ATOM     18  C   UNL     1      34.128 -17.470 -21.553  0.00  0.00    +0.056 C 
ATOM     19  C   UNL     1      34.286 -18.812 -21.005  0.00  0.00    +0.020 C 
ATOM     20  C   UNL     1      35.427 -17.069 -22.191  0.00  0.00    +0.250 C 
ATOM     21  C   UNL     1      35.600 -19.191 -21.295  0.00  0.00    +0.051 C 
ATOM     22  C   UNL     1      33.440 -19.667 -20.323  0.00  0.00    +0.031 C 
ATOM     23  C   UNL     1      36.115 -20.417 -20.925  0.00  0.00    +0.017 C 
ATOM     24  C   UNL     1      33.942 -20.915 -19.938  0.00  0.00    +0.140 C 
ATOM     25  C   UNL     1      35.267 -21.286 -20.237  0.00  0.00    +0.031 C 
ATOM     26  H   UNL     1      37.198 -18.224 -22.293  0.00  0.00    +0.155 HD
ENDBRANCH  11  17
BRANCH   2  27
ATOM     27  C   UNL     1      32.650  -9.553 -23.625  0.00  0.00    +0.121 C 
BRANCH  27  28
ATOM     28  C   UNL     1      33.398  -8.608 -22.681  0.00  0.00    +0.110 C 
BRANCH  28  29
ATOM     29  O   UNL     1      32.701  -8.576 -21.435  0.00  0.00    -0.385 OA
ATOM     30  H   UNL     1      32.514  -9.483 -21.145  0.00  0.00    +0.210 HD
ENDBRANCH  28  29
BRANCH  28  31
ATOM     31  C   UNL     1      33.557  -7.173 -23.196  0.00  0.00    -0.045 C 
BRANCH  31  33
ATOM     32  O   UNL     1      30.654  -4.162 -23.547  0.00  0.00    -0.358 OA
ATOM     33  N   UNL     1      32.270  -6.497 -23.344  0.00  0.00    +0.392 N 
ATOM     34  C   UNL     1      32.245  -5.684 -24.567  0.00  0.00    -0.045 C 
ATOM     35  C   UNL     1      31.985  -5.655 -22.174  0.00  0.00    -0.045 C 
ATOM     36  C   UNL     1      30.898  -4.978 -24.694  0.00  0.00    +0.119 C 
ATOM     37  C   UNL     1      30.644  -4.950 -22.357  0.00  0.00    +0.119 C 
ATOM     38  H   UNL     1      31.547  -7.213 -23.414  0.00  0.00    -0.079 HD
ENDBRANCH  31  33
ENDBRANCH  28  31
ENDBRANCH  27  28
ENDBRANCH   2  27
TORSDOF 6
ENDMDL
MODEL 4
REMARK VINA RESULT:     -10.8      3.724      7.037
REMARK  Name = 25116064
REMARK  6 active torsions:
REMARK  status: ('A' for Active; 'I' for Inactive)
REMARK    1  A    between atoms: N_2  and  C_27
REMARK    2  A    between atoms: C_11  and  C_17
REMARK    3  A    between atoms: C_27  and  C_28
REMARK    4  A    between atoms: C_28  and  O_29
REMARK    5  A    between atoms: C_28  and  C_31
REMARK    6  A    between atoms: C_31  and  N_33
REMARK                            x       y       z     vdW  Elec       q    Type
REMARK                         _______ _______ _______ _____ _____    ______ ____
ROOT
ATOM      1  O   UNL     1      34.934 -16.873 -25.892  0.00  0.00    -0.270 OA
ATOM      2  N   UNL     1      33.541 -15.223 -25.022  0.00  0.00    -0.274 N 
ATOM      3  N   UNL     1      35.058 -16.818 -21.377  0.00  0.00    -0.357 N 
ATOM      4  C   UNL     1      32.643 -14.817 -23.935  0.00  0.00    +0.094 C 
ATOM      5  C   UNL     1      33.324 -13.993 -22.840  0.00  0.00    +0.028 C 
ATOM      6  C   UNL     1      34.667 -14.530 -22.342  0.00  0.00    +0.045 C 
ATOM      7  C   UNL     1      34.778 -16.010 -22.451  0.00  0.00    +0.038 A 
ATOM      8  C   UNL     1      34.680 -16.812 -23.576  0.00  0.00    +0.062 A 
ATOM      9  C   UNL     1      34.407 -16.328 -24.923  0.00  0.00    +0.250 C 
ATOM     10  C   UNL     1      34.967 -18.141 -23.160  0.00  0.00    -0.001 A 
ATOM     11  C   UNL     1      35.181 -18.116 -21.800  0.00  0.00    +0.053 A 
ATOM     12  C   UNL     1      35.022 -19.360 -23.994  0.00  0.00    +0.033 C 
ATOM     13  H   UNL     1      35.154 -16.512 -20.447  0.00  0.00    +0.166 HD
ENDROOT
BRANCH  11  17
ATOM     14  F   UNL     1      37.087 -22.823 -16.992  0.00  0.00    -0.204 F 
ATOM     15  O   UNL     1      32.578 -19.469 -21.461  0.00  0.00    -0.270 OA
ATOM     16  N   UNL     1      32.715 -21.212 -19.871  0.00  0.00    -0.280 N 
ATOM     17  C   UNL     1      35.481 -19.092 -20.834  0.00  0.00    +0.021 C 
ATOM     18  C   UNL     1      34.633 -20.031 -20.283  0.00  0.00    +0.056 C 
ATOM     19  C   UNL     1      34.932 -21.049 -19.281  0.00  0.00    +0.020 C 
ATOM     20  C   UNL     1      33.184 -20.152 -20.656  0.00  0.00    +0.250 C 
ATOM     21  C   UNL     1      33.734 -21.737 -19.068  0.00  0.00    +0.051 C 
ATOM     22  C   UNL     1      36.078 -21.398 -18.592  0.00  0.00    +0.031 C 
ATOM     23  C   UNL     1      33.631 -22.784 -18.174  0.00  0.00    +0.017 C 
ATOM     24  C   UNL     1      35.996 -22.455 -17.680  0.00  0.00    +0.140 C 
ATOM     25  C   UNL     1      34.784 -23.142 -17.472  0.00  0.00    +0.031 C 
ATOM     26  H   UNL     1      31.789 -21.544 -19.884  0.00  0.00    +0.155 HD
ENDBRANCH  11  17
BRANCH   2  27
ATOM     27  C   UNL     1      33.394 -14.525 -26.290  0.00  0.00    +0.121 C 
BRANCH  27  28
ATOM     28  C   UNL     1      33.143 -13.025 -26.123  0.00  0.00    +0.110 C 
BRANCH  28  29
ATOM     29  O   UNL     1      32.690 -12.505 -27.374  0.00  0.00    -0.385 OA
ATOM     30  H   UNL     1      31.827 -12.891 -27.591  0.00  0.00    +0.210 HD
ENDBRANCH  28  29
BRANCH  28  31
ATOM     31  C   UNL     1      34.359 -12.214 -25.662  0.00  0.00    -0.045 C 
BRANCH  31  33
ATOM     32  O   UNL     1      34.001  -8.836 -23.196  0.00  0.00    -0.358 OA
ATOM     33  N   UNL     1      33.981 -10.892 -25.165  0.00  0.00    +0.392 N 
ATOM     34  C   UNL     1      35.171 -10.062 -24.932  0.00  0.00    -0.045 C 
ATOM     35  C   UNL     1      33.196 -11.006 -23.927  0.00  0.00    -0.045 C 
ATOM     36  C   UNL     1      34.754  -8.694 -24.402  0.00  0.00    +0.119 C 
ATOM     37  C   UNL     1      32.825  -9.614 -23.421  0.00  0.00    +0.119 C 
ATOM     38  H   UNL     1      33.405 -10.444 -25.876  0.00  0.00    -0.079 HD
ENDBRANCH  31  33
ENDBRANCH  28  31
ENDBRANCH  27  28
ENDBRANCH   2  27
TORSDOF 6
ENDMDL
MODEL 5
REMARK VINA RESULT:     -10.6      3.757     11.111
REMARK  Name = 25116064
REMARK  6 active torsions:
REMARK  status: ('A' for Active; 'I' for Inactive)
REMARK    1  A    between atoms: N_2  and  C_27
REMARK    2  A    between atoms: C_11  and  C_17
REMARK    3  A    between atoms: C_27  and  C_28
REMARK    4  A    between atoms: C_28  and  O_29
REMARK    5  A    between atoms: C_28  and  C_31
REMARK    6  A    between atoms: C_31  and  N_33
REMARK                            x       y       z     vdW  Elec       q    Type
REMARK                         _______ _______ _______ _____ _____    ______ ____
ROOT
ATOM      1  O   UNL     1      32.982 -15.933 -26.234  0.00  0.00    -0.270 OA
ATOM      2  N   UNL     1      34.373 -16.663 -24.516  0.00  0.00    -0.274 N 
ATOM      3  N   UNL     1      33.581 -12.720 -23.117  0.00  0.00    -0.357 N 
ATOM      4  C   UNL     1      35.402 -16.311 -23.531  0.00  0.00    +0.094 C 
ATOM      5  C   UNL     1      34.847 -15.973 -22.146  0.00  0.00    +0.028 C 
ATOM      6  C   UNL     1      33.644 -15.028 -22.123  0.00  0.00    +0.045 C 
ATOM      7  C   UNL     1      33.625 -14.083 -23.272  0.00  0.00    +0.038 A 
ATOM      8  C   UNL     1      33.599 -14.360 -24.629  0.00  0.00    +0.062 A 
ATOM      9  C   UNL     1      33.617 -15.698 -25.208  0.00  0.00    +0.250 C 
ATOM     10  C   UNL     1      33.481 -13.113 -25.301  0.00  0.00    -0.001 A 
ATOM     11  C   UNL     1      33.487 -12.121 -24.345  0.00  0.00    +0.053 A 
ATOM     12  C   UNL     1      33.382 -12.873 -26.756  0.00  0.00    +0.033 C 
ATOM     13  H   UNL     1      33.614 -12.246 -22.255  0.00  0.00    +0.166 HD
ENDROOT
BRANCH  11  17
ATOM     14  F   UNL     1      33.431  -5.149 -24.887  0.00  0.00    -0.204 F 
ATOM     15  O   UNL     1      31.600 -11.530 -22.152  0.00  0.00    -0.270 OA
ATOM     16  N   UNL     1      31.242  -9.205 -21.929  0.00  0.00    -0.280 N 
ATOM     17  C   UNL     1      33.419 -10.718 -24.386  0.00  0.00    +0.021 C 
ATOM     18  C   UNL     1      32.679  -9.878 -23.579  0.00  0.00    +0.056 C 
ATOM     19  C   UNL     1      32.599  -8.422 -23.611  0.00  0.00    +0.020 C 
ATOM     20  C   UNL     1      31.788 -10.371 -22.476  0.00  0.00    +0.250 C 
ATOM     21  C   UNL     1      31.715  -8.066 -22.590  0.00  0.00    +0.051 C 
ATOM     22  C   UNL     1      33.192  -7.455 -24.401  0.00  0.00    +0.031 C 
ATOM     23  C   UNL     1      31.390  -6.752 -22.318  0.00  0.00    +0.017 C 
ATOM     24  C   UNL     1      32.876  -6.116 -24.143  0.00  0.00    +0.140 C 
ATOM     25  C   UNL     1      31.983  -5.768 -23.112  0.00  0.00    +0.031 C 
ATOM     26  H   UNL     1      30.609  -9.188 -21.176  0.00  0.00    +0.155 HD
ENDBRANCH  11  17
BRANCH   2  27
ATOM     27  C   UNL     1      34.263 -18.068 -24.877  0.00  0.00    +0.121 C 
BRANCH  27  28
ATOM     28  C   UNL     1      34.991 -18.996 -23.902  0.00  0.00    +0.110 C 
BRANCH  28  29
ATOM     29  O   UNL     1      35.193 -20.254 -24.548  0.00  0.00    -0.385 OA
ATOM     30  H   UNL     1      34.345 -20.723 -24.613  0.00  0.00    +0.210 HD
ENDBRANCH  28  29
BRANCH  28  31
ATOM     31  C   UNL     1      34.267 -19.234 -22.572  0.00  0.00    -0.045 C 
BRANCH  31  33
ATOM     32  O   UNL     1      36.196 -20.543 -19.082  0.00  0.00    -0.358 OA
ATOM     33  N   UNL     1      35.068 -20.030 -21.645  0.00  0.00    +0.392 N 
ATOM     34  C   UNL     1      34.246 -20.512 -20.526  0.00  0.00    -0.045 C 
ATOM     35  C   UNL     1      36.205 -19.251 -21.136  0.00  0.00    -0.045 C 
ATOM     36  C   UNL     1      35.105 -21.329 -19.566  0.00  0.00    +0.119 C 
ATOM     37  C   UNL     1      37.018 -20.098 -20.161  0.00  0.00    +0.119 C 
ATOM     38  H   UNL     1      35.428 -20.836 -22.156  0.00  0.00    -0.079 HD
ENDBRANCH  31  33
ENDBRANCH  28  31
ENDBRANCH  27  28
ENDBRANCH   2  27
TORSDOF 6
ENDMDL
MODEL 6
REMARK VINA RESULT:     -10.2      2.770      4.027
REMARK  Name = 25116064
REMARK  6 active torsions:
REMARK  status: ('A' for Active; 'I' for Inactive)
REMARK    1  A    between atoms: N_2  and  C_27
REMARK    2  A    between atoms: C_11  and  C_17
REMARK    3  A    between atoms: C_27  and  C_28
REMARK    4  A    between atoms: C_28  and  O_29
REMARK    5  A    between atoms: C_28  and  C_31
REMARK    6  A    between atoms: C_31  and  N_33
REMARK                            x       y       z     vdW  Elec       q    Type
REMARK                         _______ _______ _______ _____ _____    ______ ____
ROOT
ATOM      1  O   UNL     1      33.524 -11.749 -23.822  0.00  0.00    -0.270 OA
ATOM      2  N   UNL     1      31.797 -10.753 -22.621  0.00  0.00    -0.274 N 
ATOM      3  N   UNL     1      32.235 -14.323 -20.343  0.00  0.00    -0.357 N 
ATOM      4  C   UNL     1      30.575 -10.945 -21.832  0.00  0.00    +0.094 C 
ATOM      5  C   UNL     1      30.811 -10.992 -20.321  0.00  0.00    +0.028 C 
ATOM      6  C   UNL     1      31.973 -11.871 -19.855  0.00  0.00    +0.045 C 
ATOM      7  C   UNL     1      32.236 -13.018 -20.766  0.00  0.00    +0.038 A 
ATOM      8  C   UNL     1      32.560 -13.006 -22.114  0.00  0.00    +0.062 A 
ATOM      9  C   UNL     1      32.679 -11.805 -22.931  0.00  0.00    +0.250 C 
ATOM     10  C   UNL     1      32.813 -14.354 -22.488  0.00  0.00    -0.001 A 
ATOM     11  C   UNL     1      32.591 -15.143 -21.381  0.00  0.00    +0.053 A 
ATOM     12  C   UNL     1      33.227 -14.864 -23.811  0.00  0.00    +0.033 C 
ATOM     13  H   UNL     1      32.012 -14.624 -19.433  0.00  0.00    +0.166 HD
ENDROOT
BRANCH  11  17
ATOM     14  F   UNL     1      32.475 -22.021 -20.122  0.00  0.00    -0.204 F 
ATOM     15  O   UNL     1      35.502 -15.640 -21.416  0.00  0.00    -0.270 OA
ATOM     16  N   UNL     1      35.990 -17.918 -21.021  0.00  0.00    -0.280 N 
ATOM     17  C   UNL     1      32.657 -16.524 -21.131  0.00  0.00    +0.021 C 
ATOM     18  C   UNL     1      33.781 -17.319 -21.035  0.00  0.00    +0.056 C 
ATOM     19  C   UNL     1      33.861 -18.752 -20.777  0.00  0.00    +0.020 C 
ATOM     20  C   UNL     1      35.178 -16.792 -21.191  0.00  0.00    +0.250 C 
ATOM     21  C   UNL     1      35.224 -19.064 -20.779  0.00  0.00    +0.051 C 
ATOM     22  C   UNL     1      32.914 -19.734 -20.557  0.00  0.00    +0.031 C 
ATOM     23  C   UNL     1      35.690 -20.346 -20.565  0.00  0.00    +0.017 C 
ATOM     24  C   UNL     1      33.364 -21.041 -20.339  0.00  0.00    +0.140 C 
ATOM     25  C   UNL     1      34.739 -21.344 -20.343  0.00  0.00    +0.031 C 
ATOM     26  H   UNL     1      36.973 -17.906 -21.065  0.00  0.00    +0.155 HD
ENDBRANCH  11  17
BRANCH   2  27
ATOM     27  C   UNL     1      31.993  -9.440 -23.216  0.00  0.00    +0.121 C 
BRANCH  27  28
ATOM     28  C   UNL     1      33.126  -8.648 -22.561  0.00  0.00    +0.110 C 
BRANCH  28  29
ATOM     29  O   UNL     1      32.815  -8.484 -21.176  0.00  0.00    -0.385 OA
ATOM     30  H   UNL     1      33.623  -8.262 -20.687  0.00  0.00    +0.210 HD
ENDBRANCH  28  29
BRANCH  28  31
ATOM     31  C   UNL     1      33.389  -7.267 -23.173  0.00  0.00    -0.045 C 
BRANCH  31  33
ATOM     32  O   UNL     1      30.714  -4.060 -23.596  0.00  0.00    -0.358 OA
ATOM     33  N   UNL     1      32.156  -6.503 -23.354  0.00  0.00    +0.392 N 
ATOM     34  C   UNL     1      32.221  -5.691 -24.577  0.00  0.00    -0.045 C 
ATOM     35  C   UNL     1      31.901  -5.642 -22.190  0.00  0.00    -0.045 C 
ATOM     36  C   UNL     1      30.930  -4.892 -24.737  0.00  0.00    +0.119 C 
ATOM     37  C   UNL     1      30.618  -4.846 -22.408  0.00  0.00    +0.119 C 
ATOM     38  H   UNL     1      31.387  -7.166 -23.443  0.00  0.00    -0.079 HD
ENDBRANCH  31  33
ENDBRANCH  28  31
ENDBRANCH  27  28
ENDBRANCH   2  27
TORSDOF 6
ENDMDL
MODEL 7
REMARK VINA RESULT:     -10.2      2.867      4.158
REMARK  Name = 25116064
REMARK  6 active torsions:
REMARK  status: ('A' for Active; 'I' for Inactive)
REMARK    1  A    between atoms: N_2  and  C_27
REMARK    2  A    between atoms: C_11  and  C_17
REMARK    3  A    between atoms: C_27  and  C_28
REMARK    4  A    between atoms: C_28  and  O_29
REMARK    5  A    between atoms: C_28  and  C_31
REMARK    6  A    between atoms: C_31  and  N_33
REMARK                            x       y       z     vdW  Elec       q    Type
REMARK                         _______ _______ _______ _____ _____    ______ ____
ROOT
ATOM      1  O   UNL     1      31.412 -12.628 -21.150  0.00  0.00    -0.270 OA
ATOM      2  N   UNL     1      32.513 -11.687 -22.972  0.00  0.00    -0.274 N 
ATOM      3  N   UNL     1      33.922 -15.690 -23.324  0.00  0.00    -0.357 N 
ATOM      4  C   UNL     1      33.715 -11.677 -23.814  0.00  0.00    +0.094 C 
ATOM      5  C   UNL     1      33.598 -12.535 -25.076  0.00  0.00    +0.028 C 
ATOM      6  C   UNL     1      33.013 -13.934 -24.877  0.00  0.00    +0.045 C 
ATOM      7  C   UNL     1      33.284 -14.492 -23.524  0.00  0.00    +0.038 A 
ATOM      8  C   UNL     1      32.932 -13.982 -22.284  0.00  0.00    +0.062 A 
ATOM      9  C   UNL     1      32.222 -12.727 -22.070  0.00  0.00    +0.250 C 
ATOM     10  C   UNL     1      33.331 -14.944 -21.316  0.00  0.00    -0.001 A 
ATOM     11  C   UNL     1      33.950 -15.977 -21.985  0.00  0.00    +0.053 A 
ATOM     12  C   UNL     1      33.150 -14.884 -19.851  0.00  0.00    +0.033 C 
ATOM     13  H   UNL     1      34.302 -16.256 -24.034  0.00  0.00    +0.166 HD
ENDROOT
BRANCH  11  17
ATOM     14  F   UNL     1      37.366 -21.785 -20.112  0.00  0.00    -0.204 F 
ATOM     15  O   UNL     1      31.634 -17.569 -21.077  0.00  0.00    -0.270 OA
ATOM     16  N   UNL     1      32.303 -19.705 -20.318  0.00  0.00    -0.280 N 
ATOM     17  C   UNL     1      34.558 -17.179 -21.585  0.00  0.00    +0.021 C 
ATOM     18  C   UNL     1      33.954 -18.307 -21.069  0.00  0.00    +0.056 C 
ATOM     19  C   UNL     1      34.574 -19.560 -20.651  0.00  0.00    +0.020 C 
ATOM     20  C   UNL     1      32.474 -18.420 -20.845  0.00  0.00    +0.250 C 
ATOM     21  C   UNL     1      33.528 -20.372 -20.205  0.00  0.00    +0.051 C 
ATOM     22  C   UNL     1      35.879 -20.015 -20.629  0.00  0.00    +0.031 C 
ATOM     23  C   UNL     1      33.737 -21.651 -19.726  0.00  0.00    +0.017 C 
ATOM     24  C   UNL     1      36.113 -21.308 -20.148  0.00  0.00    +0.140 C 
ATOM     25  C   UNL     1      35.052 -22.118 -19.701  0.00  0.00    +0.031 C 
ATOM     26  H   UNL     1      31.434 -20.089 -20.063  0.00  0.00    +0.155 HD
ENDBRANCH  11  17
BRANCH   2  27
ATOM     27  C   UNL     1      31.692 -10.486 -22.987  0.00  0.00    +0.121 C 
BRANCH  27  28
ATOM     28  C   UNL     1      32.255  -9.364 -22.113  0.00  0.00    +0.110 C 
BRANCH  28  29
ATOM     29  O   UNL     1      32.057  -9.721 -20.744  0.00  0.00    -0.385 OA
ATOM     30  H   UNL     1      32.017  -8.917 -20.203  0.00  0.00    +0.210 HD
ENDBRANCH  28  29
BRANCH  28  31
ATOM     31  C   UNL     1      31.637  -7.983 -22.356  0.00  0.00    -0.045 C 
BRANCH  31  33
ATOM     32  O   UNL     1      33.962  -6.291 -25.414  0.00  0.00    -0.358 OA
ATOM     33  N   UNL     1      32.545  -7.094 -23.079  0.00  0.00    +0.392 N 
ATOM     34  C   UNL     1      31.860  -6.459 -24.213  0.00  0.00    -0.045 C 
ATOM     35  C   UNL     1      33.726  -7.829 -23.552  0.00  0.00    -0.045 C 
ATOM     36  C   UNL     1      32.829  -5.547 -24.960  0.00  0.00    +0.119 C 
ATOM     37  C   UNL     1      34.652  -6.884 -24.314  0.00  0.00    +0.119 C 
ATOM     38  H   UNL     1      32.850  -6.367 -22.434  0.00  0.00    -0.079 HD
ENDBRANCH  31  33
ENDBRANCH  28  31
ENDBRANCH  27  28
ENDBRANCH   2  27
TORSDOF 6
ENDMDL
MODEL 8
REMARK VINA RESULT:      -9.8      1.691      2.156
REMARK  Name = 25116064
REMARK  6 active torsions:
REMARK  status: ('A' for Active; 'I' for Inactive)
REMARK    1  A    between atoms: N_2  and  C_27
REMARK    2  A    between atoms: C_11  and  C_17
REMARK    3  A    between atoms: C_27  and  C_28
REMARK    4  A    between atoms: C_28  and  O_29
REMARK    5  A    between atoms: C_28  and  C_31
REMARK    6  A    between atoms: C_31  and  N_33
REMARK                            x       y       z     vdW  Elec       q    Type
REMARK                         _______ _______ _______ _____ _____    ______ ____
ROOT
ATOM      1  O   UNL     1      30.810  -9.702 -22.681  0.00  0.00    -0.270 OA
ATOM      2  N   UNL     1      32.725  -8.379 -22.677  0.00  0.00    -0.274 N 
ATOM      3  N   UNL     1      34.362 -11.931 -24.359  0.00  0.00    -0.357 N 
ATOM      4  C   UNL     1      34.184  -8.324 -22.532  0.00  0.00    +0.094 C 
ATOM      5  C   UNL     1      34.944  -8.390 -23.858  0.00  0.00    +0.028 C 
ATOM      6  C   UNL     1      34.477  -9.466 -24.840  0.00  0.00    +0.045 C 
ATOM      7  C   UNL     1      33.892 -10.657 -24.164  0.00  0.00    +0.038 A 
ATOM      8  C   UNL     1      32.808 -10.727 -23.304  0.00  0.00    +0.062 A 
ATOM      9  C   UNL     1      32.021  -9.583 -22.860  0.00  0.00    +0.250 C 
ATOM     10  C   UNL     1      32.595 -12.104 -23.023  0.00  0.00    -0.001 A 
ATOM     11  C   UNL     1      33.575 -12.819 -23.674  0.00  0.00    +0.053 A 
ATOM     12  C   UNL     1      31.539 -12.705 -22.181  0.00  0.00    +0.033 C 
ATOM     13  H   UNL     1      35.144 -12.170 -24.906  0.00  0.00    +0.166 HD
ENDROOT
BRANCH  11  17
ATOM     14  F   UNL     1      35.107 -19.585 -24.561  0.00  0.00    -0.204 F 
ATOM     15  O   UNL     1      34.195 -13.496 -20.867  0.00  0.00    -0.270 OA
ATOM     16  N   UNL     1      34.794 -15.771 -20.643  0.00  0.00    -0.280 N 
ATOM     17  C   UNL     1      33.898 -14.184 -23.765  0.00  0.00    +0.021 C 
ATOM     18  C   UNL     1      34.273 -15.039 -22.749  0.00  0.00    +0.056 C 
ATOM     19  C   UNL     1      34.611 -16.456 -22.830  0.00  0.00    +0.020 C 
ATOM     20  C   UNL     1      34.398 -14.610 -21.316  0.00  0.00    +0.250 C 
ATOM     21  C   UNL     1      34.918 -16.850 -21.525  0.00  0.00    +0.051 C 
ATOM     22  C   UNL     1      34.667 -17.362 -23.873  0.00  0.00    +0.031 C 
ATOM     23  C   UNL     1      35.289 -18.143 -21.211  0.00  0.00    +0.017 C 
ATOM     24  C   UNL     1      35.041 -18.677 -23.577  0.00  0.00    +0.140 C 
ATOM     25  C   UNL     1      35.349 -19.064 -22.259  0.00  0.00    +0.031 C 
ATOM     26  H   UNL     1      34.962 -15.822 -19.675  0.00  0.00    +0.155 HD
ENDBRANCH  11  17
BRANCH   2  27
ATOM     27  C   UNL     1      31.997  -7.136 -22.467  0.00  0.00    +0.121 C 
BRANCH  27  28
ATOM     28  C   UNL     1      31.497  -6.506 -23.769  0.00  0.00    +0.110 C 
BRANCH  28  29
ATOM     29  O   UNL     1      30.790  -7.505 -24.506  0.00  0.00    -0.385 OA
ATOM     30  H   UNL     1      29.888  -7.585 -24.157  0.00  0.00    +0.210 HD
ENDBRANCH  28  29
BRANCH  28  31
ATOM     31  C   UNL     1      32.593  -5.917 -24.664  0.00  0.00    -0.045 C 
BRANCH  31  33
ATOM     32  O   UNL     1      30.892  -2.433 -26.272  0.00  0.00    -0.358 OA
ATOM     33  N   UNL     1      32.346  -4.511 -24.980  0.00  0.00    +0.392 N 
ATOM     34  C   UNL     1      31.017  -4.096 -24.510  0.00  0.00    -0.045 C 
ATOM     35  C   UNL     1      32.466  -4.273 -26.426  0.00  0.00    -0.045 C 
ATOM     36  C   UNL     1      30.777  -2.631 -24.862  0.00  0.00    +0.119 C 
ATOM     37  C   UNL     1      32.192  -2.803 -26.732  0.00  0.00    +0.119 C 
ATOM     38  H   UNL     1      33.051  -3.954 -24.499  0.00  0.00    -0.079 HD
ENDBRANCH  31  33
ENDBRANCH  28  31
ENDBRANCH  27  28
ENDBRANCH   2  27
TORSDOF 6
ENDMDL
MODEL 9
REMARK VINA RESULT:      -9.6      7.129     13.982
REMARK  Name = 25116064
REMARK  6 active torsions:
REMARK  status: ('A' for Active; 'I' for Inactive)
REMARK    1  A    between atoms: N_2  and  C_27
REMARK    2  A    between atoms: C_11  and  C_17
REMARK    3  A    between atoms: C_27  and  C_28
REMARK    4  A    between atoms: C_28  and  O_29
REMARK    5  A    between atoms: C_28  and  C_31
REMARK    6  A    between atoms: C_31  and  N_33
REMARK                            x       y       z     vdW  Elec       q    Type
REMARK                         _______ _______ _______ _____ _____    ______ ____
ROOT
ATOM      1  O   UNL     1      32.841 -20.942 -19.089  0.00  0.00    -0.270 OA
ATOM      2  N   UNL     1      34.890 -22.016 -19.356  0.00  0.00    -0.274 N 
ATOM      3  N   UNL     1      35.628 -18.552 -21.720  0.00  0.00    -0.357 N 
ATOM      4  C   UNL     1      36.026 -22.298 -20.240  0.00  0.00    +0.094 C 
ATOM      5  C   UNL     1      37.212 -21.351 -20.051  0.00  0.00    +0.028 C 
ATOM      6  C   UNL     1      36.869 -19.863 -19.970  0.00  0.00    +0.045 C 
ATOM      7  C   UNL     1      35.642 -19.506 -20.734  0.00  0.00    +0.038 A 
ATOM      8  C   UNL     1      34.351 -19.988 -20.586  0.00  0.00    +0.062 A 
ATOM      9  C   UNL     1      33.947 -21.006 -19.625  0.00  0.00    +0.250 C 
ATOM     10  C   UNL     1      33.532 -19.251 -21.484  0.00  0.00    -0.001 A 
ATOM     11  C   UNL     1      34.348 -18.385 -22.179  0.00  0.00    +0.053 A 
ATOM     12  C   UNL     1      32.072 -19.367 -21.682  0.00  0.00    +0.033 C 
ATOM     13  H   UNL     1      36.417 -18.064 -22.049  0.00  0.00    +0.166 HD
ENDROOT
BRANCH  11  17
ATOM     14  F   UNL     1      33.240 -13.987 -27.502  0.00  0.00    -0.204 F 
ATOM     15  O   UNL     1      34.535 -15.843 -20.688  0.00  0.00    -0.270 OA
ATOM     16  N   UNL     1      34.216 -13.985 -22.113  0.00  0.00    -0.280 N 
ATOM     17  C   UNL     1      34.134 -17.434 -23.191  0.00  0.00    +0.021 C 
ATOM     18  C   UNL     1      34.110 -16.060 -23.075  0.00  0.00    +0.056 C 
ATOM     19  C   UNL     1      33.889 -15.063 -24.117  0.00  0.00    +0.020 C 
ATOM     20  C   UNL     1      34.322 -15.339 -21.775  0.00  0.00    +0.250 C 
ATOM     21  C   UNL     1      33.964 -13.822 -23.479  0.00  0.00    +0.051 C 
ATOM     22  C   UNL     1      33.645 -15.144 -25.475  0.00  0.00    +0.031 C 
ATOM     23  C   UNL     1      33.802 -12.630 -24.158  0.00  0.00    +0.017 C 
ATOM     24  C   UNL     1      33.477 -13.949 -26.183  0.00  0.00    +0.140 C 
ATOM     25  C   UNL     1      33.555 -12.704 -25.530  0.00  0.00    +0.031 C 
ATOM     26  H   UNL     1      34.309 -13.244 -21.472  0.00  0.00    +0.155 HD
ENDBRANCH  11  17
BRANCH   2  27
ATOM     27  C   UNL     1      34.676 -22.934 -18.248  0.00  0.00    +0.121 C 
BRANCH  27  28
ATOM     28  C   UNL     1      35.360 -22.483 -16.956  0.00  0.00    +0.110 C 
BRANCH  28  29
ATOM     29  O   UNL     1      36.771 -22.639 -17.118  0.00  0.00    -0.385 OA
ATOM     30  H   UNL     1      37.218 -21.818 -16.858  0.00  0.00    +0.210 HD
ENDBRANCH  28  29
BRANCH  28  31
ATOM     31  C   UNL     1      34.923 -23.238 -15.696  0.00  0.00    -0.045 C 
BRANCH  31  33
ATOM     32  O   UNL     1      37.131 -25.663 -13.077  0.00  0.00    -0.358 OA
ATOM     33  N   UNL     1      36.035 -23.947 -15.066  0.00  0.00    +0.392 N 
ATOM     34  C   UNL     1      35.812 -25.399 -15.096  0.00  0.00    -0.045 C 
ATOM     35  C   UNL     1      36.223 -23.496 -13.680  0.00  0.00    -0.045 C 
ATOM     36  C   UNL     1      36.978 -26.117 -14.423  0.00  0.00    +0.119 C 
ATOM     37  C   UNL     1      37.380 -24.258 -13.040  0.00  0.00    +0.119 C 
ATOM     38  H   UNL     1      36.880 -23.736 -15.595  0.00  0.00    -0.079 HD
ENDBRANCH  31  33
ENDBRANCH  28  31
ENDBRANCH  27  28
ENDBRANCH   2  27
TORSDOF 6
ENDMDL
