MODEL 1
REMARK VINA RESULT:      -3.0      0.000      0.000
REMARK  Name = 129103609
REMARK  0 active torsions:
REMARK  status: ('A' for Active; 'I' for Inactive)
REMARK                            x       y       z     vdW  Elec       q    Type
REMARK                         _______ _______ _______ _____ _____    ______ ____
ROOT
ATOM      1  F   UNL     1      29.459  -6.868 -24.709  0.00  0.00    -0.203 F 
ATOM      2  O   UNL     1      33.619 -11.945 -26.014  0.00  0.00    -0.274 OA
ATOM      3  N   UNL     1      32.101  -8.767 -20.546  0.00  0.00    -0.281 N 
ATOM      4  N   UNL     1      32.694 -10.412 -22.118  0.00  0.00    -0.374 NA
ATOM      5  N   UNL     1      33.036  -7.316 -25.031  0.00  0.00    -0.246 NA
ATOM      6  N   UNL     1      34.626 -10.572 -24.439  0.00  0.00    -0.305 N 
ATOM      7  N   UNL     1      31.922 -12.670 -21.910  0.00  0.00    -0.164 N 
ATOM      8  N   UNL     1      31.963 -13.857 -22.566  0.00  0.00    -0.174 NA
ATOM      9  C   UNL     1      32.812  -7.659 -21.223  0.00  0.00    +0.099 C 
ATOM     10  C   UNL     1      32.461  -6.419 -20.379  0.00  0.00    +0.026 C 
ATOM     11  C   UNL     1      32.290  -6.997 -18.988  0.00  0.00    +0.024 C 
ATOM     12  C   UNL     1      31.581  -8.320 -19.250  0.00  0.00    +0.093 C 
ATOM     13  C   UNL     1      32.443  -7.486 -22.685  0.00  0.00    +0.012 C 
ATOM     14  C   UNL     1      32.059 -10.089 -21.010  0.00  0.00    +0.186 C 
ATOM     15  C   UNL     1      33.381  -7.535 -23.734  0.00  0.00    +0.057 C 
ATOM     16  C   UNL     1      34.847  -7.794 -23.480  0.00  0.00    +0.047 C 
ATOM     17  C   UNL     1      35.694  -8.317 -24.655  0.00  0.00    +0.026 C 
ATOM     18  C   UNL     1      31.100  -7.271 -23.042  0.00  0.00    +0.030 C 
ATOM     19  C   UNL     1      35.206  -9.602 -25.364  0.00  0.00    +0.072 C 
ATOM     20  C   UNL     1      31.281 -11.132 -20.234  0.00  0.00    +0.066 C 
ATOM     21  C   UNL     1      32.620 -11.684 -22.593  0.00  0.00    +0.198 C 
ATOM     22  C   UNL     1      30.735  -7.079 -24.367  0.00  0.00    +0.159 C 
ATOM     23  C   UNL     1      31.263 -12.374 -20.726  0.00  0.00    +0.096 C 
ATOM     24  C   UNL     1      33.085 -12.260 -23.761  0.00  0.00    +0.187 C 
ATOM     25  C   UNL     1      36.354 -10.224 -26.161  0.00  0.00    +0.021 C 
ATOM     26  C   UNL     1      31.735  -7.102 -25.316  0.00  0.00    +0.128 C 
ATOM     27  C   UNL     1      33.789 -11.602 -24.847  0.00  0.00    +0.236 C 
ATOM     28  C   UNL     1      32.633 -13.592 -23.687  0.00  0.00    +0.109 C 
ATOM     29  H   UNL     1      34.840 -10.493 -23.481  0.00  0.00    +0.149 HD
ENDROOT
TORSDOF 0
ENDMDL
MODEL 2
REMARK VINA RESULT:      -1.0     14.861     17.763
REMARK  Name = 129103609
REMARK  0 active torsions:
REMARK  status: ('A' for Active; 'I' for Inactive)
REMARK                            x       y       z     vdW  Elec       q    Type
REMARK                         _______ _______ _______ _____ _____    ______ ____
ROOT
ATOM      1  F   UNL     1      37.769 -27.437 -16.093  0.00  0.00    -0.203 F 
ATOM      2  O   UNL     1      33.177 -25.615 -11.578  0.00  0.00    -0.274 OA
ATOM      3  N   UNL     1      35.752 -22.595 -16.732  0.00  0.00    -0.281 N 
ATOM      4  N   UNL     1      34.299 -23.362 -15.049  0.00  0.00    -0.374 NA
ATOM      5  N   UNL     1      37.645 -25.258 -13.207  0.00  0.00    -0.246 NA
ATOM      6  N   UNL     1      34.492 -23.766 -12.058  0.00  0.00    -0.305 N 
ATOM      7  N   UNL     1      31.975 -23.745 -15.490  0.00  0.00    -0.164 N 
ATOM      8  N   UNL     1      30.855 -24.208 -14.881  0.00  0.00    -0.174 NA
ATOM      9  C   UNL     1      36.968 -22.606 -15.886  0.00  0.00    +0.099 C 
ATOM     10  C   UNL     1      38.099 -22.214 -16.854  0.00  0.00    +0.026 C 
ATOM     11  C   UNL     1      37.395 -21.309 -17.846  0.00  0.00    +0.024 C 
ATOM     12  C   UNL     1      36.044 -21.989 -18.033  0.00  0.00    +0.093 C 
ATOM     13  C   UNL     1      37.230 -23.932 -15.195  0.00  0.00    +0.012 C 
ATOM     14  C   UNL     1      34.474 -22.973 -16.296  0.00  0.00    +0.186 C 
ATOM     15  C   UNL     1      37.347 -24.070 -13.799  0.00  0.00    +0.057 C 
ATOM     16  C   UNL     1      37.189 -22.893 -12.866  0.00  0.00    +0.047 C 
ATOM     17  C   UNL     1      36.837 -23.189 -11.396  0.00  0.00    +0.026 C 
ATOM     18  C   UNL     1      37.364 -25.101 -15.964  0.00  0.00    +0.030 C 
ATOM     19  C   UNL     1      35.580 -24.049 -11.127  0.00  0.00    +0.072 C 
ATOM     20  C   UNL     1      33.310 -22.934 -17.265  0.00  0.00    +0.066 C 
ATOM     21  C   UNL     1      33.069 -23.770 -14.636  0.00  0.00    +0.198 C 
ATOM     22  C   UNL     1      37.636 -26.323 -15.364  0.00  0.00    +0.159 C 
ATOM     23  C   UNL     1      32.116 -23.317 -16.801  0.00  0.00    +0.096 C 
ATOM     24  C   UNL     1      32.633 -24.319 -13.444  0.00  0.00    +0.187 C 
ATOM     25  C   UNL     1      35.124 -23.863  -9.678  0.00  0.00    +0.021 C 
ATOM     26  C   UNL     1      37.774 -26.346 -13.993  0.00  0.00    +0.128 C 
ATOM     27  C   UNL     1      33.435 -24.639 -12.277  0.00  0.00    +0.236 C 
ATOM     28  C   UNL     1      31.267 -24.578 -13.669  0.00  0.00    +0.109 C 
ATOM     29  H   UNL     1      34.508 -22.915 -12.554  0.00  0.00    +0.149 HD
ENDROOT
TORSDOF 0
ENDMDL
MODEL 3
REMARK VINA RESULT:      -0.7      2.868      6.112
REMARK  Name = 129103609
REMARK  0 active torsions:
REMARK  status: ('A' for Active; 'I' for Inactive)
REMARK                            x       y       z     vdW  Elec       q    Type
REMARK                         _______ _______ _______ _____ _____    ______ ____
ROOT
ATOM      1  F   UNL     1      30.844 -13.660 -27.660  0.00  0.00    -0.203 F 
ATOM      2  O   UNL     1      31.491 -15.284 -21.200  0.00  0.00    -0.274 OA
ATOM      3  N   UNL     1      34.262 -10.716 -24.909  0.00  0.00    -0.281 N 
ATOM      4  N   UNL     1      33.309 -11.910 -23.122  0.00  0.00    -0.374 NA
ATOM      5  N   UNL     1      33.291 -15.370 -25.615  0.00  0.00    -0.246 NA
ATOM      6  N   UNL     1      33.586 -14.711 -22.014  0.00  0.00    -0.305 N 
ATOM      7  N   UNL     1      31.954 -10.817 -21.476  0.00  0.00    -0.164 N 
ATOM      8  N   UNL     1      31.206 -11.097 -20.380  0.00  0.00    -0.174 NA
ATOM      9  C   UNL     1      34.897 -11.893 -25.545  0.00  0.00    +0.099 C 
ATOM     10  C   UNL     1      35.519 -11.330 -26.837  0.00  0.00    +0.026 C 
ATOM     11  C   UNL     1      35.864  -9.905 -26.450  0.00  0.00    +0.024 C 
ATOM     12  C   UNL     1      34.678  -9.486 -25.589  0.00  0.00    +0.093 C 
ATOM     13  C   UNL     1      33.942 -13.042 -25.816  0.00  0.00    +0.012 C 
ATOM     14  C   UNL     1      33.494 -10.760 -23.737  0.00  0.00    +0.186 C 
ATOM     15  C   UNL     1      34.126 -14.342 -25.307  0.00  0.00    +0.057 C 
ATOM     16  C   UNL     1      35.295 -14.690 -24.415  0.00  0.00    +0.047 C 
ATOM     17  C   UNL     1      35.165 -15.937 -23.522  0.00  0.00    +0.026 C 
ATOM     18  C   UNL     1      32.802 -12.825 -26.609  0.00  0.00    +0.030 C 
ATOM     19  C   UNL     1      33.941 -16.009 -22.579  0.00  0.00    +0.072 C 
ATOM     20  C   UNL     1      32.882  -9.485 -23.194  0.00  0.00    +0.066 C 
ATOM     21  C   UNL     1      32.530 -11.962 -22.009  0.00  0.00    +0.198 C 
ATOM     22  C   UNL     1      31.927 -13.862 -26.901  0.00  0.00    +0.159 C 
ATOM     23  C   UNL     1      32.149  -9.585 -22.081  0.00  0.00    +0.096 C 
ATOM     24  C   UNL     1      32.086 -13.025 -21.243  0.00  0.00    +0.187 C 
ATOM     25  C   UNL     1      34.197 -17.036 -21.473  0.00  0.00    +0.021 C 
ATOM     26  C   UNL     1      32.219 -15.108 -26.390  0.00  0.00    +0.128 C 
ATOM     27  C   UNL     1      32.338 -14.437 -21.468  0.00  0.00    +0.236 C 
ATOM     28  C   UNL     1      31.265 -12.424 -20.270  0.00  0.00    +0.109 C 
ATOM     29  H   UNL     1      34.262 -13.996 -22.020  0.00  0.00    +0.149 HD
ENDROOT
TORSDOF 0
ENDMDL
MODEL 4
REMARK VINA RESULT:      -0.2      3.408      6.403
REMARK  Name = 129103609
REMARK  0 active torsions:
REMARK  status: ('A' for Active; 'I' for Inactive)
REMARK                            x       y       z     vdW  Elec       q    Type
REMARK                         _______ _______ _______ _____ _____    ______ ____
ROOT
ATOM      1  F   UNL     1      36.465 -10.160 -25.217  0.00  0.00    -0.203 F 
ATOM      2  O   UNL     1      34.500 -13.534 -19.781  0.00  0.00    -0.274 OA
ATOM      3  N   UNL     1      33.060 -14.103 -26.099  0.00  0.00    -0.281 N 
ATOM      4  N   UNL     1      33.519 -14.536 -23.834  0.00  0.00    -0.374 NA
ATOM      5  N   UNL     1      33.491 -10.324 -23.161  0.00  0.00    -0.246 NA
ATOM      6  N   UNL     1      32.675 -13.318 -21.197  0.00  0.00    -0.305 N 
ATOM      7  N   UNL     1      34.707 -16.503 -23.157  0.00  0.00    -0.164 N 
ATOM      8  N   UNL     1      35.210 -17.093 -22.044  0.00  0.00    -0.174 NA
ATOM      9  C   UNL     1      32.389 -12.804 -25.863  0.00  0.00    +0.099 C 
ATOM     10  C   UNL     1      32.081 -12.281 -27.279  0.00  0.00    +0.026 C 
ATOM     11  C   UNL     1      31.874 -13.557 -28.072  0.00  0.00    +0.024 C 
ATOM     12  C   UNL     1      32.939 -14.489 -27.507  0.00  0.00    +0.093 C 
ATOM     13  C   UNL     1      33.210 -11.821 -25.049  0.00  0.00    +0.012 C 
ATOM     14  C   UNL     1      33.602 -14.915 -25.093  0.00  0.00    +0.186 C 
ATOM     15  C   UNL     1      32.764 -11.251 -23.841  0.00  0.00    +0.057 C 
ATOM     16  C   UNL     1      31.423 -11.603 -23.241  0.00  0.00    +0.047 C 
ATOM     17  C   UNL     1      31.226 -11.348 -21.735  0.00  0.00    +0.026 C 
ATOM     18  C   UNL     1      34.488 -11.445 -25.496  0.00  0.00    +0.030 C 
ATOM     19  C   UNL     1      32.248 -11.990 -20.767  0.00  0.00    +0.072 C 
ATOM     20  C   UNL     1      34.280 -16.218 -25.464  0.00  0.00    +0.066 C 
ATOM     21  C   UNL     1      34.080 -15.300 -22.859  0.00  0.00    +0.198 C 
ATOM     22  C   UNL     1      35.250 -10.524 -24.790  0.00  0.00    +0.159 C 
ATOM     23  C   UNL     1      34.790 -16.948 -24.467  0.00  0.00    +0.096 C 
ATOM     24  C   UNL     1      34.236 -15.094 -21.501  0.00  0.00    +0.187 C 
ATOM     25  C   UNL     1      31.667 -12.032 -19.352  0.00  0.00    +0.021 C 
ATOM     26  C   UNL     1      34.706  -9.991 -23.641  0.00  0.00    +0.128 C 
ATOM     27  C   UNL     1      33.835 -13.927 -20.736  0.00  0.00    +0.236 C 
ATOM     28  C   UNL     1      34.952 -16.226 -21.065  0.00  0.00    +0.109 C 
ATOM     29  H   UNL     1      32.114 -13.805 -21.842  0.00  0.00    +0.149 HD
ENDROOT
TORSDOF 0
ENDMDL
