MODEL 1
REMARK VINA RESULT:      -4.6      0.000      0.000
REMARK  Name = 23646577
REMARK  1 active torsions:
REMARK  status: ('A' for Active; 'I' for Inactive)
REMARK    1  A    between atoms: C_30  and  C_35
REMARK                            x       y       z     vdW  Elec       q    Type
REMARK                         _______ _______ _______ _____ _____    ______ ____
ROOT
ATOM      1  O   UNL     1      34.508 -10.946 -23.161  0.00  0.00    -0.277 OA
ATOM      2  O   UNL     1      30.693 -11.245 -20.904  0.00  0.00    -0.453 OA
ATOM      3  N   UNL     1      34.146 -12.811 -24.573  0.00  0.00    -0.260 N 
ATOM      4  N   UNL     1      33.805  -9.482 -25.640  0.00  0.00    +0.394 N 
ATOM      5  N   UNL     1      32.416  -6.785 -24.687  0.00  0.00    -0.270 N 
ATOM      6  N   UNL     1      33.267  -4.913 -25.541  0.00  0.00    -0.225 NA
ATOM      7  C   UNL     1      34.579 -10.724 -25.586  0.00  0.00    +0.020 C 
ATOM      8  C   UNL     1      34.053 -11.734 -26.612  0.00  0.00    +0.009 C 
ATOM      9  C   UNL     1      34.370 -13.072 -25.975  0.00  0.00    +0.096 C 
ATOM     10  C   UNL     1      34.384 -11.454 -24.266  0.00  0.00    +0.209 C 
ATOM     11  C   UNL     1      33.918 -13.842 -23.617  0.00  0.00    +0.054 C 
ATOM     12  C   UNL     1      34.403  -8.404 -24.850  0.00  0.00    -0.036 C 
ATOM     13  C   UNL     1      33.091 -13.651 -22.468  0.00  0.00    +0.017 C 
ATOM     14  C   UNL     1      33.708  -7.095 -25.050  0.00  0.00    +0.028 C 
ATOM     15  C   UNL     1      34.551 -15.080 -23.809  0.00  0.00    +0.015 C 
ATOM     16  C   UNL     1      33.033 -14.670 -21.483  0.00  0.00    +0.001 C 
ATOM     17  C   UNL     1      32.253 -12.529 -22.272  0.00  0.00    +0.039 C 
ATOM     18  C   UNL     1      31.375  -7.665 -24.169  0.00  0.00    +0.123 C 
ATOM     19  C   UNL     1      34.463 -16.081 -22.846  0.00  0.00    +0.001 C 
ATOM     20  C   UNL     1      33.731 -15.868 -21.682  0.00  0.00    +0.000 C 
ATOM     21  C   UNL     1      34.201  -5.913 -25.571  0.00  0.00    +0.109 C 
ATOM     22  C   UNL     1      31.502 -12.346 -21.106  0.00  0.00    +0.145 C 
ATOM     23  C   UNL     1      32.252 -14.491 -20.325  0.00  0.00    +0.003 C 
ATOM     24  C   UNL     1      31.622  -8.217 -22.790  0.00  0.00    +0.001 C 
ATOM     25  C   UNL     1      32.204  -5.468 -25.007  0.00  0.00    +0.168 C 
ATOM     26  C   UNL     1      31.498 -13.333 -20.132  0.00  0.00    +0.037 C 
ATOM     27  C   UNL     1      31.034  -9.447 -22.455  0.00  0.00    +0.036 C 
ATOM     28  C   UNL     1      31.261 -10.027 -21.204  0.00  0.00    +0.155 C 
ATOM     29  C   UNL     1      32.355  -7.539 -21.805  0.00  0.00    -0.002 C 
ATOM     30  C   UNL     1      32.011  -9.358 -20.240  0.00  0.00    +0.103 C 
ATOM     31  C   UNL     1      32.552  -8.109 -20.543  0.00  0.00    +0.013 C 
ATOM     32  H   UNL     1      32.869  -9.667 -25.280  0.00  0.00    -0.083 HD
ATOM     33  H   UNL     1      33.785  -9.175 -26.612  0.00  0.00    -0.083 HD
ENDROOT
BRANCH  30  35
ATOM     34  N   UNL     1      32.397 -10.348 -17.876  0.00  0.00    -0.191 NA
ATOM     35  C   UNL     1      32.225  -9.904 -18.935  0.00  0.00    +0.103 C 
ENDBRANCH  30  35
TORSDOF 1
ENDMDL
