MODEL 1
REMARK VINA RESULT:      -5.1      0.000      0.000
REMARK  Name = 15083623
REMARK  6 active torsions:
REMARK  status: ('A' for Active; 'I' for Inactive)
REMARK    1  A    between atoms: P_1  and  O_3
REMARK    2  A    between atoms: P_1  and  O_5
REMARK    3  A    between atoms: P_1  and  N_8
REMARK    4  A    between atoms: O_5  and  C_6
REMARK    5  A    between atoms: N_8  and  C_9
REMARK    6  A    between atoms: N_8  and  C_11
REMARK                            x       y       z     vdW  Elec       q    Type
REMARK                         _______ _______ _______ _____ _____    ______ ____
ROOT
ATOM      1  P   UNL     1      37.281 -25.959 -13.268  0.00  0.00    +0.410 P 
ATOM      2  O   UNL     1      36.870 -26.336 -11.868  0.00  0.00    -0.240 OA
ENDROOT
BRANCH   1   3
ATOM      3  O   UNL     1      36.483 -26.843 -14.375  0.00  0.00    -0.312 OA
ATOM      4  H   UNL     1      36.979 -26.843 -15.208  0.00  0.00    +0.221 HD
ENDBRANCH   1   3
BRANCH   1   5
ATOM      5  O   UNL     1      38.827 -26.373 -13.568  0.00  0.00    -0.283 OA
BRANCH   5   6
ATOM      6  C   UNL     1      39.813 -25.372 -13.750  0.00  0.00    +0.153 C 
ATOM      7  C   UNL     1      40.291 -25.406 -15.187  0.00  0.00    +0.035 C 
ENDBRANCH   5   6
ENDBRANCH   1   5
BRANCH   1   8
ATOM      8  N   UNL     1      37.090 -24.359 -13.691  0.00  0.00    -0.188 NA
BRANCH   8   9
ATOM      9  C   UNL     1      36.395 -23.497 -12.733  0.00  0.00    +0.083 C 
ATOM     10  C   UNL     1      37.370 -22.872 -11.748  0.00  0.00    +0.019 C 
ENDBRANCH   8   9
BRANCH   8  11
ATOM     11  C   UNL     1      36.586 -24.080 -15.038  0.00  0.00    +0.083 C 
ATOM     12  C   UNL     1      37.411 -23.003 -15.721  0.00  0.00    +0.019 C 
ENDBRANCH   8  11
ENDBRANCH   1   8
TORSDOF 6
ENDMDL
MODEL 2
REMARK VINA RESULT:      -5.1      2.180      4.032
REMARK  Name = 15083623
REMARK  6 active torsions:
REMARK  status: ('A' for Active; 'I' for Inactive)
REMARK    1  A    between atoms: P_1  and  O_3
REMARK    2  A    between atoms: P_1  and  O_5
REMARK    3  A    between atoms: P_1  and  N_8
REMARK    4  A    between atoms: O_5  and  C_6
REMARK    5  A    between atoms: N_8  and  C_9
REMARK    6  A    between atoms: N_8  and  C_11
REMARK                            x       y       z     vdW  Elec       q    Type
REMARK                         _______ _______ _______ _____ _____    ______ ____
ROOT
ATOM      1  P   UNL     1      37.603 -23.674 -12.273  0.00  0.00    +0.410 P 
ATOM      2  O   UNL     1      37.637 -24.633 -11.112  0.00  0.00    -0.240 OA
ENDROOT
BRANCH   1   3
ATOM      3  O   UNL     1      38.256 -22.239 -11.873  0.00  0.00    -0.312 OA
ATOM      4  H   UNL     1      37.962 -21.987 -10.983  0.00  0.00    +0.221 HD
ENDBRANCH   1   3
BRANCH   1   5
ATOM      5  O   UNL     1      36.078 -23.248 -12.651  0.00  0.00    -0.283 OA
BRANCH   5   6
ATOM      6  C   UNL     1      34.994 -24.096 -12.315  0.00  0.00    +0.153 C 
ATOM      7  C   UNL     1      34.035 -24.158 -13.485  0.00  0.00    +0.035 C 
ENDBRANCH   5   6
ENDBRANCH   1   5
BRANCH   1   8
ATOM      8  N   UNL     1      38.354 -24.178 -13.673  0.00  0.00    -0.188 NA
BRANCH   8   9
ATOM      9  C   UNL     1      37.530 -24.241 -14.882  0.00  0.00    +0.083 C 
ATOM     10  C   UNL     1      37.635 -22.956 -15.687  0.00  0.00    +0.019 C 
ENDBRANCH   8   9
BRANCH   8  11
ATOM     11  C   UNL     1      39.177 -25.386 -13.591  0.00  0.00    +0.083 C 
ATOM     12  C   UNL     1      40.273 -25.377 -14.644  0.00  0.00    +0.019 C 
ENDBRANCH   8  11
ENDBRANCH   1   8
TORSDOF 6
ENDMDL
MODEL 3
REMARK VINA RESULT:      -5.1      1.810      3.672
REMARK  Name = 15083623
REMARK  6 active torsions:
REMARK  status: ('A' for Active; 'I' for Inactive)
REMARK    1  A    between atoms: P_1  and  O_3
REMARK    2  A    between atoms: P_1  and  O_5
REMARK    3  A    between atoms: P_1  and  N_8
REMARK    4  A    between atoms: O_5  and  C_6
REMARK    5  A    between atoms: N_8  and  C_9
REMARK    6  A    between atoms: N_8  and  C_11
REMARK                            x       y       z     vdW  Elec       q    Type
REMARK                         _______ _______ _______ _____ _____    ______ ____
ROOT
ATOM      1  P   UNL     1      36.420 -25.380 -14.895  0.00  0.00    +0.410 P 
ATOM      2  O   UNL     1      36.231 -26.626 -15.721  0.00  0.00    -0.240 OA
ENDROOT
BRANCH   1   3
ATOM      3  O   UNL     1      35.204 -25.186 -13.832  0.00  0.00    -0.312 OA
ATOM      4  H   UNL     1      35.351 -25.761 -13.065  0.00  0.00    +0.221 HD
ENDBRANCH   1   3
BRANCH   1   5
ATOM      5  O   UNL     1      36.282 -24.035 -15.802  0.00  0.00    -0.283 OA
BRANCH   5   6
ATOM      6  C   UNL     1      37.194 -22.963 -15.636  0.00  0.00    +0.153 C 
ATOM      7  C   UNL     1      37.013 -21.981 -16.774  0.00  0.00    +0.035 C 
ENDBRANCH   5   6
ENDBRANCH   1   5
BRANCH   1   8
ATOM      8  N   UNL     1      37.843 -25.270 -14.034  0.00  0.00    -0.188 NA
BRANCH   8   9
ATOM      9  C   UNL     1      38.951 -26.121 -14.473  0.00  0.00    +0.083 C 
ATOM     10  C   UNL     1      40.123 -25.286 -14.963  0.00  0.00    +0.019 C 
ENDBRANCH   8   9
BRANCH   8  11
ATOM     11  C   UNL     1      37.745 -25.328 -12.574  0.00  0.00    +0.083 C 
ATOM     12  C   UNL     1      38.135 -24.001 -11.944  0.00  0.00    +0.019 C 
ENDBRANCH   8  11
ENDBRANCH   1   8
TORSDOF 6
ENDMDL
MODEL 4
REMARK VINA RESULT:      -5.1     11.070     12.451
REMARK  Name = 15083623
REMARK  6 active torsions:
REMARK  status: ('A' for Active; 'I' for Inactive)
REMARK    1  A    between atoms: P_1  and  O_3
REMARK    2  A    between atoms: P_1  and  O_5
REMARK    3  A    between atoms: P_1  and  N_8
REMARK    4  A    between atoms: O_5  and  C_6
REMARK    5  A    between atoms: N_8  and  C_9
REMARK    6  A    between atoms: N_8  and  C_11
REMARK                            x       y       z     vdW  Elec       q    Type
REMARK                         _______ _______ _______ _____ _____    ______ ____
ROOT
ATOM      1  P   UNL     1      34.526 -16.654 -21.588  0.00  0.00    +0.410 P 
ATOM      2  O   UNL     1      35.206 -16.417 -20.264  0.00  0.00    -0.240 OA
ENDROOT
BRANCH   1   3
ATOM      3  O   UNL     1      35.217 -15.778 -22.771  0.00  0.00    -0.312 OA
ATOM      4  H   UNL     1      34.762 -14.925 -22.849  0.00  0.00    +0.221 HD
ENDBRANCH   1   3
BRANCH   1   5
ATOM      5  O   UNL     1      33.006 -16.070 -21.591  0.00  0.00    -0.283 OA
BRANCH   5   6
ATOM      6  C   UNL     1      32.750 -14.743 -22.016  0.00  0.00    +0.153 C 
ATOM      7  C   UNL     1      32.641 -13.848 -20.800  0.00  0.00    +0.035 C 
ENDBRANCH   5   6
ENDBRANCH   1   5
BRANCH   1   8
ATOM      8  N   UNL     1      34.468 -18.232 -22.119  0.00  0.00    -0.188 NA
BRANCH   8   9
ATOM      9  C   UNL     1      34.535 -19.279 -21.098  0.00  0.00    +0.083 C 
ATOM     10  C   UNL     1      33.152 -19.825 -20.779  0.00  0.00    +0.019 C 
ENDBRANCH   8   9
BRANCH   8  11
ATOM     11  C   UNL     1      35.347 -18.594 -23.233  0.00  0.00    +0.083 C 
ATOM     12  C   UNL     1      34.549 -18.860 -24.499  0.00  0.00    +0.019 C 
ENDBRANCH   8  11
ENDBRANCH   1   8
TORSDOF 6
ENDMDL
MODEL 5
REMARK VINA RESULT:      -5.1      1.884      3.008
REMARK  Name = 15083623
REMARK  6 active torsions:
REMARK  status: ('A' for Active; 'I' for Inactive)
REMARK    1  A    between atoms: P_1  and  O_3
REMARK    2  A    between atoms: P_1  and  O_5
REMARK    3  A    between atoms: P_1  and  N_8
REMARK    4  A    between atoms: O_5  and  C_6
REMARK    5  A    between atoms: N_8  and  C_9
REMARK    6  A    between atoms: N_8  and  C_11
REMARK                            x       y       z     vdW  Elec       q    Type
REMARK                         _______ _______ _______ _____ _____    ______ ____
ROOT
ATOM      1  P   UNL     1      36.935 -25.782 -15.033  0.00  0.00    +0.410 P 
ATOM      2  O   UNL     1      36.162 -26.881 -15.715  0.00  0.00    -0.240 OA
ENDROOT
BRANCH   1   3
ATOM      3  O   UNL     1      38.531 -25.921 -15.314  0.00  0.00    -0.312 OA
ATOM      4  H   UNL     1      38.804 -26.841 -15.177  0.00  0.00    +0.221 HD
ENDBRANCH   1   3
BRANCH   1   5
ATOM      5  O   UNL     1      36.872 -25.925 -13.412  0.00  0.00    -0.283 OA
BRANCH   5   6
ATOM      6  C   UNL     1      38.041 -25.740 -12.632  0.00  0.00    +0.153 C 
ATOM      7  C   UNL     1      38.009 -24.357 -12.017  0.00  0.00    +0.035 C 
ENDBRANCH   5   6
ENDBRANCH   1   5
BRANCH   1   8
ATOM      8  N   UNL     1      36.505 -24.220 -15.424  0.00  0.00    -0.188 NA
BRANCH   8   9
ATOM      9  C   UNL     1      37.590 -23.246 -15.552  0.00  0.00    +0.083 C 
ATOM     10  C   UNL     1      37.230 -22.147 -16.539  0.00  0.00    +0.019 C 
ENDBRANCH   8   9
BRANCH   8  11
ATOM     11  C   UNL     1      35.409 -23.618 -14.662  0.00  0.00    +0.083 C 
ATOM     12  C   UNL     1      34.084 -23.773 -15.389  0.00  0.00    +0.019 C 
ENDBRANCH   8  11
ENDBRANCH   1   8
TORSDOF 6
ENDMDL
MODEL 6
REMARK VINA RESULT:      -5.0     10.361     11.776
REMARK  Name = 15083623
REMARK  6 active torsions:
REMARK  status: ('A' for Active; 'I' for Inactive)
REMARK    1  A    between atoms: P_1  and  O_3
REMARK    2  A    between atoms: P_1  and  O_5
REMARK    3  A    between atoms: P_1  and  N_8
REMARK    4  A    between atoms: O_5  and  C_6
REMARK    5  A    between atoms: N_8  and  C_9
REMARK    6  A    between atoms: N_8  and  C_11
REMARK                            x       y       z     vdW  Elec       q    Type
REMARK                         _______ _______ _______ _____ _____    ______ ____
ROOT
ATOM      1  P   UNL     1      35.224 -18.479 -22.295  0.00  0.00    +0.410 P 
ATOM      2  O   UNL     1      34.741 -19.497 -23.296  0.00  0.00    -0.240 OA
ENDROOT
BRANCH   1   3
ATOM      3  O   UNL     1      36.828 -18.244 -22.421  0.00  0.00    -0.312 OA
ATOM      4  H   UNL     1      37.036 -17.896 -23.302  0.00  0.00    +0.221 HD
ENDBRANCH   1   3
BRANCH   1   5
ATOM      5  O   UNL     1      35.092 -19.032 -20.769  0.00  0.00    -0.283 OA
BRANCH   5   6
ATOM      6  C   UNL     1      34.432 -20.259 -20.508  0.00  0.00    +0.153 C 
ATOM      7  C   UNL     1      32.938 -20.014 -20.454  0.00  0.00    +0.035 C 
ENDBRANCH   5   6
ENDBRANCH   1   5
BRANCH   1   8
ATOM      8  N   UNL     1      34.504 -16.978 -22.358  0.00  0.00    -0.188 NA
BRANCH   8   9
ATOM      9  C   UNL     1      34.982 -16.056 -23.391  0.00  0.00    +0.083 C 
ATOM     10  C   UNL     1      34.321 -16.339 -24.729  0.00  0.00    +0.019 C 
ENDBRANCH   8   9
BRANCH   8  11
ATOM     11  C   UNL     1      34.365 -16.251 -21.095  0.00  0.00    +0.083 C 
ATOM     12  C   UNL     1      32.976 -15.650 -20.956  0.00  0.00    +0.019 C 
ENDBRANCH   8  11
ENDBRANCH   1   8
TORSDOF 6
ENDMDL
MODEL 7
REMARK VINA RESULT:      -5.0      8.822     10.190
REMARK  Name = 15083623
REMARK  6 active torsions:
REMARK  status: ('A' for Active; 'I' for Inactive)
REMARK    1  A    between atoms: P_1  and  O_3
REMARK    2  A    between atoms: P_1  and  O_5
REMARK    3  A    between atoms: P_1  and  N_8
REMARK    4  A    between atoms: O_5  and  C_6
REMARK    5  A    between atoms: N_8  and  C_9
REMARK    6  A    between atoms: N_8  and  C_11
REMARK                            x       y       z     vdW  Elec       q    Type
REMARK                         _______ _______ _______ _____ _____    ______ ____
ROOT
ATOM      1  P   UNL     1      35.814 -18.828 -21.214  0.00  0.00    +0.410 P 
ATOM      2  O   UNL     1      37.306 -18.954 -21.381  0.00  0.00    -0.240 OA
ENDROOT
BRANCH   1   3
ATOM      3  O   UNL     1      35.057 -18.821 -22.654  0.00  0.00    -0.312 OA
ATOM      4  H   UNL     1      34.590 -17.980 -22.769  0.00  0.00    +0.221 HD
ENDBRANCH   1   3
BRANCH   1   5
ATOM      5  O   UNL     1      35.400 -17.371 -20.618  0.00  0.00    -0.283 OA
BRANCH   5   6
ATOM      6  C   UNL     1      34.661 -16.458 -21.411  0.00  0.00    +0.153 C 
ATOM      7  C   UNL     1      34.443 -15.184 -20.621  0.00  0.00    +0.035 C 
ENDBRANCH   5   6
ENDBRANCH   1   5
BRANCH   1   8
ATOM      8  N   UNL     1      35.072 -19.991 -20.279  0.00  0.00    -0.188 NA
BRANCH   8   9
ATOM      9  C   UNL     1      35.756 -21.280 -20.158  0.00  0.00    +0.083 C 
ATOM     10  C   UNL     1      36.557 -21.358 -18.869  0.00  0.00    +0.019 C 
ENDBRANCH   8   9
BRANCH   8  11
ATOM     11  C   UNL     1      33.646 -20.226 -20.514  0.00  0.00    +0.083 C 
ATOM     12  C   UNL     1      33.087 -21.238 -19.528  0.00  0.00    +0.019 C 
ENDBRANCH   8  11
ENDBRANCH   1   8
TORSDOF 6
ENDMDL
MODEL 8
REMARK VINA RESULT:      -4.9     11.639     12.964
REMARK  Name = 15083623
REMARK  6 active torsions:
REMARK  status: ('A' for Active; 'I' for Inactive)
REMARK    1  A    between atoms: P_1  and  O_3
REMARK    2  A    between atoms: P_1  and  O_5
REMARK    3  A    between atoms: P_1  and  N_8
REMARK    4  A    between atoms: O_5  and  C_6
REMARK    5  A    between atoms: N_8  and  C_9
REMARK    6  A    between atoms: N_8  and  C_11
REMARK                            x       y       z     vdW  Elec       q    Type
REMARK                         _______ _______ _______ _____ _____    ______ ____
ROOT
ATOM      1  P   UNL     1      34.125 -15.951 -21.646  0.00  0.00    +0.410 P 
ATOM      2  O   UNL     1      32.686 -15.573 -21.409  0.00  0.00    -0.240 OA
ENDROOT
BRANCH   1   3
ATOM      3  O   UNL     1      35.026 -15.710 -20.314  0.00  0.00    -0.312 OA
ATOM      4  H   UNL     1      35.651 -16.444 -20.209  0.00  0.00    +0.221 HD
ENDBRANCH   1   3
BRANCH   1   5
ATOM      5  O   UNL     1      34.838 -14.949 -22.712  0.00  0.00    -0.283 OA
BRANCH   5   6
ATOM      6  C   UNL     1      34.058 -14.044 -23.475  0.00  0.00    +0.153 C 
ATOM      7  C   UNL     1      33.497 -14.772 -24.679  0.00  0.00    +0.035 C 
ENDBRANCH   5   6
ENDBRANCH   1   5
BRANCH   1   8
ATOM      8  N   UNL     1      34.407 -17.515 -22.149  0.00  0.00    -0.188 NA
BRANCH   8   9
ATOM      9  C   UNL     1      34.724 -18.498 -21.111  0.00  0.00    +0.083 C 
ATOM     10  C   UNL     1      33.617 -19.531 -20.975  0.00  0.00    +0.019 C 
ENDBRANCH   8   9
BRANCH   8  11
ATOM     11  C   UNL     1      35.321 -17.698 -23.277  0.00  0.00    +0.083 C 
ATOM     12  C   UNL     1      34.662 -18.487 -24.397  0.00  0.00    +0.019 C 
ENDBRANCH   8  11
ENDBRANCH   1   8
TORSDOF 6
ENDMDL
MODEL 9
REMARK VINA RESULT:      -4.9      2.233      3.753
REMARK  Name = 15083623
REMARK  6 active torsions:
REMARK  status: ('A' for Active; 'I' for Inactive)
REMARK    1  A    between atoms: P_1  and  O_3
REMARK    2  A    between atoms: P_1  and  O_5
REMARK    3  A    between atoms: P_1  and  N_8
REMARK    4  A    between atoms: O_5  and  C_6
REMARK    5  A    between atoms: N_8  and  C_9
REMARK    6  A    between atoms: N_8  and  C_11
REMARK                            x       y       z     vdW  Elec       q    Type
REMARK                         _______ _______ _______ _____ _____    ______ ____
ROOT
ATOM      1  P   UNL     1      37.573 -24.259 -12.281  0.00  0.00    +0.410 P 
ATOM      2  O   UNL     1      36.615 -24.637 -11.181  0.00  0.00    -0.240 OA
ENDROOT
BRANCH   1   3
ATOM      3  O   UNL     1      38.848 -23.437 -11.696  0.00  0.00    -0.312 OA
ATOM      4  H   UNL     1      39.250 -23.938 -10.970  0.00  0.00    +0.221 HD
ENDBRANCH   1   3
BRANCH   1   5
ATOM      5  O   UNL     1      36.916 -23.169 -13.297  0.00  0.00    -0.283 OA
BRANCH   5   6
ATOM      6  C   UNL     1      35.622 -23.381 -13.834  0.00  0.00    +0.153 C 
ATOM      7  C   UNL     1      35.654 -23.098 -15.321  0.00  0.00    +0.035 C 
ENDBRANCH   5   6
ENDBRANCH   1   5
BRANCH   1   8
ATOM      8  N   UNL     1      38.179 -25.511 -13.198  0.00  0.00    -0.188 NA
BRANCH   8   9
ATOM      9  C   UNL     1      38.929 -25.149 -14.403  0.00  0.00    +0.083 C 
ATOM     10  C   UNL     1      40.382 -25.582 -14.297  0.00  0.00    +0.019 C 
ENDBRANCH   8   9
BRANCH   8  11
ATOM     11  C   UNL     1      37.264 -26.609 -13.517  0.00  0.00    +0.083 C 
ATOM     12  C   UNL     1      36.956 -26.653 -15.005  0.00  0.00    +0.019 C 
ENDBRANCH   8  11
ENDBRANCH   1   8
TORSDOF 6
ENDMDL
