MODEL 1
REMARK VINA RESULT:      -8.2      0.000      0.000
REMARK  Name = 5360697
REMARK  1 active torsions:
REMARK  status: ('A' for Active; 'I' for Inactive)
REMARK    1  A    between atoms: C_17  and  O_20
REMARK                            x       y       z     vdW  Elec       q    Type
REMARK                         _______ _______ _______ _____ _____    ______ ____
ROOT
ATOM      1  N   UNL     1      31.304  -5.781 -23.180  0.00  0.00    +0.387 N 
ATOM      2  C   UNL     1      32.274  -8.578 -23.484  0.00  0.00    +0.015 C 
ATOM      3  C   UNL     1      33.218  -7.352 -23.619  0.00  0.00    -0.015 C 
ATOM      4  C   UNL     1      32.660  -6.206 -22.755  0.00  0.00    -0.053 C 
ATOM      5  C   UNL     1      30.877  -8.138 -23.999  0.00  0.00    -0.019 C 
ATOM      6  C   UNL     1      32.827  -9.700 -24.406  0.00  0.00    +0.004 C 
ATOM      7  C   UNL     1      34.689  -7.695 -23.307  0.00  0.00    -0.002 C 
ATOM      8  C   UNL     1      32.122  -8.993 -22.009  0.00  0.00    -0.024 C 
ATOM      9  C   UNL     1      32.663  -6.602 -21.263  0.00  0.00    +0.005 C 
ATOM     10  C   UNL     1      30.341  -6.887 -23.283  0.00  0.00    -0.077 C 
ATOM     11  C   UNL     1      34.283 -10.058 -24.103  0.00  0.00    +0.000 C 
ATOM     12  C   UNL     1      35.190  -8.834 -24.191  0.00  0.00    -0.000 C 
ATOM     13  C   UNL     1      32.296  -8.040 -20.978  0.00  0.00    -0.028 C 
ATOM     14  C   UNL     1      31.740 -10.297 -21.648  0.00  0.00    +0.032 C 
ATOM     15  C   UNL     1      31.334  -4.987 -24.409  0.00  0.00    -0.101 C 
ATOM     16  C   UNL     1      32.138  -8.423 -19.635  0.00  0.00    -0.002 C 
ATOM     17  C   UNL     1      31.582 -10.663 -20.309  0.00  0.00    +0.133 C 
ATOM     18  C   UNL     1      31.786  -9.727 -19.302  0.00  0.00    +0.036 C 
ATOM     19  H   UNL     1      30.966  -5.182 -22.427  0.00  0.00    -0.080 HD
ENDROOT
BRANCH  17  20
ATOM     20  O   UNL     1      31.222 -11.936 -19.991  0.00  0.00    -0.506 OA
ATOM     21  H   UNL     1      31.213 -12.600 -20.652  0.00  0.00    +0.292 HD
ENDBRANCH  17  20
TORSDOF 1
ENDMDL
MODEL 2
REMARK VINA RESULT:      -7.9     16.669     18.898
REMARK  Name = 5360697
REMARK  1 active torsions:
REMARK  status: ('A' for Active; 'I' for Inactive)
REMARK    1  A    between atoms: C_17  and  O_20
REMARK                            x       y       z     vdW  Elec       q    Type
REMARK                         _______ _______ _______ _____ _____    ______ ____
ROOT
ATOM      1  N   UNL     1      38.450 -25.406 -15.331  0.00  0.00    +0.387 N 
ATOM      2  C   UNL     1      36.364 -24.985 -13.251  0.00  0.00    +0.015 C 
ATOM      3  C   UNL     1      37.668 -24.145 -13.300  0.00  0.00    -0.015 C 
ATOM      4  C   UNL     1      38.149 -24.070 -14.761  0.00  0.00    -0.053 C 
ATOM      5  C   UNL     1      36.712 -26.402 -13.784  0.00  0.00    -0.019 C 
ATOM      6  C   UNL     1      35.930 -25.092 -11.763  0.00  0.00    +0.004 C 
ATOM      7  C   UNL     1      37.513 -22.763 -12.634  0.00  0.00    -0.002 C 
ATOM      8  C   UNL     1      35.290 -24.385 -14.178  0.00  0.00    -0.024 C 
ATOM      9  C   UNL     1      37.115 -23.328 -15.634  0.00  0.00    +0.005 C 
ATOM     10  C   UNL     1      37.355 -26.376 -15.179  0.00  0.00    -0.077 C 
ATOM     11  C   UNL     1      35.763 -23.728 -11.090  0.00  0.00    +0.000 C 
ATOM     12  C   UNL     1      37.037 -22.896 -11.190  0.00  0.00    -0.000 C 
ATOM     13  C   UNL     1      35.668 -23.619 -15.305  0.00  0.00    -0.028 C 
ATOM     14  C   UNL     1      33.921 -24.637 -13.978  0.00  0.00    +0.032 C 
ATOM     15  C   UNL     1      39.713 -25.949 -14.828  0.00  0.00    -0.101 C 
ATOM     16  C   UNL     1      34.683 -23.089 -16.156  0.00  0.00    -0.002 C 
ATOM     17  C   UNL     1      32.952 -24.109 -14.834  0.00  0.00    +0.133 C 
ATOM     18  C   UNL     1      33.333 -23.331 -15.920  0.00  0.00    +0.036 C 
ATOM     19  H   UNL     1      38.552 -25.250 -16.334  0.00  0.00    -0.080 HD
ENDROOT
BRANCH  17  20
ATOM     20  O   UNL     1      31.635 -24.362 -14.607  0.00  0.00    -0.506 OA
ATOM     21  H   UNL     1      31.211 -25.073 -15.047  0.00  0.00    +0.292 HD
ENDBRANCH  17  20
TORSDOF 1
ENDMDL
MODEL 3
REMARK VINA RESULT:      -7.0      2.696      4.771
REMARK  Name = 5360697
REMARK  1 active torsions:
REMARK  status: ('A' for Active; 'I' for Inactive)
REMARK    1  A    between atoms: C_17  and  O_20
REMARK                            x       y       z     vdW  Elec       q    Type
REMARK                         _______ _______ _______ _____ _____    ______ ____
ROOT
ATOM      1  N   UNL     1      31.864  -8.388 -20.936  0.00  0.00    +0.387 N 
ATOM      2  C   UNL     1      33.811  -8.333 -23.187  0.00  0.00    +0.015 C 
ATOM      3  C   UNL     1      32.896  -9.557 -22.910  0.00  0.00    -0.015 C 
ATOM      4  C   UNL     1      31.605  -9.061 -22.233  0.00  0.00    -0.053 C 
ATOM      5  C   UNL     1      34.131  -7.682 -21.814  0.00  0.00    -0.019 C 
ATOM      6  C   UNL     1      35.127  -8.864 -23.818  0.00  0.00    +0.004 C 
ATOM      7  C   UNL     1      32.639 -10.407 -24.171  0.00  0.00    -0.002 C 
ATOM      8  C   UNL     1      33.078  -7.285 -24.045  0.00  0.00    -0.024 C 
ATOM      9  C   UNL     1      30.819  -8.130 -23.180  0.00  0.00    +0.005 C 
ATOM     10  C   UNL     1      32.869  -7.318 -21.014  0.00  0.00    -0.077 C 
ATOM     11  C   UNL     1      34.890  -9.703 -25.076  0.00  0.00    +0.000 C 
ATOM     12  C   UNL     1      33.950 -10.872 -24.800  0.00  0.00    -0.000 C 
ATOM     13  C   UNL     1      31.667  -7.197 -24.015  0.00  0.00    -0.028 C 
ATOM     14  C   UNL     1      33.783  -6.346 -24.820  0.00  0.00    +0.032 C 
ATOM     15  C   UNL     1      32.186  -9.342 -19.874  0.00  0.00    -0.101 C 
ATOM     16  C   UNL     1      31.007  -6.226 -24.788  0.00  0.00    -0.002 C 
ATOM     17  C   UNL     1      33.116  -5.383 -25.579  0.00  0.00    +0.133 C 
ATOM     18  C   UNL     1      31.728  -5.326 -25.567  0.00  0.00    +0.036 C 
ATOM     19  H   UNL     1      30.985  -7.932 -20.694  0.00  0.00    -0.080 HD
ENDROOT
BRANCH  17  20
ATOM     20  O   UNL     1      33.826  -4.495 -26.327  0.00  0.00    -0.506 OA
ATOM     21  H   UNL     1      33.488  -3.635 -26.481  0.00  0.00    +0.292 HD
ENDBRANCH  17  20
TORSDOF 1
ENDMDL
MODEL 4
REMARK VINA RESULT:      -6.7      1.440      3.611
REMARK  Name = 5360697
REMARK  1 active torsions:
REMARK  status: ('A' for Active; 'I' for Inactive)
REMARK    1  A    between atoms: C_17  and  O_20
REMARK                            x       y       z     vdW  Elec       q    Type
REMARK                         _______ _______ _______ _____ _____    ______ ____
ROOT
ATOM      1  N   UNL     1      33.848  -7.829 -24.353  0.00  0.00    +0.387 N 
ATOM      2  C   UNL     1      32.639  -7.216 -21.704  0.00  0.00    +0.015 C 
ATOM      3  C   UNL     1      32.084  -6.623 -23.027  0.00  0.00    -0.015 C 
ATOM      4  C   UNL     1      32.393  -7.604 -24.172  0.00  0.00    -0.053 C 
ATOM      5  C   UNL     1      34.173  -7.379 -21.883  0.00  0.00    -0.019 C 
ATOM      6  C   UNL     1      32.365  -6.185 -20.574  0.00  0.00    +0.004 C 
ATOM      7  C   UNL     1      30.593  -6.243 -22.930  0.00  0.00    -0.002 C 
ATOM      8  C   UNL     1      32.046  -8.613 -21.438  0.00  0.00    -0.024 C 
ATOM      9  C   UNL     1      31.660  -8.945 -23.949  0.00  0.00    +0.005 C 
ATOM     10  C   UNL     1      34.546  -8.215 -23.118  0.00  0.00    -0.077 C 
ATOM     11  C   UNL     1      30.887  -5.804 -20.460  0.00  0.00    +0.000 C 
ATOM     12  C   UNL     1      30.344  -5.269 -21.781  0.00  0.00    -0.000 C 
ATOM     13  C   UNL     1      31.604  -9.417 -22.514  0.00  0.00    -0.028 C 
ATOM     14  C   UNL     1      31.993  -9.155 -20.141  0.00  0.00    +0.032 C 
ATOM     15  C   UNL     1      34.505  -6.693 -25.001  0.00  0.00    -0.101 C 
ATOM     16  C   UNL     1      31.081 -10.697 -22.265  0.00  0.00    -0.002 C 
ATOM     17  C   UNL     1      31.476 -10.431 -19.908  0.00  0.00    +0.133 C 
ATOM     18  C   UNL     1      31.014 -11.200 -20.969  0.00  0.00    +0.036 C 
ATOM     19  H   UNL     1      33.916  -8.631 -24.979  0.00  0.00    -0.080 HD
ENDROOT
BRANCH  17  20
ATOM     20  O   UNL     1      31.428 -10.923 -18.641  0.00  0.00    -0.506 OA
ATOM     21  H   UNL     1      32.049 -10.633 -18.001  0.00  0.00    +0.292 HD
ENDBRANCH  17  20
TORSDOF 1
ENDMDL
MODEL 5
REMARK VINA RESULT:      -6.7      2.943      5.307
REMARK  Name = 5360697
REMARK  1 active torsions:
REMARK  status: ('A' for Active; 'I' for Inactive)
REMARK    1  A    between atoms: C_17  and  O_20
REMARK                            x       y       z     vdW  Elec       q    Type
REMARK                         _______ _______ _______ _____ _____    ______ ____
ROOT
ATOM      1  N   UNL     1      32.571  -9.746 -22.463  0.00  0.00    +0.387 N 
ATOM      2  C   UNL     1      31.370  -7.117 -23.171  0.00  0.00    +0.015 C 
ATOM      3  C   UNL     1      31.917  -7.425 -21.751  0.00  0.00    -0.015 C 
ATOM      4  C   UNL     1      33.042  -8.468 -21.874  0.00  0.00    -0.053 C 
ATOM      5  C   UNL     1      30.816  -8.450 -23.746  0.00  0.00    -0.019 C 
ATOM      6  C   UNL     1      30.201  -6.105 -23.015  0.00  0.00    +0.004 C 
ATOM      7  C   UNL     1      32.340  -6.153 -20.988  0.00  0.00    -0.002 C 
ATOM      8  C   UNL     1      32.499  -6.637 -24.101  0.00  0.00    -0.024 C 
ATOM      9  C   UNL     1      34.224  -7.898 -22.687  0.00  0.00    +0.005 C 
ATOM     10  C   UNL     1      31.854  -9.583 -23.736  0.00  0.00    -0.077 C 
ATOM     11  C   UNL     1      30.608  -4.834 -22.267  0.00  0.00    +0.000 C 
ATOM     12  C   UNL     1      31.189  -5.155 -20.894  0.00  0.00    -0.000 C 
ATOM     13  C   UNL     1      33.836  -7.030 -23.862  0.00  0.00    -0.028 C 
ATOM     14  C   UNL     1      32.231  -5.863 -25.244  0.00  0.00    +0.032 C 
ATOM     15  C   UNL     1      31.791 -10.538 -21.511  0.00  0.00    -0.101 C 
ATOM     16  C   UNL     1      34.859  -6.602 -24.726  0.00  0.00    -0.002 C 
ATOM     17  C   UNL     1      33.256  -5.448 -26.098  0.00  0.00    +0.133 C 
ATOM     18  C   UNL     1      34.570  -5.813 -25.836  0.00  0.00    +0.036 C 
ATOM     19  H   UNL     1      33.421 -10.266 -22.682  0.00  0.00    -0.080 HD
ENDROOT
BRANCH  17  20
ATOM     20  O   UNL     1      32.965  -4.690 -27.190  0.00  0.00    -0.506 OA
ATOM     21  H   UNL     1      32.073  -4.518 -27.417  0.00  0.00    +0.292 HD
ENDBRANCH  17  20
TORSDOF 1
ENDMDL
MODEL 6
REMARK VINA RESULT:      -6.2     16.661     19.096
REMARK  Name = 5360697
REMARK  1 active torsions:
REMARK  status: ('A' for Active; 'I' for Inactive)
REMARK    1  A    between atoms: C_17  and  O_20
REMARK                            x       y       z     vdW  Elec       q    Type
REMARK                         _______ _______ _______ _____ _____    ______ ____
ROOT
ATOM      1  N   UNL     1      34.444 -23.853 -15.695  0.00  0.00    +0.387 N 
ATOM      2  C   UNL     1      36.611 -23.430 -13.701  0.00  0.00    +0.015 C 
ATOM      3  C   UNL     1      35.205 -23.950 -13.300  0.00  0.00    -0.015 C 
ATOM      4  C   UNL     1      34.604 -24.712 -14.495  0.00  0.00    -0.053 C 
ATOM      5  C   UNL     1      36.419 -22.478 -14.912  0.00  0.00    -0.019 C 
ATOM      6  C   UNL     1      37.173 -22.620 -12.500  0.00  0.00    +0.004 C 
ATOM      7  C   UNL     1      35.223 -24.773 -11.995  0.00  0.00    -0.002 C 
ATOM      8  C   UNL     1      37.516 -24.591 -14.155  0.00  0.00    -0.024 C 
ATOM      9  C   UNL     1      35.455 -25.956 -14.828  0.00  0.00    +0.005 C 
ATOM     10  C   UNL     1      35.669 -23.138 -16.080  0.00  0.00    -0.077 C 
ATOM     11  C   UNL     1      37.205 -23.426 -11.199  0.00  0.00    +0.000 C 
ATOM     12  C   UNL     1      35.826 -23.971 -10.845  0.00  0.00    -0.000 C 
ATOM     13  C   UNL     1      36.949 -25.767 -14.697  0.00  0.00    -0.028 C 
ATOM     14  C   UNL     1      38.918 -24.490 -14.112  0.00  0.00    +0.032 C 
ATOM     15  C   UNL     1      33.311 -22.936 -15.568  0.00  0.00    -0.101 C 
ATOM     16  C   UNL     1      37.782 -26.815 -15.126  0.00  0.00    -0.002 C 
ATOM     17  C   UNL     1      39.735 -25.537 -14.546  0.00  0.00    +0.133 C 
ATOM     18  C   UNL     1      39.167 -26.701 -15.048  0.00  0.00    +0.036 C 
ATOM     19  H   UNL     1      34.242 -24.500 -16.458  0.00  0.00    -0.080 HD
ENDROOT
BRANCH  17  20
ATOM     20  O   UNL     1      41.089 -25.413 -14.482  0.00  0.00    -0.506 OA
ATOM     21  H   UNL     1      41.559 -25.774 -13.756  0.00  0.00    +0.292 HD
ENDBRANCH  17  20
TORSDOF 1
ENDMDL
MODEL 7
REMARK VINA RESULT:      -6.1     16.125     18.782
REMARK  Name = 5360697
REMARK  1 active torsions:
REMARK  status: ('A' for Active; 'I' for Inactive)
REMARK    1  A    between atoms: C_17  and  O_20
REMARK                            x       y       z     vdW  Elec       q    Type
REMARK                         _______ _______ _______ _____ _____    ______ ____
ROOT
ATOM      1  N   UNL     1      35.458 -24.027 -11.598  0.00  0.00    +0.387 N 
ATOM      2  C   UNL     1      37.587 -24.213 -13.669  0.00  0.00    +0.015 C 
ATOM      3  C   UNL     1      36.861 -25.466 -13.110  0.00  0.00    -0.015 C 
ATOM      4  C   UNL     1      35.445 -25.056 -12.667  0.00  0.00    -0.053 C 
ATOM      5  C   UNL     1      37.656 -23.172 -12.518  0.00  0.00    -0.019 C 
ATOM      6  C   UNL     1      39.030 -24.639 -14.058  0.00  0.00    +0.004 C 
ATOM      7  C   UNL     1      36.876 -26.652 -14.095  0.00  0.00    -0.002 C 
ATOM      8  C   UNL     1      36.784 -23.584 -14.824  0.00  0.00    -0.024 C 
ATOM      9  C   UNL     1      34.618 -24.571 -13.877  0.00  0.00    +0.005 C 
ATOM     10  C   UNL     1      36.278 -22.849 -11.919  0.00  0.00    -0.077 C 
ATOM     11  C   UNL     1      39.061 -25.811 -15.042  0.00  0.00    +0.000 C 
ATOM     12  C   UNL     1      38.302 -27.017 -14.499  0.00  0.00    -0.000 C 
ATOM     13  C   UNL     1      35.382 -23.754 -14.893  0.00  0.00    -0.028 C 
ATOM     14  C   UNL     1      37.401 -22.771 -15.792  0.00  0.00    +0.032 C 
ATOM     15  C   UNL     1      35.822 -24.588 -10.297  0.00  0.00    -0.101 C 
ATOM     16  C   UNL     1      34.654 -23.163 -15.940  0.00  0.00    -0.002 C 
ATOM     17  C   UNL     1      36.665 -22.185 -16.824  0.00  0.00    +0.133 C 
ATOM     18  C   UNL     1      35.293 -22.385 -16.901  0.00  0.00    +0.036 C 
ATOM     19  H   UNL     1      34.496 -23.694 -11.539  0.00  0.00    -0.080 HD
ENDROOT
BRANCH  17  20
ATOM     20  O   UNL     1      37.294 -21.412 -17.751  0.00  0.00    -0.506 OA
ATOM     21  H   UNL     1      37.419 -21.734 -18.622  0.00  0.00    +0.292 HD
ENDBRANCH  17  20
TORSDOF 1
ENDMDL
MODEL 8
REMARK VINA RESULT:      -5.7     16.235     18.529
REMARK  Name = 5360697
REMARK  1 active torsions:
REMARK  status: ('A' for Active; 'I' for Inactive)
REMARK    1  A    between atoms: C_17  and  O_20
REMARK                            x       y       z     vdW  Elec       q    Type
REMARK                         _______ _______ _______ _____ _____    ______ ____
ROOT
ATOM      1  N   UNL     1      36.303 -22.142 -15.921  0.00  0.00    +0.387 N 
ATOM      2  C   UNL     1      36.357 -24.835 -14.656  0.00  0.00    +0.015 C 
ATOM      3  C   UNL     1      37.569 -24.261 -15.439  0.00  0.00    -0.015 C 
ATOM      4  C   UNL     1      37.536 -22.726 -15.337  0.00  0.00    -0.053 C 
ATOM      5  C   UNL     1      35.073 -24.272 -15.323  0.00  0.00    -0.019 C 
ATOM      6  C   UNL     1      36.381 -26.380 -14.819  0.00  0.00    +0.004 C 
ATOM      7  C   UNL     1      38.911 -24.877 -14.995  0.00  0.00    -0.002 C 
ATOM      8  C   UNL     1      36.375 -24.357 -13.192  0.00  0.00    -0.024 C 
ATOM      9  C   UNL     1      37.708 -22.276 -13.870  0.00  0.00    +0.005 C 
ATOM     10  C   UNL     1      35.063 -22.737 -15.402  0.00  0.00    -0.077 C 
ATOM     11  C   UNL     1      37.704 -27.007 -14.375  0.00  0.00    +0.000 C 
ATOM     12  C   UNL     1      38.889 -26.398 -15.118  0.00  0.00    -0.000 C 
ATOM     13  C   UNL     1      37.005 -23.139 -12.847  0.00  0.00    -0.028 C 
ATOM     14  C   UNL     1      35.711 -25.070 -12.177  0.00  0.00    +0.032 C 
ATOM     15  C   UNL     1      36.326 -22.154 -17.384  0.00  0.00    -0.101 C 
ATOM     16  C   UNL     1      37.002 -22.700 -11.511  0.00  0.00    -0.002 C 
ATOM     17  C   UNL     1      35.711 -24.620 -10.855  0.00  0.00    +0.133 C 
ATOM     18  C   UNL     1      36.361 -23.438 -10.521  0.00  0.00    +0.036 C 
ATOM     19  H   UNL     1      36.300 -21.169 -15.614  0.00  0.00    -0.080 HD
ENDROOT
BRANCH  17  20
ATOM     20  O   UNL     1      35.069 -25.338  -9.894  0.00  0.00    -0.506 OA
ATOM     21  H   UNL     1      35.550 -25.930  -9.350  0.00  0.00    +0.292 HD
ENDBRANCH  17  20
TORSDOF 1
ENDMDL
MODEL 9
REMARK VINA RESULT:      -5.5     15.290     18.087
REMARK  Name = 5360697
REMARK  1 active torsions:
REMARK  status: ('A' for Active; 'I' for Inactive)
REMARK    1  A    between atoms: C_17  and  O_20
REMARK                            x       y       z     vdW  Elec       q    Type
REMARK                         _______ _______ _______ _____ _____    ______ ____
ROOT
ATOM      1  N   UNL     1      37.521 -25.499 -13.637  0.00  0.00    +0.387 N 
ATOM      2  C   UNL     1      35.045 -24.608 -15.027  0.00  0.00    +0.015 C 
ATOM      3  C   UNL     1      35.257 -24.411 -13.501  0.00  0.00    -0.015 C 
ATOM      4  C   UNL     1      36.767 -24.288 -13.228  0.00  0.00    -0.053 C 
ATOM      5  C   UNL     1      35.780 -25.916 -15.426  0.00  0.00    -0.019 C 
ATOM      6  C   UNL     1      33.521 -24.784 -15.270  0.00  0.00    +0.004 C 
ATOM      7  C   UNL     1      34.433 -23.239 -12.931  0.00  0.00    -0.002 C 
ATOM      8  C   UNL     1      35.679 -23.451 -15.822  0.00  0.00    -0.024 C 
ATOM      9  C   UNL     1      37.342 -23.032 -13.918  0.00  0.00    +0.005 C 
ATOM     10  C   UNL     1      37.263 -25.918 -15.022  0.00  0.00    -0.077 C 
ATOM     11  C   UNL     1      32.690 -23.624 -14.717  0.00  0.00    +0.000 C 
ATOM     12  C   UNL     1      32.946 -23.413 -13.228  0.00  0.00    -0.000 C 
ATOM     13  C   UNL     1      36.772 -22.731 -15.285  0.00  0.00    -0.028 C 
ATOM     14  C   UNL     1      35.246 -23.126 -17.119  0.00  0.00    +0.032 C 
ATOM     15  C   UNL     1      37.330 -26.609 -12.703  0.00  0.00    -0.101 C 
ATOM     16  C   UNL     1      37.357 -21.689 -16.024  0.00  0.00    -0.002 C 
ATOM     17  C   UNL     1      35.839 -22.091 -17.846  0.00  0.00    +0.133 C 
ATOM     18  C   UNL     1      36.891 -21.369 -17.296  0.00  0.00    +0.036 C 
ATOM     19  H   UNL     1      38.503 -25.224 -13.603  0.00  0.00    -0.080 HD
ENDROOT
BRANCH  17  20
ATOM     20  O   UNL     1      35.390 -21.793 -19.095  0.00  0.00    -0.506 OA
ATOM     21  H   UNL     1      34.958 -22.449 -19.607  0.00  0.00    +0.292 HD
ENDBRANCH  17  20
TORSDOF 1
ENDMDL
