MODEL 1
REMARK VINA RESULT:      -8.7      0.000      0.000
REMARK  Name = 3783853
REMARK  4 active torsions:
REMARK  status: ('A' for Active; 'I' for Inactive)
REMARK    1  A    between atoms: C_1  and  N_12
REMARK    2  A    between atoms: C_4  and  C_10
REMARK    3  A    between atoms: C_13  and  C_15
REMARK    4  A    between atoms: C_15  and  C_19
REMARK                            x       y       z     vdW  Elec       q    Type
REMARK                         _______ _______ _______ _____ _____    ______ ____
ROOT
ATOM      1  C   UNL     1      33.227 -15.180 -21.902  0.00  0.00    +0.050 C 
ATOM      2  C   UNL     1      32.883 -14.791 -20.619  0.00  0.00    +0.015 C 
ATOM      3  C   UNL     1      32.986 -14.364 -22.995  0.00  0.00    +0.015 C 
ATOM      4  C   UNL     1      32.029 -12.715 -21.511  0.00  0.00    +0.072 C 
ATOM      5  C   UNL     1      32.279 -13.549 -20.422  0.00  0.00    +0.005 C 
ATOM      6  C   UNL     1      32.382 -13.122 -22.798  0.00  0.00    +0.005 C 
ENDROOT
BRANCH   4  10
ATOM      7  F   UNL     1      31.893 -10.692 -20.242  0.00  0.00    -0.166 F 
ATOM      8  F   UNL     1      31.503 -10.546 -22.370  0.00  0.00    -0.166 F 
ATOM      9  F   UNL     1      30.043 -11.487 -21.062  0.00  0.00    -0.166 F 
ATOM     10  C   UNL     1      31.383 -11.387 -21.301  0.00  0.00    +0.419 C 
ENDBRANCH   4  10
BRANCH   1  12
ATOM     11  O   UNL     1      35.287 -16.596 -20.276  0.00  0.00    -0.275 OA
ATOM     12  N   UNL     1      33.841 -16.441 -22.103  0.00  0.00    -0.284 N 
ATOM     13  C   UNL     1      34.802 -17.057 -21.307  0.00  0.00    +0.226 C 
ATOM     14  H   UNL     1      33.553 -16.940 -22.901  0.00  0.00    +0.155 HD
BRANCH  13  15
ATOM     15  C   UNL     1      35.243 -18.444 -21.844  0.00  0.00    +0.084 C 
ATOM     16  C   UNL     1      36.420 -18.961 -20.995  0.00  0.00    +0.010 C 
ATOM     17  C   UNL     1      34.082 -19.449 -21.689  0.00  0.00    +0.010 C 
BRANCH  15  19
ATOM     18 CL   UNL     1      34.492 -19.063 -24.451  0.00  0.00    -0.113 Cl
ATOM     19  C   UNL     1      35.687 -18.369 -23.323  0.00  0.00    +0.103 C 
ENDBRANCH  15  19
ENDBRANCH  13  15
ENDBRANCH   1  12
TORSDOF 4
ENDMDL
MODEL 2
REMARK VINA RESULT:      -8.6      1.167      1.895
REMARK  Name = 3783853
REMARK  4 active torsions:
REMARK  status: ('A' for Active; 'I' for Inactive)
REMARK    1  A    between atoms: C_1  and  N_12
REMARK    2  A    between atoms: C_4  and  C_10
REMARK    3  A    between atoms: C_13  and  C_15
REMARK    4  A    between atoms: C_15  and  C_19
REMARK                            x       y       z     vdW  Elec       q    Type
REMARK                         _______ _______ _______ _____ _____    ______ ____
ROOT
ATOM      1  C   UNL     1      33.165 -15.238 -21.837  0.00  0.00    +0.050 C 
ATOM      2  C   UNL     1      32.952 -14.465 -22.964  0.00  0.00    +0.015 C 
ATOM      3  C   UNL     1      32.821 -14.787 -20.573  0.00  0.00    +0.015 C 
ATOM      4  C   UNL     1      32.025 -12.730 -21.561  0.00  0.00    +0.072 C 
ATOM      5  C   UNL     1      32.377 -13.201 -22.825  0.00  0.00    +0.005 C 
ATOM      6  C   UNL     1      32.247 -13.523 -20.434  0.00  0.00    +0.005 C 
ENDROOT
BRANCH   4  10
ATOM      7  F   UNL     1      31.983 -10.624 -20.428  0.00  0.00    -0.166 F 
ATOM      8  F   UNL     1      31.493 -10.614 -22.540  0.00  0.00    -0.166 F 
ATOM      9  F   UNL     1      30.084 -11.437 -21.103  0.00  0.00    -0.166 F 
ATOM     10  C   UNL     1      31.412 -11.380 -21.412  0.00  0.00    +0.419 C 
ENDBRANCH   4  10
BRANCH   1  12
ATOM     11  O   UNL     1      35.327 -16.552 -20.258  0.00  0.00    -0.275 OA
ATOM     12  N   UNL     1      33.748 -16.522 -21.978  0.00  0.00    -0.284 N 
ATOM     13  C   UNL     1      34.760 -17.087 -21.208  0.00  0.00    +0.226 C 
ATOM     14  H   UNL     1      33.395 -17.079 -22.708  0.00  0.00    +0.155 HD
BRANCH  13  15
ATOM     15  C   UNL     1      35.144 -18.521 -21.661  0.00  0.00    +0.084 C 
ATOM     16  C   UNL     1      34.003 -19.488 -21.290  0.00  0.00    +0.010 C 
ATOM     17  C   UNL     1      35.296 -18.552 -23.196  0.00  0.00    +0.010 C 
BRANCH  15  19
ATOM     18 CL   UNL     1      36.270 -20.570 -20.153  0.00  0.00    -0.113 Cl
ATOM     19  C   UNL     1      36.448 -19.003 -20.986  0.00  0.00    +0.103 C 
ENDBRANCH  15  19
ENDBRANCH  13  15
ENDBRANCH   1  12
TORSDOF 4
ENDMDL
MODEL 3
REMARK VINA RESULT:      -8.3     11.043     12.081
REMARK  Name = 3783853
REMARK  4 active torsions:
REMARK  status: ('A' for Active; 'I' for Inactive)
REMARK    1  A    between atoms: C_1  and  N_12
REMARK    2  A    between atoms: C_4  and  C_10
REMARK    3  A    between atoms: C_13  and  C_15
REMARK    4  A    between atoms: C_15  and  C_19
REMARK                            x       y       z     vdW  Elec       q    Type
REMARK                         _______ _______ _______ _____ _____    ______ ____
ROOT
ATOM      1  C   UNL     1      33.302 -23.803 -14.880  0.00  0.00    +0.050 C 
ATOM      2  C   UNL     1      32.691 -23.275 -16.003  0.00  0.00    +0.015 C 
ATOM      3  C   UNL     1      32.584 -24.511 -13.930  0.00  0.00    +0.015 C 
ATOM      4  C   UNL     1      30.581 -24.169 -15.237  0.00  0.00    +0.072 C 
ATOM      5  C   UNL     1      31.320 -23.459 -16.184  0.00  0.00    +0.005 C 
ATOM      6  C   UNL     1      31.213 -24.695 -14.110  0.00  0.00    +0.005 C 
ENDROOT
BRANCH   4  10
ATOM      7  F   UNL     1      28.387 -23.217 -15.298  0.00  0.00    -0.166 F 
ATOM      8  F   UNL     1      28.786 -24.856 -16.661  0.00  0.00    -0.166 F 
ATOM      9  F   UNL     1      28.581 -25.242 -14.531  0.00  0.00    -0.166 F 
ATOM     10  C   UNL     1      29.115 -24.365 -15.429  0.00  0.00    +0.419 C 
ENDBRANCH   4  10
BRANCH   1  12
ATOM     11  O   UNL     1      35.589 -25.583 -15.586  0.00  0.00    -0.275 OA
ATOM     12  N   UNL     1      34.694 -23.617 -14.697  0.00  0.00    -0.284 N 
ATOM     13  C   UNL     1      35.723 -24.485 -15.048  0.00  0.00    +0.226 C 
ATOM     14  H   UNL     1      34.966 -22.773 -14.270  0.00  0.00    +0.155 HD
BRANCH  13  15
ATOM     15  C   UNL     1      37.131 -23.941 -14.690  0.00  0.00    +0.084 C 
ATOM     16  C   UNL     1      37.536 -22.873 -15.725  0.00  0.00    +0.010 C 
ATOM     17  C   UNL     1      37.082 -23.253 -13.309  0.00  0.00    +0.010 C 
BRANCH  15  19
ATOM     18 CL   UNL     1      38.417 -25.815 -13.084  0.00  0.00    -0.113 Cl
ATOM     19  C   UNL     1      38.194 -25.063 -14.687  0.00  0.00    +0.103 C 
ENDBRANCH  15  19
ENDBRANCH  13  15
ENDBRANCH   1  12
TORSDOF 4
ENDMDL
MODEL 4
REMARK VINA RESULT:      -8.3     11.051     12.061
REMARK  Name = 3783853
REMARK  4 active torsions:
REMARK  status: ('A' for Active; 'I' for Inactive)
REMARK    1  A    between atoms: C_1  and  N_12
REMARK    2  A    between atoms: C_4  and  C_10
REMARK    3  A    between atoms: C_13  and  C_15
REMARK    4  A    between atoms: C_15  and  C_19
REMARK                            x       y       z     vdW  Elec       q    Type
REMARK                         _______ _______ _______ _____ _____    ______ ____
ROOT
ATOM      1  C   UNL     1      33.314 -23.812 -14.891  0.00  0.00    +0.050 C 
ATOM      2  C   UNL     1      32.596 -24.500 -13.928  0.00  0.00    +0.015 C 
ATOM      3  C   UNL     1      32.701 -23.299 -16.022  0.00  0.00    +0.015 C 
ATOM      4  C   UNL     1      30.590 -24.173 -15.234  0.00  0.00    +0.072 C 
ATOM      5  C   UNL     1      31.224 -24.682 -14.101  0.00  0.00    +0.005 C 
ATOM      6  C   UNL     1      31.328 -23.481 -16.195  0.00  0.00    +0.005 C 
ENDROOT
BRANCH   4  10
ATOM      7  F   UNL     1      28.787 -24.850 -16.652  0.00  0.00    -0.166 F 
ATOM      8  F   UNL     1      28.572 -25.246 -14.531  0.00  0.00    -0.166 F 
ATOM      9  F   UNL     1      28.417 -23.209 -15.275  0.00  0.00    -0.166 F 
ATOM     10  C   UNL     1      29.124 -24.368 -15.420  0.00  0.00    +0.419 C 
ENDBRANCH   4  10
BRANCH   1  12
ATOM     11  O   UNL     1      35.590 -25.630 -15.526  0.00  0.00    -0.275 OA
ATOM     12  N   UNL     1      34.707 -23.627 -14.715  0.00  0.00    -0.284 N 
ATOM     13  C   UNL     1      35.731 -24.513 -15.032  0.00  0.00    +0.226 C 
ATOM     14  H   UNL     1      34.983 -22.768 -14.322  0.00  0.00    +0.155 HD
BRANCH  13  15
ATOM     15  C   UNL     1      37.142 -23.963 -14.696  0.00  0.00    +0.084 C 
ATOM     16  C   UNL     1      37.531 -22.902 -15.743  0.00  0.00    +0.010 C 
ATOM     17  C   UNL     1      37.108 -23.264 -13.320  0.00  0.00    +0.010 C 
BRANCH  15  19
ATOM     18 CL   UNL     1      38.431 -25.841 -13.097  0.00  0.00    -0.113 Cl
ATOM     19  C   UNL     1      38.208 -25.083 -14.697  0.00  0.00    +0.103 C 
ENDBRANCH  15  19
ENDBRANCH  13  15
ENDBRANCH   1  12
TORSDOF 4
ENDMDL
MODEL 5
REMARK VINA RESULT:      -8.0      5.498      7.513
REMARK  Name = 3783853
REMARK  4 active torsions:
REMARK  status: ('A' for Active; 'I' for Inactive)
REMARK    1  A    between atoms: C_1  and  N_12
REMARK    2  A    between atoms: C_4  and  C_10
REMARK    3  A    between atoms: C_13  and  C_15
REMARK    4  A    between atoms: C_15  and  C_19
REMARK                            x       y       z     vdW  Elec       q    Type
REMARK                         _______ _______ _______ _____ _____    ______ ____
ROOT
ATOM      1  C   UNL     1      34.019 -18.937 -20.992  0.00  0.00    +0.050 C 
ATOM      2  C   UNL     1      32.823 -19.471 -20.546  0.00  0.00    +0.015 C 
ATOM      3  C   UNL     1      35.225 -19.586 -20.781  0.00  0.00    +0.015 C 
ATOM      4  C   UNL     1      34.035 -21.357 -19.646  0.00  0.00    +0.072 C 
ATOM      5  C   UNL     1      32.831 -20.690 -19.868  0.00  0.00    +0.005 C 
ATOM      6  C   UNL     1      35.233 -20.805 -20.103  0.00  0.00    +0.005 C 
ENDROOT
BRANCH   4  10
ATOM      7  F   UNL     1      35.063 -22.778 -18.020  0.00  0.00    -0.166 F 
ATOM      8  F   UNL     1      32.905 -22.894 -18.204  0.00  0.00    -0.166 F 
ATOM      9  F   UNL     1      34.173 -23.727 -19.761  0.00  0.00    -0.166 F 
ATOM     10  C   UNL     1      34.044 -22.660 -18.921  0.00  0.00    +0.419 C 
ENDBRANCH   4  10
BRANCH   1  12
ATOM     11  O   UNL     1      34.933 -16.239 -20.108  0.00  0.00    -0.275 OA
ATOM     12  N   UNL     1      34.012 -17.699 -21.681  0.00  0.00    -0.284 N 
ATOM     13  C   UNL     1      34.453 -16.464 -21.218  0.00  0.00    +0.226 C 
ATOM     14  H   UNL     1      33.650 -17.716 -22.596  0.00  0.00    +0.155 HD
BRANCH  13  15
ATOM     15  C   UNL     1      34.287 -15.326 -22.259  0.00  0.00    +0.084 C 
ATOM     16  C   UNL     1      32.785 -15.106 -22.529  0.00  0.00    +0.010 C 
ATOM     17  C   UNL     1      34.849 -14.011 -21.678  0.00  0.00    +0.010 C 
BRANCH  15  19
ATOM     18 CL   UNL     1      33.852 -15.979 -24.928  0.00  0.00    -0.113 Cl
ATOM     19  C   UNL     1      34.992 -15.663 -23.592  0.00  0.00    +0.103 C 
ENDBRANCH  15  19
ENDBRANCH  13  15
ENDBRANCH   1  12
TORSDOF 4
ENDMDL
MODEL 6
REMARK VINA RESULT:      -8.0     11.137     12.397
REMARK  Name = 3783853
REMARK  4 active torsions:
REMARK  status: ('A' for Active; 'I' for Inactive)
REMARK    1  A    between atoms: C_1  and  N_12
REMARK    2  A    between atoms: C_4  and  C_10
REMARK    3  A    between atoms: C_13  and  C_15
REMARK    4  A    between atoms: C_15  and  C_19
REMARK                            x       y       z     vdW  Elec       q    Type
REMARK                         _______ _______ _______ _____ _____    ______ ____
ROOT
ATOM      1  C   UNL     1      33.338 -24.292 -14.440  0.00  0.00    +0.050 C 
ATOM      2  C   UNL     1      32.361 -24.997 -13.759  0.00  0.00    +0.015 C 
ATOM      3  C   UNL     1      33.015 -23.395 -15.446  0.00  0.00    +0.015 C 
ATOM      4  C   UNL     1      30.678 -23.903 -15.104  0.00  0.00    +0.072 C 
ATOM      5  C   UNL     1      31.021 -24.801 -14.094  0.00  0.00    +0.005 C 
ATOM      6  C   UNL     1      31.675 -23.200 -15.781  0.00  0.00    +0.005 C 
ENDROOT
BRANCH   4  10
ATOM      7  F   UNL     1      28.997 -23.781 -16.802  0.00  0.00    -0.166 F 
ATOM      8  F   UNL     1      28.400 -24.599 -14.884  0.00  0.00    -0.166 F 
ATOM      9  F   UNL     1      28.783 -22.468 -15.083  0.00  0.00    -0.166 F 
ATOM     10  C   UNL     1      29.246 -23.694 -15.462  0.00  0.00    +0.419 C 
ENDBRANCH   4  10
BRANCH   1  12
ATOM     11  O   UNL     1      34.773 -23.785 -11.876  0.00  0.00    -0.275 OA
ATOM     12  N   UNL     1      34.699 -24.489 -14.101  0.00  0.00    -0.284 N 
ATOM     13  C   UNL     1      35.318 -24.235 -12.882  0.00  0.00    +0.226 C 
ATOM     14  H   UNL     1      35.274 -24.849 -14.814  0.00  0.00    +0.155 HD
BRANCH  13  15
ATOM     15  C   UNL     1      36.832 -24.576 -12.882  0.00  0.00    +0.084 C 
ATOM     16  C   UNL     1      37.447 -24.135 -14.224  0.00  0.00    +0.010 C 
ATOM     17  C   UNL     1      37.539 -23.780 -11.764  0.00  0.00    +0.010 C 
BRANCH  15  19
ATOM     18 CL   UNL     1      37.270 -26.968 -14.234  0.00  0.00    -0.113 Cl
ATOM     19  C   UNL     1      37.076 -26.091 -12.692  0.00  0.00    +0.103 C 
ENDBRANCH  15  19
ENDBRANCH  13  15
ENDBRANCH   1  12
TORSDOF 4
ENDMDL
MODEL 7
REMARK VINA RESULT:      -8.0      5.658      7.642
REMARK  Name = 3783853
REMARK  4 active torsions:
REMARK  status: ('A' for Active; 'I' for Inactive)
REMARK    1  A    between atoms: C_1  and  N_12
REMARK    2  A    between atoms: C_4  and  C_10
REMARK    3  A    between atoms: C_13  and  C_15
REMARK    4  A    between atoms: C_15  and  C_19
REMARK                            x       y       z     vdW  Elec       q    Type
REMARK                         _______ _______ _______ _____ _____    ______ ____
ROOT
ATOM      1  C   UNL     1      34.009 -18.875 -20.996  0.00  0.00    +0.050 C 
ATOM      2  C   UNL     1      35.230 -19.495 -20.800  0.00  0.00    +0.015 C 
ATOM      3  C   UNL     1      32.827 -19.448 -20.555  0.00  0.00    +0.015 C 
ATOM      4  C   UNL     1      34.094 -21.318 -19.695  0.00  0.00    +0.072 C 
ATOM      5  C   UNL     1      35.273 -20.726 -20.145  0.00  0.00    +0.005 C 
ATOM      6  C   UNL     1      32.870 -20.679 -19.900  0.00  0.00    +0.005 C 
ENDROOT
BRANCH   4  10
ATOM      7  F   UNL     1      34.249 -23.700 -19.840  0.00  0.00    -0.166 F 
ATOM      8  F   UNL     1      35.188 -22.756 -18.129  0.00  0.00    -0.166 F 
ATOM      9  F   UNL     1      33.020 -22.871 -18.250  0.00  0.00    -0.166 F 
ATOM     10  C   UNL     1      34.139 -22.633 -18.995  0.00  0.00    +0.419 C 
ENDBRANCH   4  10
BRANCH   1  12
ATOM     11  O   UNL     1      34.909 -16.181 -20.086  0.00  0.00    -0.275 OA
ATOM     12  N   UNL     1      33.965 -17.625 -21.660  0.00  0.00    -0.284 N 
ATOM     13  C   UNL     1      34.402 -16.392 -21.187  0.00  0.00    +0.226 C 
ATOM     14  H   UNL     1      33.578 -17.630 -22.565  0.00  0.00    +0.155 HD
BRANCH  13  15
ATOM     15  C   UNL     1      34.191 -15.237 -22.201  0.00  0.00    +0.084 C 
ATOM     16  C   UNL     1      34.889 -13.969 -21.671  0.00  0.00    +0.010 C 
ATOM     17  C   UNL     1      34.856 -15.604 -23.545  0.00  0.00    +0.010 C 
BRANCH  15  19
ATOM     18 CL   UNL     1      32.156 -13.438 -21.598  0.00  0.00    -0.113 Cl
ATOM     19  C   UNL     1      32.691 -14.931 -22.415  0.00  0.00    +0.103 C 
ENDBRANCH  15  19
ENDBRANCH  13  15
ENDBRANCH   1  12
TORSDOF 4
ENDMDL
MODEL 8
REMARK VINA RESULT:      -7.8      5.088      7.979
REMARK  Name = 3783853
REMARK  4 active torsions:
REMARK  status: ('A' for Active; 'I' for Inactive)
REMARK    1  A    between atoms: C_1  and  N_12
REMARK    2  A    between atoms: C_4  and  C_10
REMARK    3  A    between atoms: C_13  and  C_15
REMARK    4  A    between atoms: C_15  and  C_19
REMARK                            x       y       z     vdW  Elec       q    Type
REMARK                         _______ _______ _______ _____ _____    ______ ____
ROOT
ATOM      1  C   UNL     1      32.433 -10.986 -22.862  0.00  0.00    +0.050 C 
ATOM      2  C   UNL     1      33.335 -11.739 -23.594  0.00  0.00    +0.015 C 
ATOM      3  C   UNL     1      31.734 -11.529 -21.796  0.00  0.00    +0.015 C 
ATOM      4  C   UNL     1      32.849 -13.638 -22.182  0.00  0.00    +0.072 C 
ATOM      5  C   UNL     1      33.544 -13.075 -23.252  0.00  0.00    +0.005 C 
ATOM      6  C   UNL     1      31.944 -12.865 -21.454  0.00  0.00    +0.005 C 
ENDROOT
BRANCH   4  10
ATOM      7  F   UNL     1      33.445 -15.850 -22.870  0.00  0.00    -0.166 F 
ATOM      8  F   UNL     1      34.050 -15.243 -20.878  0.00  0.00    -0.166 F 
ATOM      9  F   UNL     1      31.957 -15.656 -21.297  0.00  0.00    -0.166 F 
ATOM     10  C   UNL     1      33.072 -15.066 -21.816  0.00  0.00    +0.419 C 
ENDBRANCH   4  10
BRANCH   1  12
ATOM     11  O   UNL     1      32.827  -8.506 -21.254  0.00  0.00    -0.275 OA
ATOM     12  N   UNL     1      32.220  -9.630 -23.209  0.00  0.00    -0.284 N 
ATOM     13  C   UNL     1      32.422  -8.505 -22.415  0.00  0.00    +0.226 C 
ATOM     14  H   UNL     1      31.890  -9.463 -24.121  0.00  0.00    +0.155 HD
BRANCH  13  15
ATOM     15  C   UNL     1      32.079  -7.176 -23.138  0.00  0.00    +0.084 C 
ATOM     16  C   UNL     1      30.819  -7.383 -24.001  0.00  0.00    +0.010 C 
ATOM     17  C   UNL     1      31.750  -6.090 -22.092  0.00  0.00    +0.010 C 
BRANCH  15  19
ATOM     18 CL   UNL     1      34.813  -7.410 -23.599  0.00  0.00    -0.113 Cl
ATOM     19  C   UNL     1      33.237  -6.705 -24.048  0.00  0.00    +0.103 C 
ENDBRANCH  15  19
ENDBRANCH  13  15
ENDBRANCH   1  12
TORSDOF 4
ENDMDL
MODEL 9
REMARK VINA RESULT:      -7.8      8.835     10.819
REMARK  Name = 3783853
REMARK  4 active torsions:
REMARK  status: ('A' for Active; 'I' for Inactive)
REMARK    1  A    between atoms: C_1  and  N_12
REMARK    2  A    between atoms: C_4  and  C_10
REMARK    3  A    between atoms: C_13  and  C_15
REMARK    4  A    between atoms: C_15  and  C_19
REMARK                            x       y       z     vdW  Elec       q    Type
REMARK                         _______ _______ _______ _____ _____    ______ ____
ROOT
ATOM      1  C   UNL     1      36.097 -23.059 -16.081  0.00  0.00    +0.050 C 
ATOM      2  C   UNL     1      34.759 -23.368 -16.249  0.00  0.00    +0.015 C 
ATOM      3  C   UNL     1      36.781 -22.277 -16.997  0.00  0.00    +0.015 C 
ATOM      4  C   UNL     1      34.755 -22.093 -18.301  0.00  0.00    +0.072 C 
ATOM      5  C   UNL     1      34.083 -22.881 -17.368  0.00  0.00    +0.005 C 
ATOM      6  C   UNL     1      36.105 -21.790 -18.116  0.00  0.00    +0.005 C 
ENDROOT
BRANCH   4  10
ATOM      7  F   UNL     1      34.825 -20.851 -20.345  0.00  0.00    -0.166 F 
ATOM      8  F   UNL     1      33.483 -22.553 -20.273  0.00  0.00    -0.166 F 
ATOM      9  F   UNL     1      33.000 -20.743 -19.168  0.00  0.00    -0.166 F 
ATOM     10  C   UNL     1      34.033 -21.572 -19.497  0.00  0.00    +0.419 C 
ENDBRANCH   4  10
BRANCH   1  12
ATOM     11  O   UNL     1      36.915 -25.842 -15.388  0.00  0.00    -0.275 OA
ATOM     12  N   UNL     1      36.784 -23.553 -14.945  0.00  0.00    -0.284 N 
ATOM     13  C   UNL     1      37.143 -24.869 -14.671  0.00  0.00    +0.226 C 
ATOM     14  H   UNL     1      37.037 -22.885 -14.268  0.00  0.00    +0.155 HD
BRANCH  13  15
ATOM     15  C   UNL     1      37.890 -25.032 -13.322  0.00  0.00    +0.084 C 
ATOM     16  C   UNL     1      37.767 -23.723 -12.517  0.00  0.00    +0.010 C 
ATOM     17  C   UNL     1      37.219 -26.149 -12.493  0.00  0.00    +0.010 C 
BRANCH  15  19
ATOM     18 CL   UNL     1      39.948 -25.023 -15.193  0.00  0.00    -0.113 Cl
ATOM     19  C   UNL     1      39.387 -25.352 -13.532  0.00  0.00    +0.103 C 
ENDBRANCH  15  19
ENDBRANCH  13  15
ENDBRANCH   1  12
TORSDOF 4
ENDMDL
