MODEL 1
REMARK VINA RESULT:     -10.0      0.000      0.000
REMARK  Name = 444703
REMARK  1 active torsions:
REMARK  status: ('A' for Active; 'I' for Inactive)
REMARK    1  A    between atoms: C_4  and  C_14
REMARK                            x       y       z     vdW  Elec       q    Type
REMARK                         _______ _______ _______ _____ _____    ______ ____
ROOT
ATOM      1  S   UNL     1      30.757  -7.984 -23.503  0.00  0.00    -0.113 S 
ATOM      2  O   UNL     1      33.047  -7.005 -19.574  0.00  0.00    -0.270 OA
ATOM      3  N   UNL     1      32.696  -7.569 -21.839  0.00  0.00    -0.263 N 
ATOM      4  C   UNL     1      32.191  -8.720 -22.602  0.00  0.00    +0.138 C 
ATOM      5  C   UNL     1      31.811  -9.655 -21.483  0.00  0.00    +0.012 C 
ATOM      6  C   UNL     1      32.539  -6.280 -22.480  0.00  0.00    +0.107 C 
ATOM      7  C   UNL     1      31.112  -6.262 -23.005  0.00  0.00    +0.081 C 
ATOM      8  C   UNL     1      32.196  -9.119 -20.248  0.00  0.00    +0.052 C 
ATOM      9  C   UNL     1      32.735  -7.772 -20.467  0.00  0.00    +0.250 C 
ATOM     10  C   UNL     1      31.202 -10.899 -21.530  0.00  0.00    -0.001 C 
ATOM     11  C   UNL     1      31.996  -9.775 -19.049  0.00  0.00    +0.004 C 
ATOM     12  C   UNL     1      30.995 -11.587 -20.329  0.00  0.00    -0.000 C 
ATOM     13  C   UNL     1      31.390 -11.030 -19.100  0.00  0.00    +0.000 C 
ENDROOT
BRANCH   4  14
ATOM     14  C   UNL     1      33.234  -9.324 -23.544  0.00  0.00    +0.007 C 
ATOM     15  C   UNL     1      33.019 -10.580 -24.114  0.00  0.00    -0.006 C 
ATOM     16  C   UNL     1      34.404  -8.620 -23.837  0.00  0.00    -0.002 C 
ATOM     17  C   UNL     1      33.970 -11.130 -24.974  0.00  0.00    -0.022 C 
ATOM     18  C   UNL     1      35.354  -9.170 -24.697  0.00  0.00    -0.001 C 
ATOM     19  C   UNL     1      35.138 -10.425 -25.265  0.00  0.00    -0.004 C 
ATOM     20  C   UNL     1      33.739 -12.473 -25.581  0.00  0.00    +0.031 C 
ENDBRANCH   4  14
TORSDOF 1
ENDMDL
MODEL 2
REMARK VINA RESULT:      -8.1      1.289      2.145
REMARK  Name = 444703
REMARK  1 active torsions:
REMARK  status: ('A' for Active; 'I' for Inactive)
REMARK    1  A    between atoms: C_4  and  C_14
REMARK                            x       y       z     vdW  Elec       q    Type
REMARK                         _______ _______ _______ _____ _____    ______ ____
ROOT
ATOM      1  S   UNL     1      30.498  -7.113 -23.157  0.00  0.00    -0.113 S 
ATOM      2  O   UNL     1      32.567  -7.007 -18.992  0.00  0.00    -0.270 OA
ATOM      3  N   UNL     1      32.331  -6.923 -21.339  0.00  0.00    -0.263 N 
ATOM      4  C   UNL     1      32.022  -7.860 -22.430  0.00  0.00    +0.138 C 
ATOM      5  C   UNL     1      31.785  -9.129 -21.653  0.00  0.00    +0.012 C 
ATOM      6  C   UNL     1      31.978  -5.540 -21.587  0.00  0.00    +0.107 C 
ATOM      7  C   UNL     1      30.571  -5.581 -22.163  0.00  0.00    +0.081 C 
ATOM      8  C   UNL     1      32.068  -8.930 -20.296  0.00  0.00    +0.052 C 
ATOM      9  C   UNL     1      32.389  -7.514 -20.085  0.00  0.00    +0.250 C 
ATOM     10  C   UNL     1      31.382 -10.380 -22.092  0.00  0.00    -0.001 C 
ATOM     11  C   UNL     1      31.963  -9.933 -19.352  0.00  0.00    +0.004 C 
ATOM     12  C   UNL     1      31.274 -11.414 -21.155  0.00  0.00    -0.000 C 
ATOM     13  C   UNL     1      31.565 -11.192 -19.798  0.00  0.00    +0.000 C 
ENDROOT
BRANCH   4  14
ATOM     14  C   UNL     1      33.157  -7.997 -23.446  0.00  0.00    +0.007 C 
ATOM     15  C   UNL     1      33.493  -6.921 -24.271  0.00  0.00    -0.006 C 
ATOM     16  C   UNL     1      33.861  -9.198 -23.553  0.00  0.00    -0.002 C 
ATOM     17  C   UNL     1      34.529  -7.045 -25.197  0.00  0.00    -0.022 C 
ATOM     18  C   UNL     1      34.897  -9.322 -24.479  0.00  0.00    -0.001 C 
ATOM     19  C   UNL     1      35.231  -8.246 -25.301  0.00  0.00    -0.004 C 
ATOM     20  C   UNL     1      34.884  -5.895 -26.077  0.00  0.00    +0.031 C 
ENDBRANCH   4  14
TORSDOF 1
ENDMDL
MODEL 3
REMARK VINA RESULT:      -7.8      1.887      2.827
REMARK  Name = 444703
REMARK  1 active torsions:
REMARK  status: ('A' for Active; 'I' for Inactive)
REMARK    1  A    between atoms: C_4  and  C_14
REMARK                            x       y       z     vdW  Elec       q    Type
REMARK                         _______ _______ _______ _____ _____    ______ ____
ROOT
ATOM      1  S   UNL     1      30.288  -6.349 -22.997  0.00  0.00    -0.113 S 
ATOM      2  O   UNL     1      32.589  -7.043 -19.014  0.00  0.00    -0.270 OA
ATOM      3  N   UNL     1      32.210  -6.446 -21.266  0.00  0.00    -0.263 N 
ATOM      4  C   UNL     1      31.894  -7.130 -22.528  0.00  0.00    +0.138 C 
ATOM      5  C   UNL     1      31.779  -8.556 -22.055  0.00  0.00    +0.012 C 
ATOM      6  C   UNL     1      31.761  -5.072 -21.173  0.00  0.00    +0.107 C 
ATOM      7  C   UNL     1      30.328  -5.081 -21.680  0.00  0.00    +0.081 C 
ATOM      8  C   UNL     1      32.129  -8.651 -20.702  0.00  0.00    +0.052 C 
ATOM      9  C   UNL     1      32.377  -7.300 -20.185  0.00  0.00    +0.250 C 
ATOM     10  C   UNL     1      31.426  -9.700 -22.752  0.00  0.00    -0.001 C 
ATOM     11  C   UNL     1      32.140  -9.846 -20.011  0.00  0.00    +0.004 C 
ATOM     12  C   UNL     1      31.436 -10.925 -22.075  0.00  0.00    -0.000 C 
ATOM     13  C   UNL     1      31.792 -10.997 -20.717  0.00  0.00    +0.000 C 
ENDROOT
BRANCH   4  14
ATOM     14  C   UNL     1      32.973  -6.951 -23.598  0.00  0.00    +0.007 C 
ATOM     15  C   UNL     1      32.780  -6.046 -24.644  0.00  0.00    -0.006 C 
ATOM     16  C   UNL     1      34.155  -7.692 -23.532  0.00  0.00    -0.002 C 
ATOM     17  C   UNL     1      33.764  -5.882 -25.618  0.00  0.00    -0.022 C 
ATOM     18  C   UNL     1      35.139  -7.527 -24.506  0.00  0.00    -0.001 C 
ATOM     19  C   UNL     1      34.944  -6.623 -25.549  0.00  0.00    -0.004 C 
ATOM     20  C   UNL     1      33.554  -4.916 -26.735  0.00  0.00    +0.031 C 
ENDBRANCH   4  14
TORSDOF 1
ENDMDL
MODEL 4
REMARK VINA RESULT:      -7.7      2.496      5.018
REMARK  Name = 444703
REMARK  1 active torsions:
REMARK  status: ('A' for Active; 'I' for Inactive)
REMARK    1  A    between atoms: C_4  and  C_14
REMARK                            x       y       z     vdW  Elec       q    Type
REMARK                         _______ _______ _______ _____ _____    ______ ____
ROOT
ATOM      1  S   UNL     1      32.392  -6.192 -20.562  0.00  0.00    -0.113 S 
ATOM      2  O   UNL     1      30.541  -5.227 -24.718  0.00  0.00    -0.270 OA
ATOM      3  N   UNL     1      30.966  -6.396 -22.712  0.00  0.00    -0.263 N 
ATOM      4  C   UNL     1      32.080  -7.145 -22.112  0.00  0.00    +0.138 C 
ATOM      5  C   UNL     1      33.137  -6.977 -23.172  0.00  0.00    +0.012 C 
ATOM      6  C   UNL     1      30.049  -5.785 -21.773  0.00  0.00    +0.107 C 
ATOM      7  C   UNL     1      30.928  -5.112 -20.730  0.00  0.00    +0.081 C 
ATOM      8  C   UNL     1      32.608  -6.319 -24.289  0.00  0.00    +0.052 C 
ATOM      9  C   UNL     1      31.229  -5.919 -23.989  0.00  0.00    +0.250 C 
ATOM     10  C   UNL     1      34.460  -7.391 -23.185  0.00  0.00    -0.001 C 
ATOM     11  C   UNL     1      33.347  -6.053 -25.425  0.00  0.00    +0.004 C 
ATOM     12  C   UNL     1      35.228  -7.139 -24.327  0.00  0.00    -0.000 C 
ATOM     13  C   UNL     1      34.675  -6.478 -25.438  0.00  0.00    +0.000 C 
ENDROOT
BRANCH   4  14
ATOM     14  C   UNL     1      31.743  -8.614 -21.846  0.00  0.00    +0.007 C 
ATOM     15  C   UNL     1      31.760  -9.111 -20.541  0.00  0.00    -0.006 C 
ATOM     16  C   UNL     1      31.418  -9.462 -22.906  0.00  0.00    -0.002 C 
ATOM     17  C   UNL     1      31.452 -10.450 -20.297  0.00  0.00    -0.022 C 
ATOM     18  C   UNL     1      31.110 -10.800 -22.663  0.00  0.00    -0.001 C 
ATOM     19  C   UNL     1      31.127 -11.294 -21.359  0.00  0.00    -0.004 C 
ATOM     20  C   UNL     1      31.472 -10.978 -18.903  0.00  0.00    +0.031 C 
ENDBRANCH   4  14
TORSDOF 1
ENDMDL
MODEL 5
REMARK VINA RESULT:      -7.6      2.416      4.415
REMARK  Name = 444703
REMARK  1 active torsions:
REMARK  status: ('A' for Active; 'I' for Inactive)
REMARK    1  A    between atoms: C_4  and  C_14
REMARK                            x       y       z     vdW  Elec       q    Type
REMARK                         _______ _______ _______ _____ _____    ______ ____
ROOT
ATOM      1  S   UNL     1      35.023  -8.192 -23.442  0.00  0.00    -0.113 S 
ATOM      2  O   UNL     1      31.772 -11.488 -22.995  0.00  0.00    -0.270 OA
ATOM      3  N   UNL     1      32.822  -9.516 -23.757  0.00  0.00    -0.263 N 
ATOM      4  C   UNL     1      33.192  -8.205 -23.205  0.00  0.00    +0.138 C 
ATOM      5  C   UNL     1      32.749  -8.366 -21.774  0.00  0.00    +0.012 C 
ATOM      6  C   UNL     1      33.640  -9.982 -24.859  0.00  0.00    +0.107 C 
ATOM      7  C   UNL     1      35.076  -9.729 -24.428  0.00  0.00    +0.081 C 
ATOM      8  C   UNL     1      32.086  -9.588 -21.603  0.00  0.00    +0.052 C 
ATOM      9  C   UNL     1      32.156 -10.341 -22.860  0.00  0.00    +0.250 C 
ATOM     10  C   UNL     1      32.881  -7.503 -20.698  0.00  0.00    -0.001 C 
ATOM     11  C   UNL     1      31.548  -9.989 -20.396  0.00  0.00    +0.004 C 
ATOM     12  C   UNL     1      32.338  -7.883 -19.466  0.00  0.00    -0.000 C 
ATOM     13  C   UNL     1      31.676  -9.114 -19.317  0.00  0.00    +0.000 C 
ENDROOT
BRANCH   4  14
ATOM     14  C   UNL     1      32.496  -7.037 -23.908  0.00  0.00    +0.007 C 
ATOM     15  C   UNL     1      33.189  -6.274 -24.850  0.00  0.00    -0.006 C 
ATOM     16  C   UNL     1      31.167  -6.732 -23.610  0.00  0.00    -0.002 C 
ATOM     17  C   UNL     1      32.554  -5.210 -25.492  0.00  0.00    -0.022 C 
ATOM     18  C   UNL     1      30.532  -5.669 -24.252  0.00  0.00    -0.001 C 
ATOM     19  C   UNL     1      31.226  -4.907 -25.192  0.00  0.00    -0.004 C 
ATOM     20  C   UNL     1      33.296  -4.395 -26.495  0.00  0.00    +0.031 C 
ENDBRANCH   4  14
TORSDOF 1
ENDMDL
MODEL 6
REMARK VINA RESULT:      -7.6      3.482      5.645
REMARK  Name = 444703
REMARK  1 active torsions:
REMARK  status: ('A' for Active; 'I' for Inactive)
REMARK    1  A    between atoms: C_4  and  C_14
REMARK                            x       y       z     vdW  Elec       q    Type
REMARK                         _______ _______ _______ _____ _____    ______ ____
ROOT
ATOM      1  S   UNL     1      34.651 -13.973 -21.744  0.00  0.00    -0.113 S 
ATOM      2  O   UNL     1      30.593 -11.713 -21.496  0.00  0.00    -0.270 OA
ATOM      3  N   UNL     1      32.184 -13.320 -22.174  0.00  0.00    -0.263 N 
ATOM      4  C   UNL     1      33.419 -13.350 -22.970  0.00  0.00    +0.138 C 
ATOM      5  C   UNL     1      33.567 -11.891 -23.317  0.00  0.00    +0.012 C 
ATOM      6  C   UNL     1      32.074 -14.344 -21.155  0.00  0.00    +0.107 C 
ATOM      7  C   UNL     1      33.420 -14.355 -20.448  0.00  0.00    +0.081 C 
ATOM      8  C   UNL     1      32.455 -11.168 -22.868  0.00  0.00    +0.052 C 
ATOM      9  C   UNL     1      31.582 -12.071 -22.110  0.00  0.00    +0.250 C 
ATOM     10  C   UNL     1      34.579 -11.236 -24.001  0.00  0.00    -0.001 C 
ATOM     11  C   UNL     1      32.310  -9.810 -23.073  0.00  0.00    +0.004 C 
ATOM     12  C   UNL     1      34.451  -9.861 -24.227  0.00  0.00    -0.000 C 
ATOM     13  C   UNL     1      33.326  -9.155 -23.768  0.00  0.00    +0.000 C 
ENDROOT
BRANCH   4  14
ATOM     14  C   UNL     1      33.316 -14.241 -24.209  0.00  0.00    +0.007 C 
ATOM     15  C   UNL     1      33.880 -15.519 -24.203  0.00  0.00    -0.006 C 
ATOM     16  C   UNL     1      32.657 -13.780 -25.350  0.00  0.00    -0.002 C 
ATOM     17  C   UNL     1      33.785 -16.332 -25.333  0.00  0.00    -0.022 C 
ATOM     18  C   UNL     1      32.561 -14.593 -26.480  0.00  0.00    -0.001 C 
ATOM     19  C   UNL     1      33.125 -15.869 -26.471  0.00  0.00    -0.004 C 
ATOM     20  C   UNL     1      34.390 -17.694 -25.324  0.00  0.00    +0.031 C 
ENDBRANCH   4  14
TORSDOF 1
ENDMDL
MODEL 7
REMARK VINA RESULT:      -7.1      2.311      4.509
REMARK  Name = 444703
REMARK  1 active torsions:
REMARK  status: ('A' for Active; 'I' for Inactive)
REMARK    1  A    between atoms: C_4  and  C_14
REMARK                            x       y       z     vdW  Elec       q    Type
REMARK                         _______ _______ _______ _____ _____    ______ ____
ROOT
ATOM      1  S   UNL     1      34.199  -7.679 -21.556  0.00  0.00    -0.113 S 
ATOM      2  O   UNL     1      30.138  -6.343 -23.389  0.00  0.00    -0.270 OA
ATOM      3  N   UNL     1      31.891  -7.776 -22.722  0.00  0.00    -0.263 N 
ATOM      4  C   UNL     1      33.282  -8.041 -23.117  0.00  0.00    +0.138 C 
ATOM      5  C   UNL     1      33.467  -7.013 -24.203  0.00  0.00    +0.012 C 
ATOM      6  C   UNL     1      31.567  -8.073 -21.342  0.00  0.00    +0.107 C 
ATOM      7  C   UNL     1      32.704  -7.476 -20.526  0.00  0.00    +0.081 C 
ATOM      8  C   UNL     1      32.260  -6.352 -24.460  0.00  0.00    +0.052 C 
ATOM      9  C   UNL     1      31.255  -6.815 -23.496  0.00  0.00    +0.250 C 
ATOM     10  C   UNL     1      34.595  -6.690 -24.941  0.00  0.00    -0.001 C 
ATOM     11  C   UNL     1      32.129  -5.374 -25.428  0.00  0.00    +0.004 C 
ATOM     12  C   UNL     1      34.486  -5.707 -25.932  0.00  0.00    -0.000 C 
ATOM     13  C   UNL     1      33.264  -5.058 -26.174  0.00  0.00    +0.000 C 
ENDROOT
BRANCH   4  14
ATOM     14  C   UNL     1      33.506  -9.469 -23.617  0.00  0.00    +0.007 C 
ATOM     15  C   UNL     1      32.802 -10.531 -23.043  0.00  0.00    -0.006 C 
ATOM     16  C   UNL     1      34.413  -9.716 -24.649  0.00  0.00    -0.002 C 
ATOM     17  C   UNL     1      33.006 -11.833 -23.499  0.00  0.00    -0.022 C 
ATOM     18  C   UNL     1      34.616 -11.019 -25.105  0.00  0.00    -0.001 C 
ATOM     19  C   UNL     1      33.913 -12.077 -24.531  0.00  0.00    -0.004 C 
ATOM     20  C   UNL     1      32.255 -12.965 -22.884  0.00  0.00    +0.031 C 
ENDBRANCH   4  14
TORSDOF 1
ENDMDL
MODEL 8
REMARK VINA RESULT:      -7.1      2.219      4.587
REMARK  Name = 444703
REMARK  1 active torsions:
REMARK  status: ('A' for Active; 'I' for Inactive)
REMARK    1  A    between atoms: C_4  and  C_14
REMARK                            x       y       z     vdW  Elec       q    Type
REMARK                         _______ _______ _______ _____ _____    ______ ____
ROOT
ATOM      1  S   UNL     1      33.774  -7.183 -20.963  0.00  0.00    -0.113 S 
ATOM      2  O   UNL     1      30.380  -5.192 -23.444  0.00  0.00    -0.270 OA
ATOM      3  N   UNL     1      31.597  -6.880 -22.328  0.00  0.00    -0.263 N 
ATOM      4  C   UNL     1      32.864  -7.602 -22.514  0.00  0.00    +0.138 C 
ATOM      5  C   UNL     1      33.394  -6.927 -23.751  0.00  0.00    +0.012 C 
ATOM      6  C   UNL     1      31.137  -6.769 -20.959  0.00  0.00    +0.107 C 
ATOM      7  C   UNL     1      32.360  -6.352 -20.157  0.00  0.00    +0.081 C 
ATOM      8  C   UNL     1      32.450  -6.026 -24.259  0.00  0.00    +0.052 C 
ATOM      9  C   UNL     1      31.311  -5.970 -23.337  0.00  0.00    +0.250 C 
ATOM     10  C   UNL     1      34.600  -7.100 -24.413  0.00  0.00    -0.001 C 
ATOM     11  C   UNL     1      32.660  -5.285 -25.406  0.00  0.00    +0.004 C 
ATOM     12  C   UNL     1      34.833  -6.365 -25.581  0.00  0.00    -0.000 C 
ATOM     13  C   UNL     1      33.870  -5.467 -26.073  0.00  0.00    +0.000 C 
ENDROOT
BRANCH   4  14
ATOM     14  C   UNL     1      32.677  -9.109 -22.701  0.00  0.00    +0.007 C 
ATOM     15  C   UNL     1      33.388  -9.785 -23.695  0.00  0.00    -0.006 C 
ATOM     16  C   UNL     1      31.797  -9.813 -21.878  0.00  0.00    -0.002 C 
ATOM     17  C   UNL     1      33.219 -11.159 -23.865  0.00  0.00    -0.022 C 
ATOM     18  C   UNL     1      31.628 -11.188 -22.047  0.00  0.00    -0.001 C 
ATOM     19  C   UNL     1      32.338 -11.860 -23.041  0.00  0.00    -0.004 C 
ATOM     20  C   UNL     1      33.977 -11.878 -24.928  0.00  0.00    +0.031 C 
ENDBRANCH   4  14
TORSDOF 1
ENDMDL
