MODEL 1
REMARK VINA RESULT:      -6.1      0.000      0.000
REMARK  Name = 33166
REMARK  2 active torsions:
REMARK  status: ('A' for Active; 'I' for Inactive)
REMARK    1  A    between atoms: C_3  and  C_7
REMARK    2  A    between atoms: C_4  and  O_10
REMARK                            x       y       z     vdW  Elec       q    Type
REMARK                         _______ _______ _______ _____ _____    ______ ____
ROOT
ATOM      1  N   UNL     1      34.597 -19.365 -23.081  0.00  0.00    -0.242 NA
ATOM      2  N   UNL     1      35.136 -16.618 -22.906  0.00  0.00    -0.207 NA
ATOM      3  C   UNL     1      34.688 -18.713 -21.918  0.00  0.00    +0.112 C 
ATOM      4  C   UNL     1      34.949 -17.379 -21.809  0.00  0.00    +0.239 C 
ATOM      5  C   UNL     1      34.784 -18.603 -24.176  0.00  0.00    +0.119 C 
ATOM      6  C   UNL     1      35.048 -17.254 -24.091  0.00  0.00    +0.123 C 
ENDROOT
BRANCH   3   7
ATOM      7  C   UNL     1      34.483 -19.555 -20.672  0.00  0.00    +0.045 C 
ATOM      8  C   UNL     1      35.596 -20.593 -20.504  0.00  0.00    +0.006 C 
ATOM      9  C   UNL     1      33.107 -20.226 -20.667  0.00  0.00    +0.006 C 
ENDBRANCH   3   7
BRANCH   4  10
ATOM     10  O   UNL     1      35.034 -16.755 -20.596  0.00  0.00    -0.455 OA
ATOM     11  C   UNL     1      34.543 -15.419 -20.525  0.00  0.00    +0.254 C 
ENDBRANCH   4  10
TORSDOF 2
ENDMDL
MODEL 2
REMARK VINA RESULT:      -5.9      1.857      3.138
REMARK  Name = 33166
REMARK  2 active torsions:
REMARK  status: ('A' for Active; 'I' for Inactive)
REMARK    1  A    between atoms: C_3  and  C_7
REMARK    2  A    between atoms: C_4  and  O_10
REMARK                            x       y       z     vdW  Elec       q    Type
REMARK                         _______ _______ _______ _____ _____    ______ ____
ROOT
ATOM      1  N   UNL     1      34.783 -16.706 -20.554  0.00  0.00    -0.242 NA
ATOM      2  N   UNL     1      34.857 -15.418 -23.044  0.00  0.00    -0.207 NA
ATOM      3  C   UNL     1      34.998 -17.354 -21.703  0.00  0.00    +0.112 C 
ATOM      4  C   UNL     1      35.039 -16.748 -22.923  0.00  0.00    +0.239 C 
ATOM      5  C   UNL     1      34.602 -15.377 -20.675  0.00  0.00    +0.119 C 
ATOM      6  C   UNL     1      34.638 -14.743 -21.898  0.00  0.00    +0.123 C 
ENDROOT
BRANCH   3   7
ATOM      7  C   UNL     1      35.202 -18.853 -21.586  0.00  0.00    +0.045 C 
ATOM      8  C   UNL     1      34.006 -19.535 -20.917  0.00  0.00    +0.006 C 
ATOM      9  C   UNL     1      36.502 -19.189 -20.850  0.00  0.00    +0.006 C 
ENDBRANCH   3   7
BRANCH   4  10
ATOM     10  O   UNL     1      35.261 -17.453 -24.073  0.00  0.00    -0.455 OA
ATOM     11  C   UNL     1      34.568 -17.016 -25.239  0.00  0.00    +0.254 C 
ENDBRANCH   4  10
TORSDOF 2
ENDMDL
MODEL 3
REMARK VINA RESULT:      -5.8      3.858      5.603
REMARK  Name = 33166
REMARK  2 active torsions:
REMARK  status: ('A' for Active; 'I' for Inactive)
REMARK    1  A    between atoms: C_3  and  C_7
REMARK    2  A    between atoms: C_4  and  O_10
REMARK                            x       y       z     vdW  Elec       q    Type
REMARK                         _______ _______ _______ _____ _____    ______ ____
ROOT
ATOM      1  N   UNL     1      34.214 -15.472 -23.283  0.00  0.00    -0.242 NA
ATOM      2  N   UNL     1      33.971 -16.113 -26.003  0.00  0.00    -0.207 NA
ATOM      3  C   UNL     1      33.475 -14.757 -24.137  0.00  0.00    +0.112 C 
ATOM      4  C   UNL     1      33.343 -15.051 -25.461  0.00  0.00    +0.239 C 
ATOM      5  C   UNL     1      34.842 -16.534 -23.825  0.00  0.00    +0.119 C 
ATOM      6  C   UNL     1      34.723 -16.849 -25.160  0.00  0.00    +0.123 C 
ENDROOT
BRANCH   3   7
ATOM      7  C   UNL     1      32.763 -13.555 -23.545  0.00  0.00    +0.045 C 
ATOM      8  C   UNL     1      33.591 -12.277 -23.696  0.00  0.00    +0.006 C 
ATOM      9  C   UNL     1      32.385 -13.790 -22.080  0.00  0.00    +0.006 C 
ENDBRANCH   3   7
BRANCH   4  10
ATOM     10  O   UNL     1      32.576 -14.289 -26.298  0.00  0.00    -0.455 OA
ATOM     11  C   UNL     1      33.267 -13.459 -27.227  0.00  0.00    +0.254 C 
ENDBRANCH   4  10
TORSDOF 2
ENDMDL
MODEL 4
REMARK VINA RESULT:      -5.6      8.361     10.346
REMARK  Name = 33166
REMARK  2 active torsions:
REMARK  status: ('A' for Active; 'I' for Inactive)
REMARK    1  A    between atoms: C_3  and  C_7
REMARK    2  A    between atoms: C_4  and  O_10
REMARK                            x       y       z     vdW  Elec       q    Type
REMARK                         _______ _______ _______ _____ _____    ______ ____
ROOT
ATOM      1  N   UNL     1      36.278 -25.339 -15.555  0.00  0.00    -0.242 NA
ATOM      2  N   UNL     1      37.811 -25.457 -13.209  0.00  0.00    -0.207 NA
ATOM      3  C   UNL     1      36.659 -24.252 -14.878  0.00  0.00    +0.112 C 
ATOM      4  C   UNL     1      37.404 -24.286 -13.737  0.00  0.00    +0.239 C 
ATOM      5  C   UNL     1      36.684 -26.510 -15.026  0.00  0.00    +0.119 C 
ATOM      6  C   UNL     1      37.438 -26.568 -13.874  0.00  0.00    +0.123 C 
ENDROOT
BRANCH   3   7
ATOM      7  C   UNL     1      36.208 -22.924 -15.457  0.00  0.00    +0.045 C 
ATOM      8  C   UNL     1      34.838 -23.038 -16.131  0.00  0.00    +0.006 C 
ATOM      9  C   UNL     1      37.245 -22.350 -16.426  0.00  0.00    +0.006 C 
ENDBRANCH   3   7
BRANCH   4  10
ATOM     10  O   UNL     1      37.771 -23.146 -13.078  0.00  0.00    -0.455 OA
ATOM     11  C   UNL     1      37.271 -22.979 -11.754  0.00  0.00    +0.254 C 
ENDBRANCH   4  10
TORSDOF 2
ENDMDL
MODEL 5
REMARK VINA RESULT:      -5.5      1.749      3.695
REMARK  Name = 33166
REMARK  2 active torsions:
REMARK  status: ('A' for Active; 'I' for Inactive)
REMARK    1  A    between atoms: C_3  and  C_7
REMARK    2  A    between atoms: C_4  and  O_10
REMARK                            x       y       z     vdW  Elec       q    Type
REMARK                         _______ _______ _______ _____ _____    ______ ____
ROOT
ATOM      1  N   UNL     1      34.051 -15.873 -22.943  0.00  0.00    -0.242 NA
ATOM      2  N   UNL     1      35.183 -16.723 -20.521  0.00  0.00    -0.207 NA
ATOM      3  C   UNL     1      34.858 -16.934 -22.848  0.00  0.00    +0.112 C 
ATOM      4  C   UNL     1      35.418 -17.365 -21.683  0.00  0.00    +0.239 C 
ATOM      5  C   UNL     1      33.816 -15.232 -21.781  0.00  0.00    +0.119 C 
ATOM      6  C   UNL     1      34.372 -15.649 -20.592  0.00  0.00    +0.123 C 
ENDROOT
BRANCH   3   7
ATOM      7  C   UNL     1      35.136 -17.668 -24.147  0.00  0.00    +0.045 C 
ATOM      8  C   UNL     1      34.745 -16.828 -25.365  0.00  0.00    +0.006 C 
ATOM      9  C   UNL     1      34.444 -19.033 -24.182  0.00  0.00    +0.006 C 
ENDBRANCH   3   7
BRANCH   4  10
ATOM     10  O   UNL     1      36.239 -18.457 -21.635  0.00  0.00    -0.455 OA
ATOM     11  C   UNL     1      35.806 -19.552 -20.833  0.00  0.00    +0.254 C 
ENDBRANCH   4  10
TORSDOF 2
ENDMDL
MODEL 6
REMARK VINA RESULT:      -5.5      2.828      4.065
REMARK  Name = 33166
REMARK  2 active torsions:
REMARK  status: ('A' for Active; 'I' for Inactive)
REMARK    1  A    between atoms: C_3  and  C_7
REMARK    2  A    between atoms: C_4  and  O_10
REMARK                            x       y       z     vdW  Elec       q    Type
REMARK                         _______ _______ _______ _____ _____    ______ ____
ROOT
ATOM      1  N   UNL     1      34.683 -17.166 -22.795  0.00  0.00    -0.242 NA
ATOM      2  N   UNL     1      34.134 -16.595 -25.486  0.00  0.00    -0.207 NA
ATOM      3  C   UNL     1      34.220 -15.983 -23.209  0.00  0.00    +0.112 C 
ATOM      4  C   UNL     1      33.946 -15.684 -24.511  0.00  0.00    +0.239 C 
ATOM      5  C   UNL     1      34.871 -18.076 -23.770  0.00  0.00    +0.119 C 
ATOM      6  C   UNL     1      34.601 -17.797 -25.092  0.00  0.00    +0.123 C 
ENDROOT
BRANCH   3   7
ATOM      7  C   UNL     1      34.004 -14.943 -22.125  0.00  0.00    +0.045 C 
ATOM      8  C   UNL     1      34.691 -15.342 -20.816  0.00  0.00    +0.006 C 
ATOM      9  C   UNL     1      32.515 -14.668 -21.897  0.00  0.00    +0.006 C 
ENDBRANCH   3   7
BRANCH   4  10
ATOM     10  O   UNL     1      33.474 -14.458 -24.888  0.00  0.00    -0.455 OA
ATOM     11  C   UNL     1      32.817 -14.382 -26.150  0.00  0.00    +0.254 C 
ENDBRANCH   4  10
TORSDOF 2
ENDMDL
MODEL 7
REMARK VINA RESULT:      -5.5      2.644      4.154
REMARK  Name = 33166
REMARK  2 active torsions:
REMARK  status: ('A' for Active; 'I' for Inactive)
REMARK    1  A    between atoms: C_3  and  C_7
REMARK    2  A    between atoms: C_4  and  O_10
REMARK                            x       y       z     vdW  Elec       q    Type
REMARK                         _______ _______ _______ _____ _____    ______ ____
ROOT
ATOM      1  N   UNL     1      33.495 -14.649 -23.679  0.00  0.00    -0.242 NA
ATOM      2  N   UNL     1      34.110 -16.406 -25.777  0.00  0.00    -0.207 NA
ATOM      3  C   UNL     1      34.218 -15.760 -23.510  0.00  0.00    +0.112 C 
ATOM      4  C   UNL     1      34.528 -16.628 -24.515  0.00  0.00    +0.239 C 
ATOM      5  C   UNL     1      33.077 -14.428 -24.940  0.00  0.00    +0.119 C 
ATOM      6  C   UNL     1      33.379 -15.291 -25.971  0.00  0.00    +0.123 C 
ENDROOT
BRANCH   3   7
ATOM      7  C   UNL     1      34.695 -16.027 -22.095  0.00  0.00    +0.045 C 
ATOM      8  C   UNL     1      33.931 -17.187 -21.451  0.00  0.00    +0.006 C 
ATOM      9  C   UNL     1      34.610 -14.769 -21.226  0.00  0.00    +0.006 C 
ENDBRANCH   3   7
BRANCH   4  10
ATOM     10  O   UNL     1      35.270 -17.754 -24.294  0.00  0.00    -0.455 OA
ATOM     11  C   UNL     1      34.637 -19.003 -24.558  0.00  0.00    +0.254 C 
ENDBRANCH   4  10
TORSDOF 2
ENDMDL
MODEL 8
REMARK VINA RESULT:      -5.4      2.957      5.042
REMARK  Name = 33166
REMARK  2 active torsions:
REMARK  status: ('A' for Active; 'I' for Inactive)
REMARK    1  A    between atoms: C_3  and  C_7
REMARK    2  A    between atoms: C_4  and  O_10
REMARK                            x       y       z     vdW  Elec       q    Type
REMARK                         _______ _______ _______ _____ _____    ______ ____
ROOT
ATOM      1  N   UNL     1      33.341 -14.599 -25.167  0.00  0.00    -0.242 NA
ATOM      2  N   UNL     1      34.828 -16.609 -23.896  0.00  0.00    -0.207 NA
ATOM      3  C   UNL     1      33.859 -14.458 -23.943  0.00  0.00    +0.112 C 
ATOM      4  C   UNL     1      34.586 -15.421 -23.307  0.00  0.00    +0.239 C 
ATOM      5  C   UNL     1      33.584 -15.787 -25.755  0.00  0.00    +0.119 C 
ATOM      6  C   UNL     1      34.315 -16.774 -25.131  0.00  0.00    +0.123 C 
ENDROOT
BRANCH   3   7
ATOM      7  C   UNL     1      33.593 -13.128 -23.264  0.00  0.00    +0.045 C 
ATOM      8  C   UNL     1      32.234 -13.115 -22.561  0.00  0.00    +0.006 C 
ATOM      9  C   UNL     1      33.708 -11.961 -24.248  0.00  0.00    +0.006 C 
ENDBRANCH   3   7
BRANCH   4  10
ATOM     10  O   UNL     1      35.096 -15.232 -22.054  0.00  0.00    -0.455 OA
ATOM     11  C   UNL     1      34.723 -16.180 -21.057  0.00  0.00    +0.254 C 
ENDBRANCH   4  10
TORSDOF 2
ENDMDL
MODEL 9
REMARK VINA RESULT:      -5.4      5.376      7.286
REMARK  Name = 33166
REMARK  2 active torsions:
REMARK  status: ('A' for Active; 'I' for Inactive)
REMARK    1  A    between atoms: C_3  and  C_7
REMARK    2  A    between atoms: C_4  and  O_10
REMARK                            x       y       z     vdW  Elec       q    Type
REMARK                         _______ _______ _______ _____ _____    ______ ____
ROOT
ATOM      1  N   UNL     1      33.675 -12.148 -26.410  0.00  0.00    -0.242 NA
ATOM      2  N   UNL     1      33.058 -14.457 -24.942  0.00  0.00    -0.207 NA
ATOM      3  C   UNL     1      33.797 -12.221 -25.081  0.00  0.00    +0.112 C 
ATOM      4  C   UNL     1      33.503 -13.332 -24.348  0.00  0.00    +0.239 C 
ATOM      5  C   UNL     1      33.229 -13.273 -27.003  0.00  0.00    +0.119 C 
ATOM      6  C   UNL     1      32.926 -14.408 -26.282  0.00  0.00    +0.123 C 
ENDROOT
BRANCH   3   7
ATOM      7  C   UNL     1      34.295 -10.962 -24.396  0.00  0.00    +0.045 C 
ATOM      8  C   UNL     1      33.136 -10.085 -23.915  0.00  0.00    +0.006 C 
ATOM      9  C   UNL     1      35.242 -10.166 -25.299  0.00  0.00    +0.006 C 
ENDBRANCH   3   7
BRANCH   4  10
ATOM     10  O   UNL     1      33.643 -13.359 -22.989  0.00  0.00    -0.455 OA
ATOM     11  C   UNL     1      32.464 -13.600 -22.226  0.00  0.00    +0.254 C 
ENDBRANCH   4  10
TORSDOF 2
ENDMDL
