MODEL 1
REMARK VINA RESULT:      -6.7      0.000      0.000
REMARK  Name = 10070040
REMARK  8 active torsions:
REMARK  status: ('A' for Active; 'I' for Inactive)
REMARK    1  A    between atoms: N_1  and  C_24
REMARK    2  A    between atoms: C_2  and  N_10
REMARK    3  A    between atoms: C_2  and  C_21
REMARK    4  A    between atoms: N_10  and  C_12
REMARK    5  A    between atoms: C_11  and  C_18
REMARK    6  A    between atoms: C_21  and  O_22
REMARK    7  A    between atoms: C_24  and  C_25
REMARK    8  A    between atoms: C_25  and  C_26
REMARK                            x       y       z     vdW  Elec       q    Type
REMARK                         _______ _______ _______ _____ _____    ______ ____
ROOT
ATOM      1  N   UNL     1      36.314 -21.975 -17.301  0.00  0.00    +0.387 N 
ATOM      2  C   UNL     1      35.544 -23.857 -15.179  0.00  0.00    +0.149 C 
ATOM      3  C   UNL     1      36.854 -23.037 -15.106  0.00  0.00    +0.007 C 
ATOM      4  C   UNL     1      34.514 -23.190 -16.098  0.00  0.00    +0.007 C 
ATOM      5  C   UNL     1      37.343 -22.684 -16.527  0.00  0.00    -0.075 C 
ATOM      6  C   UNL     1      35.110 -22.801 -17.455  0.00  0.00    -0.075 C 
ATOM      7  C   UNL     1      36.710 -21.759 -14.262  0.00  0.00    +0.000 C 
ATOM      8  H   UNL     1      36.058 -21.132 -16.786  0.00  0.00    -0.080 HD
ENDROOT
BRANCH   2  10
ATOM      9  O   UNL     1      37.015 -24.470 -12.707  0.00  0.00    -0.275 OA
ATOM     10  N   UNL     1      34.983 -24.114 -13.872  0.00  0.00    -0.252 N 
ATOM     11  C   UNL     1      35.782 -24.403 -12.728  0.00  0.00    +0.230 C 
BRANCH  10  12
ATOM     12  C   UNL     1      33.532 -24.075 -13.717  0.00  0.00    +0.054 C 
ATOM     13  C   UNL     1      32.788 -25.251 -13.813  0.00  0.00    +0.015 C 
ATOM     14  C   UNL     1      32.890 -22.861 -13.471  0.00  0.00    +0.015 C 
ATOM     15  C   UNL     1      31.402 -25.213 -13.665  0.00  0.00    +0.001 C 
ATOM     16  C   UNL     1      31.504 -22.823 -13.322  0.00  0.00    +0.001 C 
ATOM     17  C   UNL     1      30.759 -24.000 -13.419  0.00  0.00    +0.000 C 
ENDBRANCH  10  12
BRANCH  11  18
ATOM     18  C   UNL     1      34.999 -24.692 -11.450  0.00  0.00    +0.086 C 
ATOM     19  C   UNL     1      35.765 -24.313 -10.191  0.00  0.00    +0.010 C 
ENDBRANCH  11  18
ENDBRANCH   2  10
BRANCH   2  21
ATOM     20  O   UNL     1      34.989 -25.999 -16.145  0.00  0.00    -0.248 OA
ATOM     21  C   UNL     1      35.827 -25.262 -15.644  0.00  0.00    +0.333 C 
BRANCH  21  22
ATOM     22  O   UNL     1      37.138 -25.561 -15.418  0.00  0.00    -0.443 OA
ATOM     23  C   UNL     1      37.399 -26.907 -15.005  0.00  0.00    +0.256 C 
ENDBRANCH  21  22
ENDBRANCH   2  21
BRANCH   1  24
ATOM     24  C   UNL     1      36.836 -21.582 -18.609  0.00  0.00    -0.073 C 
BRANCH  24  25
ATOM     25  C   UNL     1      35.809 -21.846 -19.711  0.00  0.00    +0.004 C 
BRANCH  25  26
ATOM     26  C   UNL     1      35.287 -20.560 -20.302  0.00  0.00    -0.024 C 
ATOM     27  C   UNL     1      33.913 -20.363 -20.439  0.00  0.00    -0.004 C 
ATOM     28  C   UNL     1      36.178 -19.569 -20.710  0.00  0.00    -0.004 C 
ATOM     29  C   UNL     1      33.431 -19.174 -20.986  0.00  0.00    -0.000 C 
ATOM     30  C   UNL     1      35.696 -18.380 -21.257  0.00  0.00    -0.000 C 
ATOM     31  C   UNL     1      34.322 -18.182 -21.394  0.00  0.00    -0.000 C 
ENDBRANCH  25  26
ENDBRANCH  24  25
ENDBRANCH   1  24
TORSDOF 8
ENDMDL
MODEL 2
REMARK VINA RESULT:      -6.6      7.649     13.393
REMARK  Name = 10070040
REMARK  8 active torsions:
REMARK  status: ('A' for Active; 'I' for Inactive)
REMARK    1  A    between atoms: N_1  and  C_24
REMARK    2  A    between atoms: C_2  and  N_10
REMARK    3  A    between atoms: C_2  and  C_21
REMARK    4  A    between atoms: N_10  and  C_12
REMARK    5  A    between atoms: C_11  and  C_18
REMARK    6  A    between atoms: C_21  and  O_22
REMARK    7  A    between atoms: C_24  and  C_25
REMARK    8  A    between atoms: C_25  and  C_26
REMARK                            x       y       z     vdW  Elec       q    Type
REMARK                         _______ _______ _______ _____ _____    ______ ____
ROOT
ATOM      1  N   UNL     1      34.182 -15.298 -20.970  0.00  0.00    +0.387 N 
ATOM      2  C   UNL     1      33.089 -13.315 -22.844  0.00  0.00    +0.149 C 
ATOM      3  C   UNL     1      32.323 -13.742 -21.570  0.00  0.00    +0.007 C 
ATOM      4  C   UNL     1      34.595 -13.573 -22.708  0.00  0.00    +0.007 C 
ATOM      5  C   UNL     1      32.729 -15.173 -21.157  0.00  0.00    -0.075 C 
ATOM      6  C   UNL     1      34.900 -14.992 -22.215  0.00  0.00    -0.075 C 
ATOM      7  C   UNL     1      32.534 -12.770 -20.396  0.00  0.00    +0.000 C 
ATOM      8  H   UNL     1      34.469 -14.622 -20.263  0.00  0.00    -0.080 HD
ENDROOT
BRANCH   2  10
ATOM      9  O   UNL     1      30.855 -11.632 -21.937  0.00  0.00    -0.275 OA
ATOM     10  N   UNL     1      32.831 -11.940 -23.207  0.00  0.00    -0.252 N 
ATOM     11  C   UNL     1      31.715 -11.204 -22.712  0.00  0.00    +0.230 C 
BRANCH  10  12
ATOM     12  C   UNL     1      33.755 -11.275 -24.121  0.00  0.00    +0.054 C 
ATOM     13  C   UNL     1      33.959 -11.787 -25.402  0.00  0.00    +0.015 C 
ATOM     14  C   UNL     1      34.433 -10.126 -23.713  0.00  0.00    +0.015 C 
ATOM     15  C   UNL     1      34.842 -11.152 -26.275  0.00  0.00    +0.001 C 
ATOM     16  C   UNL     1      35.315  -9.490 -24.586  0.00  0.00    +0.001 C 
ATOM     17  C   UNL     1      35.520 -10.003 -25.867  0.00  0.00    +0.000 C 
ENDBRANCH  10  12
BRANCH  11  18
ATOM     18  C   UNL     1      31.591  -9.781 -23.250  0.00  0.00    +0.086 C 
ATOM     19  C   UNL     1      31.601  -8.731 -22.148  0.00  0.00    +0.010 C 
ENDBRANCH  11  18
ENDBRANCH   2  10
BRANCH   2  21
ATOM     20  O   UNL     1      31.487 -13.746 -24.599  0.00  0.00    -0.248 OA
ATOM     21  C   UNL     1      32.544 -14.031 -24.053  0.00  0.00    +0.333 C 
BRANCH  21  22
ATOM     22  O   UNL     1      33.405 -15.022 -24.421  0.00  0.00    -0.443 OA
ATOM     23  C   UNL     1      33.358 -15.395 -25.803  0.00  0.00    +0.256 C 
ENDBRANCH  21  22
ENDBRANCH   2  21
BRANCH   1  24
ATOM     24  C   UNL     1      34.525 -16.640 -20.499  0.00  0.00    -0.073 C 
BRANCH  24  25
ATOM     25  C   UNL     1      34.118 -17.701 -21.522  0.00  0.00    +0.004 C 
BRANCH  25  26
ATOM     26  C   UNL     1      34.149 -19.086 -20.925  0.00  0.00    -0.024 C 
ATOM     27  C   UNL     1      35.369 -19.733 -20.727  0.00  0.00    -0.004 C 
ATOM     28  C   UNL     1      32.958 -19.718 -20.569  0.00  0.00    -0.004 C 
ATOM     29  C   UNL     1      35.398 -21.013 -20.175  0.00  0.00    -0.000 C 
ATOM     30  C   UNL     1      32.987 -20.999 -20.017  0.00  0.00    -0.000 C 
ATOM     31  C   UNL     1      34.207 -21.647 -19.820  0.00  0.00    -0.000 C 
ENDBRANCH  25  26
ENDBRANCH  24  25
ENDBRANCH   1  24
TORSDOF 8
ENDMDL
MODEL 3
REMARK VINA RESULT:      -6.5     11.977     17.497
REMARK  Name = 10070040
REMARK  8 active torsions:
REMARK  status: ('A' for Active; 'I' for Inactive)
REMARK    1  A    between atoms: N_1  and  C_24
REMARK    2  A    between atoms: C_2  and  N_10
REMARK    3  A    between atoms: C_2  and  C_21
REMARK    4  A    between atoms: N_10  and  C_12
REMARK    5  A    between atoms: C_11  and  C_18
REMARK    6  A    between atoms: C_21  and  O_22
REMARK    7  A    between atoms: C_24  and  C_25
REMARK    8  A    between atoms: C_25  and  C_26
REMARK                            x       y       z     vdW  Elec       q    Type
REMARK                         _______ _______ _______ _____ _____    ______ ____
ROOT
ATOM      1  N   UNL     1      31.434 -10.346 -21.804  0.00  0.00    +0.387 N 
ATOM      2  C   UNL     1      32.597  -7.854 -22.843  0.00  0.00    +0.149 C 
ATOM      3  C   UNL     1      31.638  -8.723 -23.691  0.00  0.00    +0.007 C 
ATOM      4  C   UNL     1      32.406  -8.108 -21.342  0.00  0.00    +0.007 C 
ATOM      5  C   UNL     1      31.713 -10.197 -23.240  0.00  0.00    -0.075 C 
ATOM      6  C   UNL     1      32.412  -9.602 -20.999  0.00  0.00    -0.075 C 
ATOM      7  C   UNL     1      30.183  -8.225 -23.641  0.00  0.00    +0.000 C 
ATOM      8  H   UNL     1      30.509  -9.957 -21.620  0.00  0.00    -0.080 HD
ENDROOT
BRANCH   2  10
ATOM      9  O   UNL     1      31.629  -5.727 -21.058  0.00  0.00    -0.275 OA
ATOM     10  N   UNL     1      32.480  -6.447 -23.148  0.00  0.00    -0.252 N 
ATOM     11  C   UNL     1      31.997  -5.487 -22.212  0.00  0.00    +0.230 C 
BRANCH  10  12
ATOM     12  C   UNL     1      32.876  -5.987 -24.476  0.00  0.00    +0.054 C 
ATOM     13  C   UNL     1      31.934  -5.401 -25.321  0.00  0.00    +0.015 C 
ATOM     14  C   UNL     1      34.197  -6.133 -24.900  0.00  0.00    +0.015 C 
ATOM     15  C   UNL     1      32.312  -4.961 -26.589  0.00  0.00    +0.001 C 
ATOM     16  C   UNL     1      34.576  -5.693 -26.168  0.00  0.00    +0.001 C 
ATOM     17  C   UNL     1      33.633  -5.108 -27.013  0.00  0.00    +0.000 C 
ENDBRANCH  10  12
BRANCH  11  18
ATOM     18  C   UNL     1      31.905  -4.058 -22.741  0.00  0.00    +0.086 C 
ATOM     19  C   UNL     1      30.539  -3.430 -22.508  0.00  0.00    +0.010 C 
ENDBRANCH  11  18
ENDBRANCH   2  10
BRANCH   2  21
ATOM     20  O   UNL     1      34.994  -7.621 -22.666  0.00  0.00    -0.248 OA
ATOM     21  C   UNL     1      34.029  -8.110 -23.237  0.00  0.00    +0.333 C 
BRANCH  21  22
ATOM     22  O   UNL     1      34.062  -8.953 -24.308  0.00  0.00    -0.443 OA
ATOM     23  C   UNL     1      35.270  -9.708 -24.458  0.00  0.00    +0.256 C 
ENDBRANCH  21  22
ENDBRANCH   2  21
BRANCH   1  24
ATOM     24  C   UNL     1      31.429 -11.758 -21.426  0.00  0.00    -0.073 C 
BRANCH  24  25
ATOM     25  C   UNL     1      31.873 -12.641 -22.593  0.00  0.00    +0.004 C 
BRANCH  25  26
ATOM     26  C   UNL     1      32.826 -13.719 -22.141  0.00  0.00    -0.024 C 
ATOM     27  C   UNL     1      32.790 -14.172 -20.822  0.00  0.00    -0.004 C 
ATOM     28  C   UNL     1      33.740 -14.264 -23.041  0.00  0.00    -0.004 C 
ATOM     29  C   UNL     1      33.671 -15.170 -20.404  0.00  0.00    -0.000 C 
ATOM     30  C   UNL     1      34.621 -15.261 -22.623  0.00  0.00    -0.000 C 
ATOM     31  C   UNL     1      34.586 -15.715 -21.304  0.00  0.00    -0.000 C 
ENDBRANCH  25  26
ENDBRANCH  24  25
ENDBRANCH   1  24
TORSDOF 8
ENDMDL
MODEL 4
REMARK VINA RESULT:      -6.2     13.465     18.384
REMARK  Name = 10070040
REMARK  8 active torsions:
REMARK  status: ('A' for Active; 'I' for Inactive)
REMARK    1  A    between atoms: N_1  and  C_24
REMARK    2  A    between atoms: C_2  and  N_10
REMARK    3  A    between atoms: C_2  and  C_21
REMARK    4  A    between atoms: N_10  and  C_12
REMARK    5  A    between atoms: C_11  and  C_18
REMARK    6  A    between atoms: C_21  and  O_22
REMARK    7  A    between atoms: C_24  and  C_25
REMARK    8  A    between atoms: C_25  and  C_26
REMARK                            x       y       z     vdW  Elec       q    Type
REMARK                         _______ _______ _______ _____ _____    ______ ____
ROOT
ATOM      1  N   UNL     1      31.697  -5.467 -24.754  0.00  0.00    +0.387 N 
ATOM      2  C   UNL     1      32.593  -7.872 -23.320  0.00  0.00    +0.149 C 
ATOM      3  C   UNL     1      31.113  -7.420 -23.309  0.00  0.00    +0.007 C 
ATOM      4  C   UNL     1      33.343  -7.314 -24.536  0.00  0.00    +0.007 C 
ATOM      5  C   UNL     1      31.020  -5.893 -23.520  0.00  0.00    -0.075 C 
ATOM      6  C   UNL     1      33.125  -5.808 -24.713  0.00  0.00    -0.075 C 
ATOM      7  C   UNL     1      30.259  -8.154 -24.358  0.00  0.00    +0.000 C 
ATOM      8  H   UNL     1      31.273  -5.968 -25.535  0.00  0.00    -0.080 HD
ENDROOT
BRANCH   2  10
ATOM      9  O   UNL     1      31.377  -9.662 -21.328  0.00  0.00    -0.275 OA
ATOM     10  N   UNL     1      32.729  -9.308 -23.241  0.00  0.00    -0.252 N 
ATOM     11  C   UNL     1      32.098 -10.094 -22.233  0.00  0.00    +0.230 C 
BRANCH  10  12
ATOM     12  C   UNL     1      33.550  -9.986 -24.240  0.00  0.00    +0.054 C 
ATOM     13  C   UNL     1      33.024 -11.053 -24.969  0.00  0.00    +0.015 C 
ATOM     14  C   UNL     1      34.861  -9.566 -24.467  0.00  0.00    +0.015 C 
ATOM     15  C   UNL     1      33.808 -11.700 -25.924  0.00  0.00    +0.001 C 
ATOM     16  C   UNL     1      35.645 -10.212 -25.422  0.00  0.00    +0.001 C 
ATOM     17  C   UNL     1      35.119 -11.280 -26.150  0.00  0.00    +0.000 C 
ENDBRANCH  10  12
BRANCH  11  18
ATOM     18  C   UNL     1      32.403 -11.588 -22.294  0.00  0.00    +0.086 C 
ATOM     19  C   UNL     1      31.858 -12.350 -21.094  0.00  0.00    +0.010 C 
ENDBRANCH  11  18
ENDBRANCH   2  10
BRANCH   2  21
ATOM     20  O   UNL     1      34.450  -7.705 -21.785  0.00  0.00    -0.248 OA
ATOM     21  C   UNL     1      33.281  -7.455 -22.046  0.00  0.00    +0.333 C 
BRANCH  21  22
ATOM     22  O   UNL     1      32.403  -6.771 -21.258  0.00  0.00    -0.443 OA
ATOM     23  C   UNL     1      32.570  -6.956 -19.848  0.00  0.00    +0.256 C 
ENDBRANCH  21  22
ENDBRANCH   2  21
BRANCH   1  24
ATOM     24  C   UNL     1      31.519  -4.032 -24.968  0.00  0.00    -0.073 C 
BRANCH  24  25
ATOM     25  C   UNL     1      32.660  -3.457 -25.809  0.00  0.00    +0.004 C 
BRANCH  25  26
ATOM     26  C   UNL     1      32.328  -3.476 -27.280  0.00  0.00    -0.024 C 
ATOM     27  C   UNL     1      31.449  -2.530 -27.808  0.00  0.00    -0.004 C 
ATOM     28  C   UNL     1      32.899  -4.439 -28.111  0.00  0.00    -0.004 C 
ATOM     29  C   UNL     1      31.142  -2.549 -29.169  0.00  0.00    -0.000 C 
ATOM     30  C   UNL     1      32.592  -4.457 -29.471  0.00  0.00    -0.000 C 
ATOM     31  C   UNL     1      31.713  -3.511 -30.000  0.00  0.00    -0.000 C 
ENDBRANCH  25  26
ENDBRANCH  24  25
ENDBRANCH   1  24
TORSDOF 8
ENDMDL
MODEL 5
REMARK VINA RESULT:      -5.9      7.347     12.526
REMARK  Name = 10070040
REMARK  8 active torsions:
REMARK  status: ('A' for Active; 'I' for Inactive)
REMARK    1  A    between atoms: N_1  and  C_24
REMARK    2  A    between atoms: C_2  and  N_10
REMARK    3  A    between atoms: C_2  and  C_21
REMARK    4  A    between atoms: N_10  and  C_12
REMARK    5  A    between atoms: C_11  and  C_18
REMARK    6  A    between atoms: C_21  and  O_22
REMARK    7  A    between atoms: C_24  and  C_25
REMARK    8  A    between atoms: C_25  and  C_26
REMARK                            x       y       z     vdW  Elec       q    Type
REMARK                         _______ _______ _______ _____ _____    ______ ____
ROOT
ATOM      1  N   UNL     1      34.401 -16.267 -21.722  0.00  0.00    +0.387 N 
ATOM      2  C   UNL     1      33.232 -13.830 -22.877  0.00  0.00    +0.149 C 
ATOM      3  C   UNL     1      32.562 -14.577 -21.699  0.00  0.00    +0.007 C 
ATOM      4  C   UNL     1      34.732 -14.139 -22.959  0.00  0.00    +0.007 C 
ATOM      5  C   UNL     1      32.944 -16.073 -21.729  0.00  0.00    -0.075 C 
ATOM      6  C   UNL     1      35.020 -15.643 -22.899  0.00  0.00    -0.075 C 
ATOM      7  C   UNL     1      32.913 -13.966 -20.331  0.00  0.00    +0.000 C 
ATOM      8  H   UNL     1      34.776 -15.814 -20.889  0.00  0.00    -0.080 HD
ENDROOT
BRANCH   2  10
ATOM      9  O   UNL     1      34.223 -11.805 -24.766  0.00  0.00    -0.275 OA
ATOM     10  N   UNL     1      32.999 -12.405 -22.828  0.00  0.00    -0.252 N 
ATOM     11  C   UNL     1      33.524 -11.499 -23.795  0.00  0.00    +0.230 C 
BRANCH  10  12
ATOM     12  C   UNL     1      32.187 -11.868 -21.739  0.00  0.00    +0.054 C 
ATOM     13  C   UNL     1      32.800 -11.417 -20.570  0.00  0.00    +0.015 C 
ATOM     14  C   UNL     1      30.800 -11.805 -21.869  0.00  0.00    +0.015 C 
ATOM     15  C   UNL     1      32.025 -10.905 -19.530  0.00  0.00    +0.001 C 
ATOM     16  C   UNL     1      30.025 -11.292 -20.829  0.00  0.00    +0.001 C 
ATOM     17  C   UNL     1      30.637 -10.842 -19.659  0.00  0.00    +0.000 C 
ENDBRANCH  10  12
BRANCH  11  18
ATOM     18  C   UNL     1      33.205 -10.028 -23.542  0.00  0.00    +0.086 C 
ATOM     19  C   UNL     1      34.397  -9.115 -23.790  0.00  0.00    +0.010 C 
ENDBRANCH  11  18
ENDBRANCH   2  10
BRANCH   2  21
ATOM     20  O   UNL     1      31.441 -13.789 -24.496  0.00  0.00    -0.248 OA
ATOM     21  C   UNL     1      32.555 -14.180 -24.177  0.00  0.00    +0.333 C 
BRANCH  21  22
ATOM     22  O   UNL     1      33.373 -14.984 -24.914  0.00  0.00    -0.443 OA
ATOM     23  C   UNL     1      33.226 -14.874 -26.334  0.00  0.00    +0.256 C 
ENDBRANCH  21  22
ENDBRANCH   2  21
BRANCH   1  24
ATOM     24  C   UNL     1      34.729 -17.691 -21.666  0.00  0.00    -0.073 C 
BRANCH  24  25
ATOM     25  C   UNL     1      33.537 -18.509 -21.170  0.00  0.00    +0.004 C 
BRANCH  25  26
ATOM     26  C   UNL     1      33.980 -19.802 -20.531  0.00  0.00    -0.024 C 
ATOM     27  C   UNL     1      33.039 -20.647 -19.943  0.00  0.00    -0.004 C 
ATOM     28  C   UNL     1      35.330 -20.152 -20.531  0.00  0.00    -0.004 C 
ATOM     29  C   UNL     1      33.449 -21.842 -19.352  0.00  0.00    -0.000 C 
ATOM     30  C   UNL     1      35.740 -21.347 -19.941  0.00  0.00    -0.000 C 
ATOM     31  C   UNL     1      34.799 -22.193 -19.352  0.00  0.00    -0.000 C 
ENDBRANCH  25  26
ENDBRANCH  24  25
ENDBRANCH   1  24
TORSDOF 8
ENDMDL
MODEL 6
REMARK VINA RESULT:      -5.8      3.039      5.898
REMARK  Name = 10070040
REMARK  8 active torsions:
REMARK  status: ('A' for Active; 'I' for Inactive)
REMARK    1  A    between atoms: N_1  and  C_24
REMARK    2  A    between atoms: C_2  and  N_10
REMARK    3  A    between atoms: C_2  and  C_21
REMARK    4  A    between atoms: N_10  and  C_12
REMARK    5  A    between atoms: C_11  and  C_18
REMARK    6  A    between atoms: C_21  and  O_22
REMARK    7  A    between atoms: C_24  and  C_25
REMARK    8  A    between atoms: C_25  and  C_26
REMARK                            x       y       z     vdW  Elec       q    Type
REMARK                         _______ _______ _______ _____ _____    ______ ____
ROOT
ATOM      1  N   UNL     1      31.747 -23.763 -15.894  0.00  0.00    +0.387 N 
ATOM      2  C   UNL     1      34.543 -23.986 -15.018  0.00  0.00    +0.149 C 
ATOM      3  C   UNL     1      33.412 -23.587 -14.041  0.00  0.00    +0.007 C 
ATOM      4  C   UNL     1      33.997 -24.758 -16.226  0.00  0.00    +0.007 C 
ATOM      5  C   UNL     1      32.256 -22.911 -14.810  0.00  0.00    -0.075 C 
ATOM      6  C   UNL     1      32.801 -24.053 -16.874  0.00  0.00    -0.075 C 
ATOM      7  C   UNL     1      32.882 -24.780 -13.226  0.00  0.00    +0.000 C 
ATOM      8  H   UNL     1      31.442 -24.646 -15.485  0.00  0.00    -0.080 HD
ENDROOT
BRANCH   2  10
ATOM      9  O   UNL     1      35.867 -26.423 -15.996  0.00  0.00    -0.275 OA
ATOM     10  N   UNL     1      35.598 -24.727 -14.365  0.00  0.00    -0.252 N 
ATOM     11  C   UNL     1      36.180 -25.903 -14.921  0.00  0.00    +0.230 C 
BRANCH  10  12
ATOM     12  C   UNL     1      36.092 -24.247 -13.077  0.00  0.00    +0.054 C 
ATOM     13  C   UNL     1      37.132 -23.319 -13.031  0.00  0.00    +0.015 C 
ATOM     14  C   UNL     1      35.522 -24.716 -11.894  0.00  0.00    +0.015 C 
ATOM     15  C   UNL     1      37.604 -22.860 -11.801  0.00  0.00    +0.001 C 
ATOM     16  C   UNL     1      35.993 -24.257 -10.663  0.00  0.00    +0.001 C 
ATOM     17  C   UNL     1      37.034 -23.330 -10.617  0.00  0.00    +0.000 C 
ENDBRANCH  10  12
BRANCH  11  18
ATOM     18  C   UNL     1      37.248 -26.566 -14.056  0.00  0.00    +0.086 C 
ATOM     19  C   UNL     1      38.663 -26.233 -14.507  0.00  0.00    +0.010 C 
ENDBRANCH  11  18
ENDBRANCH   2  10
BRANCH   2  21
ATOM     20  O   UNL     1      35.215 -21.668 -14.944  0.00  0.00    -0.248 OA
ATOM     21  C   UNL     1      35.299 -22.766 -15.477  0.00  0.00    +0.333 C 
BRANCH  21  22
ATOM     22  O   UNL     1      36.069 -23.086 -16.555  0.00  0.00    -0.443 OA
ATOM     23  C   UNL     1      36.754 -21.989 -17.169  0.00  0.00    +0.256 C 
ENDBRANCH  21  22
ENDBRANCH   2  21
BRANCH   1  24
ATOM     24  C   UNL     1      30.601 -23.132 -16.547  0.00  0.00    -0.073 C 
BRANCH  24  25
ATOM     25  C   UNL     1      29.302 -23.861 -16.202  0.00  0.00    +0.004 C 
BRANCH  25  26
ATOM     26  C   UNL     1      28.093 -23.009 -16.497  0.00  0.00    -0.024 C 
ATOM     27  C   UNL     1      27.755 -22.712 -17.817  0.00  0.00    -0.004 C 
ATOM     28  C   UNL     1      27.313 -22.520 -15.450  0.00  0.00    -0.004 C 
ATOM     29  C   UNL     1      26.637 -21.924 -18.090  0.00  0.00    -0.000 C 
ATOM     30  C   UNL     1      26.195 -21.732 -15.722  0.00  0.00    -0.000 C 
ATOM     31  C   UNL     1      25.856 -21.434 -17.043  0.00  0.00    -0.000 C 
ENDBRANCH  25  26
ENDBRANCH  24  25
ENDBRANCH   1  24
TORSDOF 8
ENDMDL
MODEL 7
REMARK VINA RESULT:      -5.4      1.781      3.692
REMARK  Name = 10070040
REMARK  8 active torsions:
REMARK  status: ('A' for Active; 'I' for Inactive)
REMARK    1  A    between atoms: N_1  and  C_24
REMARK    2  A    between atoms: C_2  and  N_10
REMARK    3  A    between atoms: C_2  and  C_21
REMARK    4  A    between atoms: N_10  and  C_12
REMARK    5  A    between atoms: C_11  and  C_18
REMARK    6  A    between atoms: C_21  and  O_22
REMARK    7  A    between atoms: C_24  and  C_25
REMARK    8  A    between atoms: C_25  and  C_26
REMARK                            x       y       z     vdW  Elec       q    Type
REMARK                         _______ _______ _______ _____ _____    ______ ____
ROOT
ATOM      1  N   UNL     1      33.681 -22.644 -16.850  0.00  0.00    +0.387 N 
ATOM      2  C   UNL     1      35.252 -24.151 -14.875  0.00  0.00    +0.149 C 
ATOM      3  C   UNL     1      35.921 -23.420 -16.064  0.00  0.00    +0.007 C 
ATOM      4  C   UNL     1      33.879 -23.551 -14.547  0.00  0.00    +0.007 C 
ATOM      5  C   UNL     1      34.933 -23.306 -17.245  0.00  0.00    -0.075 C 
ATOM      6  C   UNL     1      32.998 -23.399 -15.792  0.00  0.00    -0.075 C 
ATOM      7  C   UNL     1      36.456 -22.029 -15.682  0.00  0.00    +0.000 C 
ATOM      8  H   UNL     1      33.915 -21.721 -16.482  0.00  0.00    -0.080 HD
ENDROOT
BRANCH   2  10
ATOM      9  O   UNL     1      34.507 -23.395 -12.133  0.00  0.00    -0.275 OA
ATOM     10  N   UNL     1      36.096 -24.183 -13.703  0.00  0.00    -0.252 N 
ATOM     11  C   UNL     1      35.642 -23.795 -12.409  0.00  0.00    +0.230 C 
BRANCH  10  12
ATOM     12  C   UNL     1      37.477 -24.633 -13.851  0.00  0.00    +0.054 C 
ATOM     13  C   UNL     1      37.961 -25.672 -13.056  0.00  0.00    +0.015 C 
ATOM     14  C   UNL     1      38.312 -24.026 -14.789  0.00  0.00    +0.015 C 
ATOM     15  C   UNL     1      39.279 -26.104 -13.197  0.00  0.00    +0.001 C 
ATOM     16  C   UNL     1      39.631 -24.457 -14.931  0.00  0.00    +0.001 C 
ATOM     17  C   UNL     1      40.115 -25.496 -14.134  0.00  0.00    +0.000 C 
ENDBRANCH  10  12
BRANCH  11  18
ATOM     18  C   UNL     1      36.699 -23.854 -11.309  0.00  0.00    +0.086 C 
ATOM     19  C   UNL     1      37.619 -22.642 -11.310  0.00  0.00    +0.010 C 
ENDBRANCH  11  18
ENDBRANCH   2  10
BRANCH   2  21
ATOM     20  O   UNL     1      34.249 -26.340 -14.698  0.00  0.00    -0.248 OA
ATOM     21  C   UNL     1      35.122 -25.624 -15.167  0.00  0.00    +0.333 C 
BRANCH  21  22
ATOM     22  O   UNL     1      36.115 -26.008 -16.019  0.00  0.00    -0.443 OA
ATOM     23  C   UNL     1      36.681 -27.298 -15.760  0.00  0.00    +0.256 C 
ENDBRANCH  21  22
ENDBRANCH   2  21
BRANCH   1  24
ATOM     24  C   UNL     1      32.803 -22.475 -18.007  0.00  0.00    -0.073 C 
BRANCH  24  25
ATOM     25  C   UNL     1      33.576 -22.655 -19.314  0.00  0.00    +0.004 C 
BRANCH  25  26
ATOM     26  C   UNL     1      33.943 -21.328 -19.928  0.00  0.00    -0.024 C 
ATOM     27  C   UNL     1      35.284 -20.994 -20.117  0.00  0.00    -0.004 C 
ATOM     28  C   UNL     1      32.941 -20.435 -20.307  0.00  0.00    -0.004 C 
ATOM     29  C   UNL     1      35.623 -19.766 -20.685  0.00  0.00    -0.000 C 
ATOM     30  C   UNL     1      33.280 -19.207 -20.875  0.00  0.00    -0.000 C 
ATOM     31  C   UNL     1      34.621 -18.872 -21.064  0.00  0.00    -0.000 C 
ENDBRANCH  25  26
ENDBRANCH  24  25
ENDBRANCH   1  24
TORSDOF 8
ENDMDL
MODEL 8
REMARK VINA RESULT:      -5.3      5.403     11.015
REMARK  Name = 10070040
REMARK  8 active torsions:
REMARK  status: ('A' for Active; 'I' for Inactive)
REMARK    1  A    between atoms: N_1  and  C_24
REMARK    2  A    between atoms: C_2  and  N_10
REMARK    3  A    between atoms: C_2  and  C_21
REMARK    4  A    between atoms: N_10  and  C_12
REMARK    5  A    between atoms: C_11  and  C_18
REMARK    6  A    between atoms: C_21  and  O_22
REMARK    7  A    between atoms: C_24  and  C_25
REMARK    8  A    between atoms: C_25  and  C_26
REMARK                            x       y       z     vdW  Elec       q    Type
REMARK                         _______ _______ _______ _____ _____    ______ ____
ROOT
ATOM      1  N   UNL     1      34.768 -18.948 -20.734  0.00  0.00    +0.387 N 
ATOM      2  C   UNL     1      34.092 -16.464 -22.153  0.00  0.00    +0.149 C 
ATOM      3  C   UNL     1      33.094 -17.642 -22.051  0.00  0.00    +0.007 C 
ATOM      4  C   UNL     1      35.133 -16.509 -21.028  0.00  0.00    +0.007 C 
ATOM      5  C   UNL     1      33.857 -18.975 -21.887  0.00  0.00    -0.075 C 
ATOM      6  C   UNL     1      35.778 -17.892 -20.887  0.00  0.00    -0.075 C 
ATOM      7  C   UNL     1      32.082 -17.466 -20.906  0.00  0.00    +0.000 C 
ATOM      8  H   UNL     1      34.216 -18.741 -19.901  0.00  0.00    -0.080 HD
ENDROOT
BRANCH   2  10
ATOM      9  O   UNL     1      32.724 -15.109 -19.930  0.00  0.00    -0.275 OA
ATOM     10  N   UNL     1      33.426 -15.182 -22.192  0.00  0.00    -0.252 N 
ATOM     11  C   UNL     1      32.788 -14.605 -21.055  0.00  0.00    +0.230 C 
BRANCH  10  12
ATOM     12  C   UNL     1      33.408 -14.444 -23.451  0.00  0.00    +0.054 C 
ATOM     13  C   UNL     1      32.762 -14.981 -24.565  0.00  0.00    +0.015 C 
ATOM     14  C   UNL     1      34.034 -13.201 -23.540  0.00  0.00    +0.015 C 
ATOM     15  C   UNL     1      32.744 -14.276 -25.768  0.00  0.00    +0.001 C 
ATOM     16  C   UNL     1      34.016 -12.495 -24.743  0.00  0.00    +0.001 C 
ATOM     17  C   UNL     1      33.371 -13.033 -25.858  0.00  0.00    +0.000 C 
ENDBRANCH  10  12
BRANCH  11  18
ATOM     18  C   UNL     1      32.101 -13.266 -21.311  0.00  0.00    +0.086 C 
ATOM     19  C   UNL     1      32.009 -12.402 -20.062  0.00  0.00    +0.010 C 
ENDBRANCH  11  18
ENDBRANCH   2  10
BRANCH   2  21
ATOM     20  O   UNL     1      35.837 -15.904 -23.725  0.00  0.00    -0.248 OA
ATOM     21  C   UNL     1      34.775 -16.466 -23.497  0.00  0.00    +0.333 C 
BRANCH  21  22
ATOM     22  O   UNL     1      34.027 -17.180 -24.386  0.00  0.00    -0.443 OA
ATOM     23  C   UNL     1      34.756 -18.114 -25.190  0.00  0.00    +0.256 C 
ENDBRANCH  21  22
ENDBRANCH   2  21
BRANCH   1  24
ATOM     24  C   UNL     1      35.411 -20.249 -20.557  0.00  0.00    -0.073 C 
BRANCH  24  25
ATOM     25  C   UNL     1      34.462 -21.244 -19.888  0.00  0.00    +0.004 C 
BRANCH  25  26
ATOM     26  C   UNL     1      35.041 -21.784 -18.604  0.00  0.00    -0.024 C 
ATOM     27  C   UNL     1      34.246 -22.545 -17.747  0.00  0.00    -0.004 C 
ATOM     28  C   UNL     1      36.371 -21.525 -18.277  0.00  0.00    -0.004 C 
ATOM     29  C   UNL     1      34.782 -23.045 -16.560  0.00  0.00    -0.000 C 
ATOM     30  C   UNL     1      36.907 -22.025 -17.090  0.00  0.00    -0.000 C 
ATOM     31  C   UNL     1      36.112 -22.786 -16.232  0.00  0.00    -0.000 C 
ENDBRANCH  25  26
ENDBRANCH  24  25
ENDBRANCH   1  24
TORSDOF 8
ENDMDL
MODEL 9
REMARK VINA RESULT:      -5.3     14.187     18.092
REMARK  Name = 10070040
REMARK  8 active torsions:
REMARK  status: ('A' for Active; 'I' for Inactive)
REMARK    1  A    between atoms: N_1  and  C_24
REMARK    2  A    between atoms: C_2  and  N_10
REMARK    3  A    between atoms: C_2  and  C_21
REMARK    4  A    between atoms: N_10  and  C_12
REMARK    5  A    between atoms: C_11  and  C_18
REMARK    6  A    between atoms: C_21  and  O_22
REMARK    7  A    between atoms: C_24  and  C_25
REMARK    8  A    between atoms: C_25  and  C_26
REMARK                            x       y       z     vdW  Elec       q    Type
REMARK                         _______ _______ _______ _____ _____    ______ ____
ROOT
ATOM      1  N   UNL     1      30.948  -5.305 -23.964  0.00  0.00    +0.387 N 
ATOM      2  C   UNL     1      32.392  -7.482 -22.616  0.00  0.00    +0.149 C 
ATOM      3  C   UNL     1      32.072  -6.149 -21.899  0.00  0.00    +0.007 C 
ATOM      4  C   UNL     1      31.436  -7.734 -23.789  0.00  0.00    +0.007 C 
ATOM      5  C   UNL     1      31.947  -5.005 -22.928  0.00  0.00    -0.075 C 
ATOM      6  C   UNL     1      31.313  -6.516 -24.711  0.00  0.00    -0.075 C 
ATOM      7  C   UNL     1      30.799  -6.229 -21.037  0.00  0.00    +0.000 C 
ATOM      8  H   UNL     1      30.055  -5.475 -23.501  0.00  0.00    -0.080 HD
ENDROOT
BRANCH   2  10
ATOM      9  O   UNL     1      32.576  -7.389 -19.682  0.00  0.00    -0.275 OA
ATOM     10  N   UNL     1      32.405  -8.606 -21.708  0.00  0.00    -0.252 N 
ATOM     11  C   UNL     1      32.497  -8.459 -20.293  0.00  0.00    +0.230 C 
BRANCH  10  12
ATOM     12  C   UNL     1      32.318  -9.953 -22.265  0.00  0.00    +0.054 C 
ATOM     13  C   UNL     1      33.323 -10.424 -23.109  0.00  0.00    +0.015 C 
ATOM     14  C   UNL     1      31.231 -10.768 -21.951  0.00  0.00    +0.015 C 
ATOM     15  C   UNL     1      33.241 -11.711 -23.641  0.00  0.00    +0.001 C 
ATOM     16  C   UNL     1      31.149 -12.055 -22.482  0.00  0.00    +0.001 C 
ATOM     17  C   UNL     1      32.153 -12.526 -23.328  0.00  0.00    +0.000 C 
ENDBRANCH  10  12
BRANCH  11  18
ATOM     18  C   UNL     1      32.543  -9.769 -19.510  0.00  0.00    +0.086 C 
ATOM     19  C   UNL     1      31.245 -10.059 -18.770  0.00  0.00    +0.010 C 
ENDBRANCH  11  18
ENDBRANCH   2  10
BRANCH   2  21
ATOM     20  O   UNL     1      34.792  -7.509 -22.352  0.00  0.00    -0.248 OA
ATOM     21  C   UNL     1      33.821  -7.492 -23.095  0.00  0.00    +0.333 C 
BRANCH  21  22
ATOM     22  O   UNL     1      33.843  -7.480 -24.459  0.00  0.00    -0.443 OA
ATOM     23  C   UNL     1      34.740  -6.534 -25.050  0.00  0.00    +0.256 C 
ENDBRANCH  21  22
ENDBRANCH   2  21
BRANCH   1  24
ATOM     24  C   UNL     1      30.794  -4.170 -24.873  0.00  0.00    -0.073 C 
BRANCH  24  25
ATOM     25  C   UNL     1      32.153  -3.690 -25.385  0.00  0.00    +0.004 C 
BRANCH  25  26
ATOM     26  C   UNL     1      32.187  -3.632 -26.892  0.00  0.00    -0.024 C 
ATOM     27  C   UNL     1      31.479  -2.638 -27.568  0.00  0.00    -0.004 C 
ATOM     28  C   UNL     1      32.927  -4.572 -27.608  0.00  0.00    -0.004 C 
ATOM     29  C   UNL     1      31.511  -2.586 -28.962  0.00  0.00    -0.000 C 
ATOM     30  C   UNL     1      32.959  -4.519 -29.002  0.00  0.00    -0.000 C 
ATOM     31  C   UNL     1      32.251  -3.526 -29.679  0.00  0.00    -0.000 C 
ENDBRANCH  25  26
ENDBRANCH  24  25
ENDBRANCH   1  24
TORSDOF 8
ENDMDL
