MODEL 1
REMARK VINA RESULT:     -10.3      0.000      0.000
REMARK  Name = 5288878
REMARK  9 active torsions:
REMARK  status: ('A' for Active; 'I' for Inactive)
REMARK    1  A    between atoms: C_2  and  C_7
REMARK    2  A    between atoms: C_3  and  C_19
REMARK    3  A    between atoms: C_10  and  C_14
REMARK    4  A    between atoms: C_14  and  O_15
REMARK    5  A    between atoms: N_18  and  CA_21
REMARK    6  A    between atoms: CA_21  and  C_23
REMARK    7  A    between atoms: CA_21  and  CB_24
REMARK    8  A    between atoms: CB_24  and  CG_26
REMARK    9  A    between atoms: CG_26  and  OD1_27
REMARK                            x       y       z     vdW  Elec       q    Type
REMARK                         _______ _______ _______ _____ _____    ______ ____
ROOT
ATOM      1  N   UNL     1      34.991 -17.974 -24.392  0.00  0.00    -0.242 NA
ATOM      2  C   UNL     1      34.656 -18.642 -22.091  0.00  0.00    +0.019 C 
ATOM      3  C   UNL     1      34.526 -16.349 -22.703  0.00  0.00    +0.072 C 
ATOM      4  C   UNL     1      34.455 -17.315 -21.729  0.00  0.00    +0.008 C 
ATOM      5  C   UNL     1      34.920 -18.916 -23.424  0.00  0.00    +0.099 C 
ATOM      6  C   UNL     1      34.790 -16.696 -24.001  0.00  0.00    +0.103 C 
ENDROOT
BRANCH   2   7
ATOM      7  C   UNL     1      34.594 -19.700 -21.112  0.00  0.00    +0.002 C 
ATOM      8  C   UNL     1      33.360 -20.131 -20.624  0.00  0.00    +0.000 C 
ATOM      9  C   UNL     1      35.770 -20.295 -20.648  0.00  0.00    +0.000 C 
ATOM     10  C   UNL     1      34.474 -21.746 -19.214  0.00  0.00    +0.075 C 
ATOM     11  C   UNL     1      33.299 -21.153 -19.675  0.00  0.00    +0.006 C 
ATOM     12  C   UNL     1      35.710 -21.317 -19.701  0.00  0.00    +0.006 C 
BRANCH  10  14
ATOM     13  O   UNL     1      35.003 -22.817 -17.141  0.00  0.00    -0.245 OA
ATOM     14  C   UNL     1      34.412 -22.811 -18.226  0.00  0.00    +0.338 C 
BRANCH  14  15
ATOM     15  O   UNL     1      33.611 -23.839 -18.618  0.00  0.00    -0.477 OA
ATOM     16  H   UNL     1      33.834 -24.345 -19.375  0.00  0.00    +0.295 HD
ENDBRANCH  14  15
ENDBRANCH  10  14
ENDBRANCH   2   7
BRANCH   3  19
ATOM     17  O   UNL     1      34.607 -14.535 -21.220  0.00  0.00    -0.270 OA
ATOM     18  N   UNL     1      33.812 -14.111 -23.356  0.00  0.00    -0.295 N 
ATOM     19  C   ACE A   0      34.315 -14.922 -22.348  0.00  0.00    +0.248 C 
ATOM     20  H   UNL     1      33.607 -14.515 -24.230  0.00  0.00    +0.150 HD
BRANCH  18  21
ATOM     21  CA  UNL     1      33.576 -12.702 -23.174  0.00  0.00    +0.148 C 
BRANCH  21  23
ATOM     22  O   UNL     1      31.854 -12.527 -21.485  0.00  0.00    -0.286 OA
ATOM     23  C   UNL     1      32.154 -12.556 -22.675  0.00  0.00    +0.227 C 
ENDBRANCH  21  23
BRANCH  21  24
ATOM     24  CB  UNL     1      33.818 -11.914 -24.454  0.00  0.00    +0.137 C 
BRANCH  24  26
ATOM     25  OD2 UNL     1      33.225  -9.624 -23.962  0.00  0.00    -0.250 OA
ATOM     26  CG  UNL     1      34.096 -10.461 -24.158  0.00  0.00    +0.316 C 
BRANCH  26  27
ATOM     27  OD1 UNL     1      35.422 -10.175 -24.151  0.00  0.00    -0.480 OA
ATOM     28  HD1 UNL     1      35.869 -10.047 -23.338  0.00  0.00    +0.295 HD
ENDBRANCH  26  27
ENDBRANCH  24  26
ENDBRANCH  21  24
ENDBRANCH  18  21
ENDBRANCH   3  19
TORSDOF 9
ENDMDL
MODEL 2
REMARK VINA RESULT:     -10.3      5.516     11.793
REMARK  Name = 5288878
REMARK  9 active torsions:
REMARK  status: ('A' for Active; 'I' for Inactive)
REMARK    1  A    between atoms: C_2  and  C_7
REMARK    2  A    between atoms: C_3  and  C_19
REMARK    3  A    between atoms: C_10  and  C_14
REMARK    4  A    between atoms: C_14  and  O_15
REMARK    5  A    between atoms: N_18  and  CA_21
REMARK    6  A    between atoms: CA_21  and  C_23
REMARK    7  A    between atoms: CA_21  and  CB_24
REMARK    8  A    between atoms: CB_24  and  CG_26
REMARK    9  A    between atoms: CG_26  and  OD1_27
REMARK                            x       y       z     vdW  Elec       q    Type
REMARK                         _______ _______ _______ _____ _____    ______ ____
ROOT
ATOM      1  N   UNL     1      33.886 -23.795 -16.601  0.00  0.00    -0.242 NA
ATOM      2  C   UNL     1      35.133 -22.237 -17.967  0.00  0.00    +0.019 C 
ATOM      3  C   UNL     1      36.127 -23.193 -16.032  0.00  0.00    +0.072 C 
ATOM      4  C   UNL     1      36.227 -22.358 -17.118  0.00  0.00    +0.008 C 
ATOM      5  C   UNL     1      33.995 -22.970 -17.666  0.00  0.00    +0.099 C 
ATOM      6  C   UNL     1      34.970 -23.886 -15.799  0.00  0.00    +0.103 C 
ENDROOT
BRANCH   2   7
ATOM      7  C   UNL     1      35.178 -21.375 -19.124  0.00  0.00    +0.002 C 
ATOM      8  C   UNL     1      36.405 -20.922 -19.612  0.00  0.00    +0.000 C 
ATOM      9  C   UNL     1      33.995 -20.991 -19.758  0.00  0.00    +0.000 C 
ATOM     10  C   UNL     1      35.267 -19.706 -21.361  0.00  0.00    +0.075 C 
ATOM     11  C   UNL     1      36.450 -20.088 -20.729  0.00  0.00    +0.006 C 
ATOM     12  C   UNL     1      34.039 -20.157 -20.876  0.00  0.00    +0.006 C 
BRANCH  10  14
ATOM     13  O   UNL     1      34.440 -18.760 -23.397  0.00  0.00    -0.245 OA
ATOM     14  C   UNL     1      35.313 -18.836 -22.527  0.00  0.00    +0.338 C 
BRANCH  14  15
ATOM     15  O   UNL     1      36.446 -18.085 -22.571  0.00  0.00    -0.477 OA
ATOM     16  H   UNL     1      36.414 -17.174 -22.352  0.00  0.00    +0.295 HD
ENDBRANCH  14  15
ENDBRANCH  10  14
ENDBRANCH   2   7
BRANCH   3  19
ATOM     17  O   UNL     1      37.557 -22.427 -14.339  0.00  0.00    -0.270 OA
ATOM     18  N   UNL     1      37.955 -24.556 -15.169  0.00  0.00    -0.295 N 
ATOM     19  C   ACE A   0      37.279 -23.344 -15.107  0.00  0.00    +0.248 C 
ATOM     20  H   UNL     1      37.658 -25.231 -15.820  0.00  0.00    +0.150 HD
BRANCH  18  21
ATOM     21  CA  UNL     1      39.077 -24.863 -14.319  0.00  0.00    +0.148 C 
BRANCH  21  23
ATOM     22  O   UNL     1      40.843 -26.470 -14.704  0.00  0.00    -0.286 OA
ATOM     23  C   UNL     1      40.069 -25.634 -15.163  0.00  0.00    +0.227 C 
ENDBRANCH  21  23
BRANCH  21  24
ATOM     24  CB  UNL     1      38.656 -25.638 -13.078  0.00  0.00    +0.137 C 
BRANCH  24  26
ATOM     25  OD2 UNL     1      37.224 -27.330 -14.041  0.00  0.00    -0.250 OA
ATOM     26  CG  UNL     1      37.351 -26.362 -13.303  0.00  0.00    +0.316 C 
BRANCH  26  27
ATOM     27  OD1 UNL     1      36.324 -25.811 -12.610  0.00  0.00    -0.480 OA
ATOM     28  HD1 UNL     1      35.492 -26.241 -12.584  0.00  0.00    +0.295 HD
ENDBRANCH  26  27
ENDBRANCH  24  26
ENDBRANCH  21  24
ENDBRANCH  18  21
ENDBRANCH   3  19
TORSDOF 9
ENDMDL
MODEL 3
REMARK VINA RESULT:     -10.1      5.283     11.529
REMARK  Name = 5288878
REMARK  9 active torsions:
REMARK  status: ('A' for Active; 'I' for Inactive)
REMARK    1  A    between atoms: C_2  and  C_7
REMARK    2  A    between atoms: C_3  and  C_19
REMARK    3  A    between atoms: C_10  and  C_14
REMARK    4  A    between atoms: C_14  and  O_15
REMARK    5  A    between atoms: N_18  and  CA_21
REMARK    6  A    between atoms: CA_21  and  C_23
REMARK    7  A    between atoms: CA_21  and  CB_24
REMARK    8  A    between atoms: CB_24  and  CG_26
REMARK    9  A    between atoms: CG_26  and  OD1_27
REMARK                            x       y       z     vdW  Elec       q    Type
REMARK                         _______ _______ _______ _____ _____    ______ ____
ROOT
ATOM      1  N   UNL     1      33.207 -23.734 -16.735  0.00  0.00    -0.242 NA
ATOM      2  C   UNL     1      34.552 -22.231 -18.069  0.00  0.00    +0.019 C 
ATOM      3  C   UNL     1      35.450 -23.212 -16.099  0.00  0.00    +0.072 C 
ATOM      4  C   UNL     1      35.614 -22.387 -17.186  0.00  0.00    +0.008 C 
ATOM      5  C   UNL     1      33.380 -22.920 -17.801  0.00  0.00    +0.099 C 
ATOM      6  C   UNL     1      34.262 -23.861 -15.900  0.00  0.00    +0.103 C 
ENDROOT
BRANCH   2   7
ATOM      7  C   UNL     1      34.665 -21.377 -19.227  0.00  0.00    +0.002 C 
ATOM      8  C   UNL     1      33.517 -20.894 -19.856  0.00  0.00    +0.000 C 
ATOM      9  C   UNL     1      35.925 -21.034 -19.723  0.00  0.00    +0.000 C 
ATOM     10  C   UNL     1      34.885 -19.727 -21.470  0.00  0.00    +0.075 C 
ATOM     11  C   UNL     1      33.627 -20.070 -20.977  0.00  0.00    +0.006 C 
ATOM     12  C   UNL     1      36.035 -20.209 -20.843  0.00  0.00    +0.006 C 
BRANCH  10  14
ATOM     13  O   UNL     1      34.885 -19.237 -23.812  0.00  0.00    -0.245 OA
ATOM     14  C   UNL     1      35.000 -18.868 -22.638  0.00  0.00    +0.338 C 
BRANCH  14  15
ATOM     15  O   UNL     1      35.253 -17.573 -22.309  0.00  0.00    -0.477 OA
ATOM     16  H   UNL     1      34.591 -16.921 -22.427  0.00  0.00    +0.295 HD
ENDBRANCH  14  15
ENDBRANCH  10  14
ENDBRANCH   2   7
BRANCH   3  19
ATOM     17  O   UNL     1      37.563 -22.689 -15.228  0.00  0.00    -0.270 OA
ATOM     18  N   UNL     1      36.378 -24.378 -14.170  0.00  0.00    -0.295 N 
ATOM     19  C   ACE A   0      36.566 -23.400 -15.137  0.00  0.00    +0.248 C 
ATOM     20  H   UNL     1      35.543 -24.898 -14.179  0.00  0.00    +0.150 HD
BRANCH  18  21
ATOM     21  CA  UNL     1      37.358 -24.662 -13.153  0.00  0.00    +0.148 C 
BRANCH  21  23
ATOM     22  O   UNL     1      37.629 -26.933 -13.940  0.00  0.00    -0.286 OA
ATOM     23  C   UNL     1      37.412 -26.167 -13.004  0.00  0.00    +0.227 C 
ENDBRANCH  21  23
BRANCH  21  24
ATOM     24  CB  UNL     1      37.032 -23.968 -11.838  0.00  0.00    +0.137 C 
BRANCH  24  26
ATOM     25  OD2 UNL     1      35.353 -25.091 -10.511  0.00  0.00    -0.250 OA
ATOM     26  CG  UNL     1      35.626 -24.281 -11.388  0.00  0.00    +0.316 C 
BRANCH  26  27
ATOM     27  OD1 UNL     1      34.690 -23.581 -12.076  0.00  0.00    -0.480 OA
ATOM     28  HD1 UNL     1      34.685 -23.600 -13.013  0.00  0.00    +0.295 HD
ENDBRANCH  26  27
ENDBRANCH  24  26
ENDBRANCH  21  24
ENDBRANCH  18  21
ENDBRANCH   3  19
TORSDOF 9
ENDMDL
MODEL 4
REMARK VINA RESULT:     -10.1      1.767      2.184
REMARK  Name = 5288878
REMARK  9 active torsions:
REMARK  status: ('A' for Active; 'I' for Inactive)
REMARK    1  A    between atoms: C_2  and  C_7
REMARK    2  A    between atoms: C_3  and  C_19
REMARK    3  A    between atoms: C_10  and  C_14
REMARK    4  A    between atoms: C_14  and  O_15
REMARK    5  A    between atoms: N_18  and  CA_21
REMARK    6  A    between atoms: CA_21  and  C_23
REMARK    7  A    between atoms: CA_21  and  CB_24
REMARK    8  A    between atoms: CB_24  and  CG_26
REMARK    9  A    between atoms: CG_26  and  OD1_27
REMARK                            x       y       z     vdW  Elec       q    Type
REMARK                         _______ _______ _______ _____ _____    ______ ____
ROOT
ATOM      1  N   UNL     1      34.804 -18.387 -25.017  0.00  0.00    -0.242 NA
ATOM      2  C   UNL     1      34.559 -18.746 -22.638  0.00  0.00    +0.019 C 
ATOM      3  C   UNL     1      34.536 -16.540 -23.524  0.00  0.00    +0.072 C 
ATOM      4  C   UNL     1      34.461 -17.374 -22.434  0.00  0.00    +0.008 C 
ATOM      5  C   UNL     1      34.729 -19.197 -23.937  0.00  0.00    +0.099 C 
ATOM      6  C   UNL     1      34.704 -17.060 -24.779  0.00  0.00    +0.103 C 
ENDROOT
BRANCH   2   7
ATOM      7  C   UNL     1      34.487 -19.670 -21.531  0.00  0.00    +0.002 C 
ATOM      8  C   UNL     1      35.655 -20.227 -21.007  0.00  0.00    +0.000 C 
ATOM      9  C   UNL     1      33.249 -20.010 -20.982  0.00  0.00    +0.000 C 
ATOM     10  C   UNL     1      34.349 -21.460 -19.392  0.00  0.00    +0.075 C 
ATOM     11  C   UNL     1      35.586 -21.122 -19.939  0.00  0.00    +0.006 C 
ATOM     12  C   UNL     1      33.179 -20.904 -19.913  0.00  0.00    +0.006 C 
BRANCH  10  14
ATOM     13  O   UNL     1      35.210 -22.678 -17.521  0.00  0.00    -0.245 OA
ATOM     14  C   UNL     1      34.276 -22.392 -18.278  0.00  0.00    +0.338 C 
BRANCH  14  15
ATOM     15  O   UNL     1      33.038 -22.940 -18.138  0.00  0.00    -0.477 OA
ATOM     16  H   UNL     1      32.831 -23.746 -18.569  0.00  0.00    +0.295 HD
ENDBRANCH  14  15
ENDBRANCH  10  14
ENDBRANCH   2   7
BRANCH   3  19
ATOM     17  O   UNL     1      34.900 -14.558 -22.326  0.00  0.00    -0.270 OA
ATOM     18  N   UNL     1      33.822 -14.368 -24.370  0.00  0.00    -0.295 N 
ATOM     19  C   ACE A   0      34.434 -15.070 -23.340  0.00  0.00    +0.248 C 
ATOM     20  H   UNL     1      33.478 -14.869 -25.144  0.00  0.00    +0.150 HD
BRANCH  18  21
ATOM     21  CA  UNL     1      33.670 -12.936 -24.350  0.00  0.00    +0.148 C 
BRANCH  21  23
ATOM     22  O   UNL     1      32.528 -11.764 -22.569  0.00  0.00    -0.286 OA
ATOM     23  C   UNL     1      32.501 -12.632 -23.437  0.00  0.00    +0.227 C 
ENDBRANCH  21  23
BRANCH  21  24
ATOM     24  CB  UNL     1      33.470 -12.365 -25.747  0.00  0.00    +0.137 C 
BRANCH  24  26
ATOM     25  OD2 UNL     1      33.969 -13.704 -27.696  0.00  0.00    -0.250 OA
ATOM     26  CG  UNL     1      33.224 -13.461 -26.755  0.00  0.00    +0.316 C 
BRANCH  26  27
ATOM     27  OD1 UNL     1      32.074 -14.139 -26.519  0.00  0.00    -0.480 OA
ATOM     28  HD1 UNL     1      31.750 -14.221 -25.644  0.00  0.00    +0.295 HD
ENDBRANCH  26  27
ENDBRANCH  24  26
ENDBRANCH  21  24
ENDBRANCH  18  21
ENDBRANCH   3  19
TORSDOF 9
ENDMDL
MODEL 5
REMARK VINA RESULT:      -9.8      3.556      9.599
REMARK  Name = 5288878
REMARK  9 active torsions:
REMARK  status: ('A' for Active; 'I' for Inactive)
REMARK    1  A    between atoms: C_2  and  C_7
REMARK    2  A    between atoms: C_3  and  C_19
REMARK    3  A    between atoms: C_10  and  C_14
REMARK    4  A    between atoms: C_14  and  O_15
REMARK    5  A    between atoms: N_18  and  CA_21
REMARK    6  A    between atoms: CA_21  and  C_23
REMARK    7  A    between atoms: CA_21  and  CB_24
REMARK    8  A    between atoms: CB_24  and  CG_26
REMARK    9  A    between atoms: CG_26  and  OD1_27
REMARK                            x       y       z     vdW  Elec       q    Type
REMARK                         _______ _______ _______ _____ _____    ______ ____
ROOT
ATOM      1  N   UNL     1      37.131 -20.679 -19.064  0.00  0.00    -0.242 NA
ATOM      2  C   UNL     1      35.493 -19.882 -20.655  0.00  0.00    +0.019 C 
ATOM      3  C   UNL     1      34.974 -21.695 -19.209  0.00  0.00    +0.072 C 
ATOM      4  C   UNL     1      34.588 -20.840 -20.212  0.00  0.00    +0.008 C 
ATOM      5  C   UNL     1      36.741 -19.843 -20.053  0.00  0.00    +0.099 C 
ATOM      6  C   UNL     1      36.225 -21.597 -18.662  0.00  0.00    +0.103 C 
ENDROOT
BRANCH   2   7
ATOM      7  C   UNL     1      35.145 -18.956 -21.706  0.00  0.00    +0.002 C 
ATOM      8  C   UNL     1      34.933 -19.421 -23.005  0.00  0.00    +0.000 C 
ATOM      9  C   UNL     1      35.019 -17.594 -21.427  0.00  0.00    +0.000 C 
ATOM     10  C   UNL     1      34.472 -17.166 -23.741  0.00  0.00    +0.075 C 
ATOM     11  C   UNL     1      34.597 -18.526 -24.023  0.00  0.00    +0.006 C 
ATOM     12  C   UNL     1      34.683 -16.699 -22.443  0.00  0.00    +0.006 C 
BRANCH  10  14
ATOM     13  O   UNL     1      33.408 -15.234 -24.668  0.00  0.00    -0.245 OA
ATOM     14  C   UNL     1      34.122 -16.233 -24.801  0.00  0.00    +0.338 C 
BRANCH  14  15
ATOM     15  O   UNL     1      34.674 -16.574 -25.997  0.00  0.00    -0.477 OA
ATOM     16  H   UNL     1      34.871 -15.909 -26.628  0.00  0.00    +0.295 HD
ENDBRANCH  14  15
ENDBRANCH  10  14
ENDBRANCH   2   7
BRANCH   3  19
ATOM     17  O   UNL     1      33.689 -23.639 -19.466  0.00  0.00    -0.270 OA
ATOM     18  N   UNL     1      33.615 -22.596 -17.396  0.00  0.00    -0.295 N 
ATOM     19  C   ACE A   0      34.030 -22.730 -18.715  0.00  0.00    +0.248 C 
ATOM     20  H   UNL     1      33.943 -21.830 -16.872  0.00  0.00    +0.150 HD
BRANCH  18  21
ATOM     21  CA  UNL     1      32.720 -23.532 -16.765  0.00  0.00    +0.148 C 
BRANCH  21  23
ATOM     22  O   UNL     1      30.700 -22.310 -17.289  0.00  0.00    -0.286 OA
ATOM     23  C   UNL     1      31.452 -22.774 -16.436  0.00  0.00    +0.227 C 
ENDBRANCH  21  23
BRANCH  21  24
ATOM     24  CB  UNL     1      33.343 -24.171 -15.532  0.00  0.00    +0.137 C 
BRANCH  24  26
ATOM     25  OD2 UNL     1      35.742 -24.316 -15.781  0.00  0.00    -0.250 OA
ATOM     26  CG  UNL     1      34.769 -23.717 -15.342  0.00  0.00    +0.316 C 
BRANCH  26  27
ATOM     27  OD1 UNL     1      34.861 -22.578 -14.611  0.00  0.00    -0.480 OA
ATOM     28  HD1 UNL     1      35.639 -22.396 -14.123  0.00  0.00    +0.295 HD
ENDBRANCH  26  27
ENDBRANCH  24  26
ENDBRANCH  21  24
ENDBRANCH  18  21
ENDBRANCH   3  19
TORSDOF 9
ENDMDL
MODEL 6
REMARK VINA RESULT:      -9.2      0.850      2.271
REMARK  Name = 5288878
REMARK  9 active torsions:
REMARK  status: ('A' for Active; 'I' for Inactive)
REMARK    1  A    between atoms: C_2  and  C_7
REMARK    2  A    between atoms: C_3  and  C_19
REMARK    3  A    between atoms: C_10  and  C_14
REMARK    4  A    between atoms: C_14  and  O_15
REMARK    5  A    between atoms: N_18  and  CA_21
REMARK    6  A    between atoms: CA_21  and  C_23
REMARK    7  A    between atoms: CA_21  and  CB_24
REMARK    8  A    between atoms: CB_24  and  CG_26
REMARK    9  A    between atoms: CG_26  and  OD1_27
REMARK                            x       y       z     vdW  Elec       q    Type
REMARK                         _______ _______ _______ _____ _____    ______ ____
ROOT
ATOM      1  N   UNL     1      35.053 -17.991 -24.443  0.00  0.00    -0.242 NA
ATOM      2  C   UNL     1      34.596 -18.644 -22.160  0.00  0.00    +0.019 C 
ATOM      3  C   UNL     1      34.370 -16.373 -22.824  0.00  0.00    +0.072 C 
ATOM      4  C   UNL     1      34.288 -17.326 -21.839  0.00  0.00    +0.008 C 
ATOM      5  C   UNL     1      34.970 -18.921 -23.465  0.00  0.00    +0.099 C 
ATOM      6  C   UNL     1      34.747 -16.723 -24.093  0.00  0.00    +0.103 C 
ENDROOT
BRANCH   2   7
ATOM      7  C   UNL     1      34.529 -19.689 -21.166  0.00  0.00    +0.002 C 
ATOM      8  C   UNL     1      35.700 -20.284 -20.695  0.00  0.00    +0.000 C 
ATOM      9  C   UNL     1      33.291 -20.108 -20.674  0.00  0.00    +0.000 C 
ATOM     10  C   UNL     1      34.399 -21.711 -19.245  0.00  0.00    +0.075 C 
ATOM     11  C   UNL     1      35.635 -21.295 -19.736  0.00  0.00    +0.006 C 
ATOM     12  C   UNL     1      33.225 -21.118 -19.714  0.00  0.00    +0.006 C 
BRANCH  10  14
ATOM     13  O   UNL     1      33.507 -23.686 -18.230  0.00  0.00    -0.245 OA
ATOM     14  C   UNL     1      34.330 -22.765 -18.245  0.00  0.00    +0.338 C 
BRANCH  14  15
ATOM     15  O   UNL     1      35.293 -22.641 -17.292  0.00  0.00    -0.477 OA
ATOM     16  H   UNL     1      35.433 -23.332 -16.674  0.00  0.00    +0.295 HD
ENDBRANCH  14  15
ENDBRANCH  10  14
ENDBRANCH   2   7
BRANCH   3  19
ATOM     17  O   UNL     1      34.776 -14.329 -21.750  0.00  0.00    -0.270 OA
ATOM     18  N   UNL     1      32.927 -14.434 -23.145  0.00  0.00    -0.295 N 
ATOM     19  C   ACE A   0      34.047 -14.957 -22.512  0.00  0.00    +0.248 C 
ATOM     20  H   UNL     1      32.403 -15.018 -23.740  0.00  0.00    +0.150 HD
BRANCH  18  21
ATOM     21  CA  UNL     1      32.498 -13.071 -22.964  0.00  0.00    +0.148 C 
BRANCH  21  23
ATOM     22  O   UNL     1      33.663 -11.015 -23.482  0.00  0.00    -0.286 OA
ATOM     23  C   UNL     1      33.465 -12.201 -23.738  0.00  0.00    +0.227 C 
ENDBRANCH  21  23
BRANCH  21  24
ATOM     24  CB  UNL     1      32.432 -12.686 -21.493  0.00  0.00    +0.137 C 
BRANCH  24  26
ATOM     25  OD2 UNL     1      30.625 -11.205 -22.110  0.00  0.00    -0.250 OA
ATOM     26  CG  UNL     1      31.304 -11.719 -21.230  0.00  0.00    +0.316 C 
BRANCH  26  27
ATOM     27  OD1 UNL     1      31.133 -11.463 -19.909  0.00  0.00    -0.480 OA
ATOM     28  HD1 UNL     1      31.271 -10.598 -19.578  0.00  0.00    +0.295 HD
ENDBRANCH  26  27
ENDBRANCH  24  26
ENDBRANCH  21  24
ENDBRANCH  18  21
ENDBRANCH   3  19
TORSDOF 9
ENDMDL
MODEL 7
REMARK VINA RESULT:      -9.2      2.187      9.573
REMARK  Name = 5288878
REMARK  9 active torsions:
REMARK  status: ('A' for Active; 'I' for Inactive)
REMARK    1  A    between atoms: C_2  and  C_7
REMARK    2  A    between atoms: C_3  and  C_19
REMARK    3  A    between atoms: C_10  and  C_14
REMARK    4  A    between atoms: C_14  and  O_15
REMARK    5  A    between atoms: N_18  and  CA_21
REMARK    6  A    between atoms: CA_21  and  C_23
REMARK    7  A    between atoms: CA_21  and  CB_24
REMARK    8  A    between atoms: CB_24  and  CG_26
REMARK    9  A    between atoms: CG_26  and  OD1_27
REMARK                            x       y       z     vdW  Elec       q    Type
REMARK                         _______ _______ _______ _____ _____    ______ ____
ROOT
ATOM      1  N   UNL     1      33.790 -15.202 -25.055  0.00  0.00    -0.242 NA
ATOM      2  C   UNL     1      33.334 -13.441 -23.461  0.00  0.00    +0.019 C 
ATOM      3  C   UNL     1      34.127 -15.554 -22.715  0.00  0.00    +0.072 C 
ATOM      4  C   UNL     1      33.718 -14.278 -22.418  0.00  0.00    +0.008 C 
ATOM      5  C   UNL     1      33.387 -13.948 -24.750  0.00  0.00    +0.099 C 
ATOM      6  C   UNL     1      34.154 -15.985 -24.015  0.00  0.00    +0.103 C 
ENDROOT
BRANCH   2   7
ATOM      7  C   UNL     1      32.894 -12.090 -23.209  0.00  0.00    +0.002 C 
ATOM      8  C   UNL     1      33.475 -11.024 -23.899  0.00  0.00    +0.000 C 
ATOM      9  C   UNL     1      31.886 -11.845 -22.274  0.00  0.00    +0.000 C 
ATOM     10  C   UNL     1      32.043  -9.475 -22.721  0.00  0.00    +0.075 C 
ATOM     11  C   UNL     1      33.050  -9.718 -23.655  0.00  0.00    +0.006 C 
ATOM     12  C   UNL     1      31.460 -10.538 -22.030  0.00  0.00    +0.006 C 
BRANCH  10  14
ATOM     13  O   UNL     1      31.828  -7.467 -21.438  0.00  0.00    -0.245 OA
ATOM     14  C   UNL     1      31.600  -8.113 -22.467  0.00  0.00    +0.338 C 
BRANCH  14  15
ATOM     15  O   UNL     1      30.887  -7.596 -23.503  0.00  0.00    -0.477 OA
ATOM     16  H   UNL     1      31.331  -7.258 -24.256  0.00  0.00    +0.295 HD
ENDBRANCH  14  15
ENDBRANCH  10  14
ENDBRANCH   2   7
BRANCH   3  19
ATOM     17  O   UNL     1      34.914 -16.000 -20.552  0.00  0.00    -0.270 OA
ATOM     18  N   UNL     1      34.455 -17.829 -21.902  0.00  0.00    -0.295 N 
ATOM     19  C   ACE A   0      34.543 -16.472 -21.624  0.00  0.00    +0.248 C 
ATOM     20  H   UNL     1      34.147 -18.111 -22.793  0.00  0.00    +0.150 HD
BRANCH  18  21
ATOM     21  CA  UNL     1      34.800 -18.843 -20.939  0.00  0.00    +0.148 C 
BRANCH  21  23
ATOM     22  O   UNL     1      36.951 -19.622 -20.154  0.00  0.00    -0.286 OA
ATOM     23  C   UNL     1      36.301 -19.022 -21.007  0.00  0.00    +0.227 C 
ENDBRANCH  21  23
BRANCH  21  24
ATOM     24  CB  UNL     1      34.055 -20.146 -21.193  0.00  0.00    +0.137 C 
BRANCH  24  26
ATOM     25  OD2 UNL     1      32.514 -20.755 -19.433  0.00  0.00    -0.250 OA
ATOM     26  CG  UNL     1      33.645 -20.804 -19.898  0.00  0.00    +0.316 C 
BRANCH  26  27
ATOM     27  OD1 UNL     1      34.676 -21.443 -19.290  0.00  0.00    -0.480 OA
ATOM     28  HD1 UNL     1      35.491 -21.000 -19.160  0.00  0.00    +0.295 HD
ENDBRANCH  26  27
ENDBRANCH  24  26
ENDBRANCH  21  24
ENDBRANCH  18  21
ENDBRANCH   3  19
TORSDOF 9
ENDMDL
MODEL 8
REMARK VINA RESULT:      -9.1      3.228      4.695
REMARK  Name = 5288878
REMARK  9 active torsions:
REMARK  status: ('A' for Active; 'I' for Inactive)
REMARK    1  A    between atoms: C_2  and  C_7
REMARK    2  A    between atoms: C_3  and  C_19
REMARK    3  A    between atoms: C_10  and  C_14
REMARK    4  A    between atoms: C_14  and  O_15
REMARK    5  A    between atoms: N_18  and  CA_21
REMARK    6  A    between atoms: CA_21  and  C_23
REMARK    7  A    between atoms: CA_21  and  CB_24
REMARK    8  A    between atoms: CB_24  and  CG_26
REMARK    9  A    between atoms: CG_26  and  OD1_27
REMARK                            x       y       z     vdW  Elec       q    Type
REMARK                         _______ _______ _______ _____ _____    ______ ____
ROOT
ATOM      1  N   UNL     1      32.686 -21.081 -20.462  0.00  0.00    -0.242 NA
ATOM      2  C   UNL     1      34.701 -21.242 -19.134  0.00  0.00    +0.019 C 
ATOM      3  C   UNL     1      34.544 -19.637 -20.880  0.00  0.00    +0.072 C 
ATOM      4  C   UNL     1      35.274 -20.209 -19.867  0.00  0.00    +0.008 C 
ATOM      5  C   UNL     1      33.415 -21.637 -19.468  0.00  0.00    +0.099 C 
ATOM      6  C   UNL     1      33.278 -20.081 -21.152  0.00  0.00    +0.103 C 
ENDROOT
BRANCH   2   7
ATOM      7  C   UNL     1      35.420 -21.882 -18.058  0.00  0.00    +0.002 C 
ATOM      8  C   UNL     1      34.766 -22.781 -17.215  0.00  0.00    +0.000 C 
ATOM      9  C   UNL     1      36.774 -21.602 -17.858  0.00  0.00    +0.000 C 
ATOM     10  C   UNL     1      36.813 -23.118 -15.977  0.00  0.00    +0.075 C 
ATOM     11  C   UNL     1      35.461 -23.398 -16.175  0.00  0.00    +0.006 C 
ATOM     12  C   UNL     1      37.470 -22.219 -16.819  0.00  0.00    +0.006 C 
BRANCH  10  14
ATOM     13  O   UNL     1      37.109 -23.934 -13.747  0.00  0.00    -0.245 OA
ATOM     14  C   UNL     1      37.539 -23.762 -14.893  0.00  0.00    +0.338 C 
BRANCH  14  15
ATOM     15  O   UNL     1      38.779 -24.174 -15.270  0.00  0.00    -0.477 OA
ATOM     16  H   UNL     1      39.164 -24.930 -14.870  0.00  0.00    +0.295 HD
ENDBRANCH  14  15
ENDBRANCH  10  14
ENDBRANCH   2   7
BRANCH   3  19
ATOM     17  O   UNL     1      36.229 -18.687 -22.205  0.00  0.00    -0.270 OA
ATOM     18  N   UNL     1      34.351 -17.388 -21.800  0.00  0.00    -0.295 N 
ATOM     19  C   ACE A   0      35.128 -18.532 -21.682  0.00  0.00    +0.248 C 
ATOM     20  H   UNL     1      33.480 -17.358 -21.343  0.00  0.00    +0.150 HD
BRANCH  18  21
ATOM     21  CA  UNL     1      34.769 -16.241 -22.564  0.00  0.00    +0.148 C 
BRANCH  21  23
ATOM     22  O   UNL     1      34.840 -15.201 -20.382  0.00  0.00    -0.286 OA
ATOM     23  C   UNL     1      34.834 -15.073 -21.604  0.00  0.00    +0.227 C 
ENDBRANCH  21  23
BRANCH  21  24
ATOM     24  CB  UNL     1      33.837 -15.968 -23.737  0.00  0.00    +0.137 C 
BRANCH  24  26
ATOM     25  OD2 UNL     1      34.251 -16.091 -26.115  0.00  0.00    -0.250 OA
ATOM     26  CG  UNL     1      34.355 -16.599 -25.006  0.00  0.00    +0.316 C 
BRANCH  26  27
ATOM     27  OD1 UNL     1      34.934 -17.806 -24.789  0.00  0.00    -0.480 OA
ATOM     28  HD1 UNL     1      34.463 -18.477 -24.336  0.00  0.00    +0.295 HD
ENDBRANCH  26  27
ENDBRANCH  24  26
ENDBRANCH  21  24
ENDBRANCH  18  21
ENDBRANCH   3  19
TORSDOF 9
ENDMDL
MODEL 9
REMARK VINA RESULT:      -9.1      3.951     11.032
REMARK  Name = 5288878
REMARK  9 active torsions:
REMARK  status: ('A' for Active; 'I' for Inactive)
REMARK    1  A    between atoms: C_2  and  C_7
REMARK    2  A    between atoms: C_3  and  C_19
REMARK    3  A    between atoms: C_10  and  C_14
REMARK    4  A    between atoms: C_14  and  O_15
REMARK    5  A    between atoms: N_18  and  CA_21
REMARK    6  A    between atoms: CA_21  and  C_23
REMARK    7  A    between atoms: CA_21  and  CB_24
REMARK    8  A    between atoms: CB_24  and  CG_26
REMARK    9  A    between atoms: CG_26  and  OD1_27
REMARK                            x       y       z     vdW  Elec       q    Type
REMARK                         _______ _______ _______ _____ _____    ______ ____
ROOT
ATOM      1  N   UNL     1      31.157 -11.896 -20.909  0.00  0.00    -0.242 NA
ATOM      2  C   UNL     1      31.768  -9.951 -22.208  0.00  0.00    +0.019 C 
ATOM      3  C   UNL     1      32.674 -12.081 -22.745  0.00  0.00    +0.072 C 
ATOM      4  C   UNL     1      32.588 -10.737 -23.011  0.00  0.00    +0.008 C 
ATOM      5  C   UNL     1      31.081 -10.573 -21.178  0.00  0.00    +0.099 C 
ATOM      6  C   UNL     1      31.963 -12.627 -21.710  0.00  0.00    +0.103 C 
ENDROOT
BRANCH   2   7
ATOM      7  C   UNL     1      31.639  -8.532 -22.439  0.00  0.00    +0.002 C 
ATOM      8  C   UNL     1      31.993  -7.624 -21.439  0.00  0.00    +0.000 C 
ATOM      9  C   UNL     1      31.157  -8.063 -23.663  0.00  0.00    +0.000 C 
ATOM     10  C   UNL     1      31.386  -5.786 -22.885  0.00  0.00    +0.075 C 
ATOM     11  C   UNL     1      31.866  -6.253 -21.662  0.00  0.00    +0.006 C 
ATOM     12  C   UNL     1      31.031  -6.691 -23.886  0.00  0.00    +0.006 C 
BRANCH  10  14
ATOM     13  O   UNL     1      31.815  -3.723 -24.018  0.00  0.00    -0.245 OA
ATOM     14  C   UNL     1      31.254  -4.356 -23.118  0.00  0.00    +0.338 C 
BRANCH  14  15
ATOM     15  O   UNL     1      30.423  -3.758 -22.222  0.00  0.00    -0.477 OA
ATOM     16  H   UNL     1      30.055  -4.256 -21.518  0.00  0.00    +0.295 HD
ENDBRANCH  14  15
ENDBRANCH  10  14
ENDBRANCH   2   7
BRANCH   3  19
ATOM     17  O   UNL     1      34.066 -12.478 -24.590  0.00  0.00    -0.270 OA
ATOM     18  N   UNL     1      33.711 -14.252 -23.140  0.00  0.00    -0.295 N 
ATOM     19  C   ACE A   0      33.540 -12.948 -23.585  0.00  0.00    +0.248 C 
ATOM     20  H   UNL     1      33.246 -14.538 -22.320  0.00  0.00    +0.150 HD
BRANCH  18  21
ATOM     21  CA  UNL     1      34.540 -15.206 -23.831  0.00  0.00    +0.148 C 
BRANCH  21  23
ATOM     22  O   UNL     1      33.923 -15.753 -26.105  0.00  0.00    -0.286 OA
ATOM     23  C   UNL     1      33.680 -15.839 -24.904  0.00  0.00    +0.227 C 
ENDBRANCH  21  23
BRANCH  21  24
ATOM     24  CB  UNL     1      35.129 -16.241 -22.883  0.00  0.00    +0.137 C 
BRANCH  24  26
ATOM     25  OD2 UNL     1      34.992 -15.316 -20.655  0.00  0.00    -0.250 OA
ATOM     26  CG  UNL     1      34.559 -16.096 -21.493  0.00  0.00    +0.316 C 
BRANCH  26  27
ATOM     27  OD1 UNL     1      33.524 -16.941 -21.264  0.00  0.00    -0.480 OA
ATOM     28  HD1 UNL     1      33.061 -17.321 -21.984  0.00  0.00    +0.295 HD
ENDBRANCH  26  27
ENDBRANCH  24  26
ENDBRANCH  21  24
ENDBRANCH  18  21
ENDBRANCH   3  19
TORSDOF 9
ENDMDL
