MODEL 1
REMARK VINA RESULT:      -8.5      0.000      0.000
REMARK  Name = 11954353
REMARK  5 active torsions:
REMARK  status: ('A' for Active; 'I' for Inactive)
REMARK    1  A    between atoms: C_8  and  C_27
REMARK    2  A    between atoms: C_12  and  O_24
REMARK    3  A    between atoms: C_27  and  C_28
REMARK    4  A    between atoms: C_28  and  O_29
REMARK    5  A    between atoms: O_29  and  C_31
REMARK                            x       y       z     vdW  Elec       q    Type
REMARK                         _______ _______ _______ _____ _____    ______ ____
ROOT
ATOM      1 CL   UNL     1      35.968 -25.974 -15.048  0.00  0.00    -0.113 Cl
ATOM      2  F   UNL     1      38.231 -22.475 -16.930  0.00  0.00    -0.233 F 
ATOM      3  O   UNL     1      40.897 -25.992 -14.786  0.00  0.00    -0.287 OA
ATOM      4  C   UNL     1      32.865 -23.852 -14.075  0.00  0.00    +0.009 C 
ATOM      5  C   UNL     1      33.794 -23.643 -15.290  0.00  0.00    +0.002 C 
ATOM      6  C   UNL     1      35.236 -23.283 -14.895  0.00  0.00    +0.020 C 
ATOM      7  C   UNL     1      35.875 -24.429 -14.009  0.00  0.00    +0.098 C 
ATOM      8  C   UNL     1      31.562 -24.200 -14.836  0.00  0.00    +0.061 C 
ATOM      9  C   UNL     1      32.996 -22.700 -16.187  0.00  0.00    +0.000 C 
ATOM     10  C   UNL     1      33.430 -25.004 -13.223  0.00  0.00    +0.031 C 
ATOM     11  C   UNL     1      31.533 -23.189 -16.016  0.00  0.00    +0.007 C 
ATOM     12  C   UNL     1      34.919 -24.820 -12.824  0.00  0.00    +0.125 C 
ATOM     13  C   UNL     1      37.376 -24.057 -13.609  0.00  0.00    +0.051 C 
ATOM     14  C   UNL     1      36.095 -22.953 -16.128  0.00  0.00    +0.041 C 
ATOM     15  C   UNL     1      32.674 -22.582 -13.204  0.00  0.00    +0.001 C 
ATOM     16  C   UNL     1      37.542 -22.640 -15.762  0.00  0.00    +0.180 C 
ATOM     17  C   UNL     1      38.148 -23.719 -14.897  0.00  0.00    -0.005 C 
ATOM     18  C   UNL     1      30.990 -23.828 -17.290  0.00  0.00    +0.000 C 
ATOM     19  C   UNL     1      37.496 -22.822 -12.677  0.00  0.00    +0.010 C 
ATOM     20  C   UNL     1      38.036 -25.195 -12.841  0.00  0.00    -0.018 C 
ATOM     21  C   UNL     1      39.275 -24.350 -15.265  0.00  0.00    +0.036 C 
ATOM     22  C   UNL     1      39.159 -25.821 -13.208  0.00  0.00    +0.038 C 
ATOM     23  C   UNL     1      39.861 -25.433 -14.445  0.00  0.00    +0.195 C 
ENDROOT
BRANCH  12  24
ATOM     24  O   UNL     1      34.980 -23.848 -11.785  0.00  0.00    -0.383 OA
ATOM     25  H   UNL     1      35.908 -23.684 -11.551  0.00  0.00    +0.210 HD
ENDBRANCH  12  24
BRANCH   8  27
ATOM     26  O   UNL     1      30.259 -24.700 -12.904  0.00  0.00    -0.292 OA
ATOM     27  C   UNL     1      30.328 -24.123 -13.989  0.00  0.00    +0.194 C 
BRANCH  27  28
ATOM     28  C   UNL     1      29.183 -23.302 -14.545  0.00  0.00    +0.272 C 
BRANCH  28  29
ATOM     29  O   UNL     1      28.307 -24.115 -15.297  0.00  0.00    -0.440 OA
BRANCH  29  31
ATOM     30  O   UNL     1      27.650 -24.047 -17.510  0.00  0.00    -0.250 OA
ATOM     31  C   UNL     1      27.741 -23.534 -16.402  0.00  0.00    +0.318 C 
ATOM     32  C   UNL     1      27.238 -22.162 -16.068  0.00  0.00    +0.121 C 
ENDBRANCH  29  31
ENDBRANCH  28  29
ENDBRANCH  27  28
ENDBRANCH   8  27
TORSDOF 5
ENDMDL
MODEL 2
REMARK VINA RESULT:      -6.2     14.516     16.882
REMARK  Name = 11954353
REMARK  5 active torsions:
REMARK  status: ('A' for Active; 'I' for Inactive)
REMARK    1  A    between atoms: C_8  and  C_27
REMARK    2  A    between atoms: C_12  and  O_24
REMARK    3  A    between atoms: C_27  and  C_28
REMARK    4  A    between atoms: C_28  and  O_29
REMARK    5  A    between atoms: O_29  and  C_31
REMARK                            x       y       z     vdW  Elec       q    Type
REMARK                         _______ _______ _______ _____ _____    ______ ____
ROOT
ATOM      1 CL   UNL     1      30.512  -9.402 -23.153  0.00  0.00    -0.113 Cl
ATOM      2  F   UNL     1      31.995  -7.700 -19.176  0.00  0.00    -0.233 F 
ATOM      3  O   UNL     1      30.044  -4.547 -22.390  0.00  0.00    -0.287 OA
ATOM      4  C   UNL     1      33.170 -12.230 -23.293  0.00  0.00    +0.009 C 
ATOM      5  C   UNL     1      32.530 -11.613 -22.031  0.00  0.00    +0.002 C 
ATOM      6  C   UNL     1      32.872 -10.125 -21.844  0.00  0.00    +0.020 C 
ATOM      7  C   UNL     1      32.371  -9.278 -23.084  0.00  0.00    +0.098 C 
ATOM      8  C   UNL     1      32.611 -13.669 -23.157  0.00  0.00    +0.061 C 
ATOM      9  C   UNL     1      32.879 -12.615 -20.933  0.00  0.00    +0.000 C 
ATOM     10  C   UNL     1      32.654 -11.462 -24.525  0.00  0.00    +0.031 C 
ATOM     11  C   UNL     1      32.759 -13.989 -21.644  0.00  0.00    +0.007 C 
ATOM     12  C   UNL     1      32.848  -9.925 -24.435  0.00  0.00    +0.125 C 
ATOM     13  C   UNL     1      32.718  -7.732 -22.883  0.00  0.00    +0.051 C 
ATOM     14  C   UNL     1      32.328  -9.582 -20.511  0.00  0.00    +0.041 C 
ATOM     15  C   UNL     1      34.721 -12.236 -23.274  0.00  0.00    +0.001 C 
ATOM     16  C   UNL     1      32.615  -8.095 -20.328  0.00  0.00    +0.180 C 
ATOM     17  C   UNL     1      32.160  -7.287 -21.519  0.00  0.00    -0.005 C 
ATOM     18  C   UNL     1      31.578 -14.802 -21.123  0.00  0.00    +0.000 C 
ATOM     19  C   UNL     1      34.237  -7.419 -22.870  0.00  0.00    +0.010 C 
ATOM     20  C   UNL     1      32.154  -6.891 -24.022  0.00  0.00    -0.018 C 
ATOM     21  C   UNL     1      31.300  -6.266 -21.375  0.00  0.00    +0.036 C 
ATOM     22  C   UNL     1      31.299  -5.874 -23.875  0.00  0.00    +0.038 C 
ATOM     23  C   UNL     1      30.820  -5.485 -22.536  0.00  0.00    +0.195 C 
ENDROOT
BRANCH  12  24
ATOM     24  O   UNL     1      34.224  -9.640 -24.671  0.00  0.00    -0.383 OA
ATOM     25  H   UNL     1      34.337  -9.333 -25.585  0.00  0.00    +0.210 HD
ENDBRANCH  12  24
BRANCH   8  27
ATOM     26  O   UNL     1      33.138 -14.696 -25.242  0.00  0.00    -0.292 OA
ATOM     27  C   UNL     1      33.309 -14.673 -24.024  0.00  0.00    +0.194 C 
BRANCH  27  28
ATOM     28  C   UNL     1      34.227 -15.646 -23.315  0.00  0.00    +0.272 C 
BRANCH  28  29
ATOM     29  O   UNL     1      35.116 -16.250 -24.231  0.00  0.00    -0.440 OA
BRANCH  29  31
ATOM     30  O   UNL     1      34.224 -17.861 -25.625  0.00  0.00    -0.250 OA
ATOM     31  C   UNL     1      34.817 -17.535 -24.606  0.00  0.00    +0.318 C 
ATOM     32  C   UNL     1      35.324 -18.506 -23.583  0.00  0.00    +0.121 C 
ENDBRANCH  29  31
ENDBRANCH  28  29
ENDBRANCH  27  28
ENDBRANCH   8  27
TORSDOF 5
ENDMDL
MODEL 3
REMARK VINA RESULT:      -6.2     10.915     12.690
REMARK  Name = 11954353
REMARK  5 active torsions:
REMARK  status: ('A' for Active; 'I' for Inactive)
REMARK    1  A    between atoms: C_8  and  C_27
REMARK    2  A    between atoms: C_12  and  O_24
REMARK    3  A    between atoms: C_27  and  C_28
REMARK    4  A    between atoms: C_28  and  O_29
REMARK    5  A    between atoms: O_29  and  C_31
REMARK                            x       y       z     vdW  Elec       q    Type
REMARK                         _______ _______ _______ _____ _____    ______ ____
ROOT
ATOM      1 CL   UNL     1      35.519 -16.579 -20.448  0.00  0.00    -0.113 Cl
ATOM      2  F   UNL     1      32.004 -19.438 -19.833  0.00  0.00    -0.233 F 
ATOM      3  O   UNL     1      36.523 -21.326 -19.539  0.00  0.00    -0.287 OA
ATOM      4  C   UNL     1      33.620 -14.280 -22.936  0.00  0.00    +0.009 C 
ATOM      5  C   UNL     1      33.020 -15.079 -21.760  0.00  0.00    +0.002 C 
ATOM      6  C   UNL     1      33.152 -16.602 -21.931  0.00  0.00    +0.020 C 
ATOM      7  C   UNL     1      34.674 -17.019 -22.050  0.00  0.00    +0.098 C 
ATOM      8  C   UNL     1      33.326 -12.850 -22.420  0.00  0.00    +0.061 C 
ATOM      9  C   UNL     1      31.639 -14.454 -21.578  0.00  0.00    +0.000 C 
ATOM     10  C   UNL     1      35.119 -14.622 -23.040  0.00  0.00    +0.031 C 
ATOM     11  C   UNL     1      31.884 -12.946 -21.846  0.00  0.00    +0.007 C 
ATOM     12  C   UNL     1      35.413 -16.143 -23.126  0.00  0.00    +0.125 C 
ATOM     13  C   UNL     1      34.810 -18.602 -22.218  0.00  0.00    +0.051 C 
ATOM     14  C   UNL     1      32.426 -17.363 -20.808  0.00  0.00    +0.041 C 
ATOM     15  C   UNL     1      32.915 -14.534 -24.294  0.00  0.00    +0.001 C 
ATOM     16  C   UNL     1      32.586 -18.875 -20.933  0.00  0.00    +0.180 C 
ATOM     17  C   UNL     1      34.036 -19.275 -21.071  0.00  0.00    -0.005 C 
ATOM     18  C   UNL     1      31.726 -12.106 -20.582  0.00  0.00    +0.000 C 
ATOM     19  C   UNL     1      34.219 -19.152 -23.542  0.00  0.00    +0.010 C 
ATOM     20  C   UNL     1      36.273 -19.027 -22.234  0.00  0.00    -0.018 C 
ATOM     21  C   UNL     1      34.598 -20.145 -20.216  0.00  0.00    +0.036 C 
ATOM     22  C   UNL     1      36.830 -19.895 -21.383  0.00  0.00    +0.038 C 
ATOM     23  C   UNL     1      36.025 -20.521 -20.318  0.00  0.00    +0.195 C 
ENDROOT
BRANCH  12  24
ATOM     24  O   UNL     1      35.088 -16.581 -24.442  0.00  0.00    -0.383 OA
ATOM     25  H   UNL     1      35.832 -16.393 -25.037  0.00  0.00    +0.210 HD
ENDBRANCH  12  24
BRANCH   8  27
ATOM     26  O   UNL     1      34.237 -11.910 -24.411  0.00  0.00    -0.292 OA
ATOM     27  C   UNL     1      33.451 -11.790 -23.472  0.00  0.00    +0.194 C 
BRANCH  27  28
ATOM     28  C   UNL     1      32.561 -10.575 -23.308  0.00  0.00    +0.272 C 
BRANCH  28  29
ATOM     29  O   UNL     1      33.177  -9.429 -23.859  0.00  0.00    -0.440 OA
BRANCH  29  31
ATOM     30  O   UNL     1      33.009  -8.222 -21.897  0.00  0.00    -0.250 OA
ATOM     31  C   UNL     1      33.553  -8.457 -22.968  0.00  0.00    +0.318 C 
ATOM     32  C   UNL     1      34.742  -7.708 -23.487  0.00  0.00    +0.121 C 
ENDBRANCH  29  31
ENDBRANCH  28  29
ENDBRANCH  27  28
ENDBRANCH   8  27
TORSDOF 5
ENDMDL
MODEL 4
REMARK VINA RESULT:      -5.7      2.089      7.988
REMARK  Name = 11954353
REMARK  5 active torsions:
REMARK  status: ('A' for Active; 'I' for Inactive)
REMARK    1  A    between atoms: C_8  and  C_27
REMARK    2  A    between atoms: C_12  and  O_24
REMARK    3  A    between atoms: C_27  and  C_28
REMARK    4  A    between atoms: C_28  and  O_29
REMARK    5  A    between atoms: O_29  and  C_31
REMARK                            x       y       z     vdW  Elec       q    Type
REMARK                         _______ _______ _______ _____ _____    ______ ____
ROOT
ATOM      1 CL   UNL     1      31.987 -22.057 -13.907  0.00  0.00    -0.113 Cl
ATOM      2  F   UNL     1      31.631 -21.960 -18.465  0.00  0.00    -0.233 F 
ATOM      3  O   UNL     1      27.477 -21.648 -15.871  0.00  0.00    -0.287 OA
ATOM      4  C   UNL     1      35.114 -24.360 -13.888  0.00  0.00    +0.009 C 
ATOM      5  C   UNL     1      34.731 -23.317 -14.959  0.00  0.00    +0.002 C 
ATOM      6  C   UNL     1      33.422 -23.655 -15.693  0.00  0.00    +0.020 C 
ATOM      7  C   UNL     1      32.216 -23.741 -14.672  0.00  0.00    +0.098 C 
ATOM      8  C   UNL     1      36.418 -23.699 -13.375  0.00  0.00    +0.061 C 
ATOM      9  C   UNL     1      36.022 -23.137 -15.754  0.00  0.00    +0.000 C 
ATOM     10  C   UNL     1      33.982 -24.424 -12.845  0.00  0.00    +0.031 C 
ATOM     11  C   UNL     1      37.129 -23.216 -14.670  0.00  0.00    +0.007 C 
ATOM     12  C   UNL     1      32.577 -24.669 -13.456  0.00  0.00    +0.125 C 
ATOM     13  C   UNL     1      30.857 -24.083 -15.439  0.00  0.00    +0.051 C 
ATOM     14  C   UNL     1      33.145 -22.667 -16.840  0.00  0.00    +0.041 C 
ATOM     15  C   UNL     1      35.399 -25.774 -14.460  0.00  0.00    +0.001 C 
ATOM     16  C   UNL     1      31.827 -22.956 -17.550  0.00  0.00    +0.180 C 
ATOM     17  C   UNL     1      30.677 -23.063 -16.577  0.00  0.00    -0.005 C 
ATOM     18  C   UNL     1      37.824 -21.875 -14.462  0.00  0.00    +0.000 C 
ATOM     19  C   UNL     1      30.832 -25.491 -16.089  0.00  0.00    +0.010 C 
ATOM     20  C   UNL     1      29.671 -24.071 -14.482  0.00  0.00    -0.018 C 
ATOM     21  C   UNL     1      29.590 -22.285 -16.703  0.00  0.00    +0.036 C 
ATOM     22  C   UNL     1      28.588 -23.297 -14.610  0.00  0.00    +0.038 C 
ATOM     23  C   UNL     1      28.470 -22.355 -15.739  0.00  0.00    +0.195 C 
ENDROOT
BRANCH  12  24
ATOM     24  O   UNL     1      32.490 -26.042 -13.826  0.00  0.00    -0.383 OA
ATOM     25  H   UNL     1      33.350 -26.469 -13.683  0.00  0.00    +0.210 HD
ENDBRANCH  12  24
BRANCH   8  27
ATOM     26  O   UNL     1      36.812 -25.276 -11.633  0.00  0.00    -0.292 OA
ATOM     27  C   UNL     1      37.279 -24.615 -12.559  0.00  0.00    +0.194 C 
BRANCH  27  28
ATOM     28  C   UNL     1      38.744 -24.673 -12.939  0.00  0.00    +0.272 C 
BRANCH  28  29
ATOM     29  O   UNL     1      39.080 -25.953 -13.431  0.00  0.00    -0.440 OA
BRANCH  29  31
ATOM     30  O   UNL     1      41.175 -26.745 -13.993  0.00  0.00    -0.250 OA
ATOM     31  C   UNL     1      40.209 -26.025 -14.207  0.00  0.00    +0.318 C 
ATOM     32  C   UNL     1      40.099 -25.092 -15.374  0.00  0.00    +0.121 C 
ENDBRANCH  29  31
ENDBRANCH  28  29
ENDBRANCH  27  28
ENDBRANCH   8  27
TORSDOF 5
ENDMDL
MODEL 5
REMARK VINA RESULT:      -5.5      1.269      1.629
REMARK  Name = 11954353
REMARK  5 active torsions:
REMARK  status: ('A' for Active; 'I' for Inactive)
REMARK    1  A    between atoms: C_8  and  C_27
REMARK    2  A    between atoms: C_12  and  O_24
REMARK    3  A    between atoms: C_27  and  C_28
REMARK    4  A    between atoms: C_28  and  O_29
REMARK    5  A    between atoms: O_29  and  C_31
REMARK                            x       y       z     vdW  Elec       q    Type
REMARK                         _______ _______ _______ _____ _____    ______ ____
ROOT
ATOM      1 CL   UNL     1      36.042 -25.920 -15.579  0.00  0.00    -0.113 Cl
ATOM      2  F   UNL     1      39.320 -22.786 -16.164  0.00  0.00    -0.233 F 
ATOM      3  O   UNL     1      40.431 -26.735 -13.471  0.00  0.00    -0.287 OA
ATOM      4  C   UNL     1      33.133 -23.350 -15.682  0.00  0.00    +0.009 C 
ATOM      5  C   UNL     1      34.479 -23.266 -16.432  0.00  0.00    +0.002 C 
ATOM      6  C   UNL     1      35.690 -23.150 -15.491  0.00  0.00    +0.020 C 
ATOM      7  C   UNL     1      35.769 -24.404 -14.529  0.00  0.00    +0.098 C 
ATOM      8  C   UNL     1      32.191 -23.468 -16.907  0.00  0.00    +0.061 C 
ATOM      9  C   UNL     1      34.230 -22.186 -17.483  0.00  0.00    +0.000 C 
ATOM     10  C   UNL     1      33.157 -24.598 -14.779  0.00  0.00    +0.031 C 
ATOM     11  C   UNL     1      32.763 -22.437 -17.921  0.00  0.00    +0.007 C 
ATOM     12  C   UNL     1      34.385 -24.665 -13.832  0.00  0.00    +0.125 C 
ATOM     13  C   UNL     1      37.034 -24.287 -13.560  0.00  0.00    +0.051 C 
ATOM     14  C   UNL     1      36.997 -22.934 -16.274  0.00  0.00    +0.041 C 
ATOM     15  C   UNL     1      32.797 -22.088 -14.846  0.00  0.00    +0.001 C 
ATOM     16  C   UNL     1      38.217 -22.866 -15.362  0.00  0.00    +0.180 C 
ATOM     17  C   UNL     1      38.284 -24.048 -14.426  0.00  0.00    -0.005 C 
ATOM     18  C   UNL     1      32.673 -22.952 -19.354  0.00  0.00    +0.000 C 
ATOM     19  C   UNL     1      36.954 -23.110 -12.552  0.00  0.00    +0.010 C 
ATOM     20  C   UNL     1      37.179 -25.535 -12.697  0.00  0.00    -0.018 C 
ATOM     21  C   UNL     1      39.365 -24.843 -14.390  0.00  0.00    +0.036 C 
ATOM     22  C   UNL     1      38.259 -26.323 -12.662  0.00  0.00    +0.038 C 
ATOM     23  C   UNL     1      39.432 -26.024 -13.503  0.00  0.00    +0.195 C 
ENDROOT
BRANCH  12  24
ATOM     24  O   UNL     1      34.173 -23.739 -12.770  0.00  0.00    -0.383 OA
ATOM     25  H   UNL     1      34.702 -22.941 -12.928  0.00  0.00    +0.210 HD
ENDBRANCH  12  24
BRANCH   8  27
ATOM     26  O   UNL     1      30.206 -22.149 -16.883  0.00  0.00    -0.292 OA
ATOM     27  C   UNL     1      30.749 -23.213 -16.588  0.00  0.00    +0.194 C 
BRANCH  27  28
ATOM     28  C   UNL     1      30.010 -24.334 -15.886  0.00  0.00    +0.272 C 
BRANCH  28  29
ATOM     29  O   UNL     1      28.744 -23.894 -15.443  0.00  0.00    -0.440 OA
BRANCH  29  31
ATOM     30  O   UNL     1      27.653 -24.191 -17.457  0.00  0.00    -0.250 OA
ATOM     31  C   UNL     1      27.840 -23.567 -16.421  0.00  0.00    +0.318 C 
ATOM     32  C   UNL     1      27.096 -22.322 -16.045  0.00  0.00    +0.121 C 
ENDBRANCH  29  31
ENDBRANCH  28  29
ENDBRANCH  27  28
ENDBRANCH   8  27
TORSDOF 5
ENDMDL
