MODEL 1
REMARK VINA RESULT:     -10.3      0.000      0.000
REMARK  Name = 131704305
REMARK  9 active torsions:
REMARK  status: ('A' for Active; 'I' for Inactive)
REMARK    1  A    between atoms: N_2  and  C_23
REMARK    2  A    between atoms: N_3  and  C_13
REMARK    3  A    between atoms: C_5  and  O_11
REMARK    4  A    between atoms: C_13  and  C_14
REMARK    5  A    between atoms: C_14  and  C_16
REMARK    6  A    between atoms: C_23  and  C_24
REMARK    7  A    between atoms: C_24  and  N_25
REMARK    8  A    between atoms: N_25  and  C_28
REMARK    9  A    between atoms: C_28  and  C_31
REMARK                            x       y       z     vdW  Elec       q    Type
REMARK                         _______ _______ _______ _____ _____    ______ ____
ROOT
ATOM      1 CL   UNL     1      31.882 -16.003 -20.242  0.00  0.00    -0.136 Cl
ATOM      2  N   UNL     1      32.992 -14.620 -22.156  0.00  0.00    +0.419 N 
ATOM      3  N   UNL     1      35.270 -16.950 -23.459  0.00  0.00    -0.322 N 
ATOM      4  N   UNL     1      34.995 -16.386 -21.207  0.00  0.00    -0.261 NA
ATOM      5  C   UNL     1      34.260 -14.742 -22.881  0.00  0.00    +0.115 C 
ATOM      6  C   UNL     1      34.868 -16.091 -22.467  0.00  0.00    +0.107 C 
ATOM      7  C   UNL     1      33.144 -14.815 -20.709  0.00  0.00    +0.054 C 
ATOM      8  C   UNL     1      34.522 -15.340 -20.295  0.00  0.00    +0.122 C 
ATOM      9  H   UNL     1      32.398 -15.378 -22.495  0.00  0.00    -0.073 HD
ATOM     10  H   UNL     1      35.165 -16.675 -24.398  0.00  0.00    +0.148 HD
ENDROOT
BRANCH   5  11
ATOM     11  O   UNL     1      34.088 -14.698 -24.288  0.00  0.00    -0.398 OA
ATOM     12  H   UNL     1      34.942 -14.843 -24.724  0.00  0.00    +0.208 HD
ENDBRANCH   5  11
BRANCH   3  13
ATOM     13  C   UNL     1      35.835 -18.231 -23.173  0.00  0.00    +0.086 C 
BRANCH  13  14
ATOM     14  C   UNL     1      34.739 -19.268 -22.952  0.00  0.00    -0.000 C 
BRANCH  14  16
ATOM     15  N   UNL     1      35.518 -20.671 -21.113  0.00  0.00    +0.385 N 
ATOM     16  C   UNL     1      34.552 -19.628 -21.479  0.00  0.00    -0.060 C 
ATOM     17  C   UNL     1      33.115 -20.101 -21.219  0.00  0.00    -0.021 C 
ATOM     18  C   UNL     1      32.932 -20.539 -19.769  0.00  0.00    -0.004 C 
ATOM     19  C   UNL     1      33.997 -21.560 -19.380  0.00  0.00    -0.023 C 
ATOM     20  C   UNL     1      35.398 -21.048 -19.705  0.00  0.00    -0.082 C 
ATOM     21  H   UNL     1      36.462 -20.323 -21.284  0.00  0.00    -0.084 HD
ATOM     22  H   UNL     1      35.326 -21.497 -21.681  0.00  0.00    -0.084 HD
ENDBRANCH  14  16
ENDBRANCH  13  14
ENDBRANCH   3  13
BRANCH   2  23
ATOM     23  C   UNL     1      32.315 -13.358 -22.452  0.00  0.00    -0.095 C 
BRANCH  23  24
ATOM     24  C   UNL     1      32.141 -12.542 -21.173  0.00  0.00    -0.104 C 
BRANCH  24  25
ATOM     25  N   UNL     1      30.910 -11.762 -21.239  0.00  0.00    +0.385 N 
ATOM     26  H   UNL     1      30.834 -11.186 -20.401  0.00  0.00    -0.084 HD
ATOM     27  H   UNL     1      30.120 -12.403 -21.303  0.00  0.00    -0.084 HD
BRANCH  25  28
ATOM     28  C   UNL     1      30.906 -10.899 -22.411  0.00  0.00    -0.054 C 
BRANCH  28  31
ATOM     29 CL   UNL     1      35.455 -10.391 -25.892  0.00  0.00    -0.082 Cl
ATOM     30  S   UNL     1      32.560  -7.430 -21.251  0.00  0.00    -0.087 S 
ATOM     31  C   UNL     1      31.735  -9.660 -22.199  0.00  0.00    -0.037 C 
ATOM     32  C   UNL     1      32.910  -9.340 -22.958  0.00  0.00    +0.001 C 
ATOM     33  C   UNL     1      33.469  -8.129 -22.539  0.00  0.00    +0.029 C 
ATOM     34  C   UNL     1      31.439  -8.713 -21.248  0.00  0.00    +0.029 C 
ATOM     35  C   UNL     1      33.544 -10.041 -24.013  0.00  0.00    +0.012 C 
ATOM     36  C   UNL     1      34.633  -7.608 -23.139  0.00  0.00    +0.007 C 
ATOM     37  C   UNL     1      34.697  -9.526 -24.611  0.00  0.00    +0.058 C 
ATOM     38  C   UNL     1      35.235  -8.322 -24.177  0.00  0.00    +0.012 C 
ENDBRANCH  28  31
ENDBRANCH  25  28
ENDBRANCH  24  25
ENDBRANCH  23  24
ENDBRANCH   2  23
TORSDOF 9
ENDMDL
MODEL 2
REMARK VINA RESULT:     -10.3      2.175      3.066
REMARK  Name = 131704305
REMARK  9 active torsions:
REMARK  status: ('A' for Active; 'I' for Inactive)
REMARK    1  A    between atoms: N_2  and  C_23
REMARK    2  A    between atoms: N_3  and  C_13
REMARK    3  A    between atoms: C_5  and  O_11
REMARK    4  A    between atoms: C_13  and  C_14
REMARK    5  A    between atoms: C_14  and  C_16
REMARK    6  A    between atoms: C_23  and  C_24
REMARK    7  A    between atoms: C_24  and  N_25
REMARK    8  A    between atoms: N_25  and  C_28
REMARK    9  A    between atoms: C_28  and  C_31
REMARK                            x       y       z     vdW  Elec       q    Type
REMARK                         _______ _______ _______ _____ _____    ______ ____
ROOT
ATOM      1 CL   UNL     1      31.997 -15.674 -20.972  0.00  0.00    -0.136 Cl
ATOM      2  N   UNL     1      33.747 -15.567 -22.903  0.00  0.00    +0.419 N 
ATOM      3  N   UNL     1      35.841 -18.262 -22.087  0.00  0.00    -0.322 N 
ATOM      4  N   UNL     1      35.139 -16.563 -20.644  0.00  0.00    -0.261 NA
ATOM      5  C   UNL     1      35.113 -16.080 -23.054  0.00  0.00    +0.115 C 
ATOM      6  C   UNL     1      35.367 -16.997 -21.848  0.00  0.00    +0.107 C 
ATOM      7  C   UNL     1      33.517 -14.948 -21.592  0.00  0.00    +0.054 C 
ATOM      8  C   UNL     1      34.647 -15.183 -20.586  0.00  0.00    +0.122 C 
ATOM      9  H   UNL     1      33.132 -16.378 -22.959  0.00  0.00    -0.073 HD
ATOM     10  H   UNL     1      36.011 -18.539 -23.017  0.00  0.00    +0.148 HD
ENDROOT
BRANCH   5  11
ATOM     11  O   UNL     1      35.290 -16.804 -24.261  0.00  0.00    -0.398 OA
ATOM     12  H   UNL     1      35.054 -16.241 -25.014  0.00  0.00    +0.208 HD
ENDBRANCH   5  11
BRANCH   3  13
ATOM     13  C   UNL     1      36.097 -19.192 -21.032  0.00  0.00    +0.086 C 
BRANCH  13  14
ATOM     14  C   UNL     1      34.958 -20.197 -20.911  0.00  0.00    -0.000 C 
BRANCH  14  16
ATOM     15  N   UNL     1      34.059 -21.592 -19.120  0.00  0.00    +0.385 N 
ATOM     16  C   UNL     1      35.260 -21.319 -19.919  0.00  0.00    -0.060 C 
ATOM     17  C   UNL     1      36.440 -20.934 -19.014  0.00  0.00    -0.021 C 
ATOM     18  C   UNL     1      36.705 -22.010 -17.966  0.00  0.00    -0.004 C 
ATOM     19  C   UNL     1      35.427 -22.342 -17.203  0.00  0.00    -0.023 C 
ATOM     20  C   UNL     1      34.283 -22.672 -18.160  0.00  0.00    -0.082 C 
ATOM     21  H   UNL     1      33.298 -21.858 -19.746  0.00  0.00    -0.084 HD
ATOM     22  H   UNL     1      33.824 -20.747 -18.600  0.00  0.00    -0.084 HD
ENDBRANCH  14  16
ENDBRANCH  13  14
ENDBRANCH   3  13
BRANCH   2  23
ATOM     23  C   UNL     1      33.384 -14.657 -23.989  0.00  0.00    -0.095 C 
BRANCH  23  24
ATOM     24  C   UNL     1      33.125 -13.257 -23.439  0.00  0.00    -0.104 C 
BRANCH  24  25
ATOM     25  N   UNL     1      34.181 -12.346 -23.867  0.00  0.00    +0.385 N 
ATOM     26  H   UNL     1      34.861 -12.862 -24.425  0.00  0.00    -0.084 HD
ATOM     27  H   UNL     1      34.626 -11.951 -23.039  0.00  0.00    -0.084 HD
BRANCH  25  28
ATOM     28  C   UNL     1      33.635 -11.259 -24.666  0.00  0.00    -0.054 C 
BRANCH  28  31
ATOM     29 CL   UNL     1      30.662 -10.612 -19.786  0.00  0.00    -0.082 Cl
ATOM     30  S   UNL     1      34.594  -7.539 -23.499  0.00  0.00    -0.087 S 
ATOM     31  C   UNL     1      33.805  -9.925 -23.989  0.00  0.00    -0.037 C 
ATOM     32  C   UNL     1      33.154  -9.557 -22.763  0.00  0.00    +0.001 C 
ATOM     33  C   UNL     1      33.502  -8.260 -22.375  0.00  0.00    +0.029 C 
ATOM     34  C   UNL     1      34.607  -8.927 -24.488  0.00  0.00    +0.029 C 
ATOM     35  C   UNL     1      32.260 -10.285 -21.940  0.00  0.00    +0.012 C 
ATOM     36  C   UNL     1      32.984  -7.678 -21.201  0.00  0.00    +0.007 C 
ATOM     37  C   UNL     1      31.747  -9.712 -20.774  0.00  0.00    +0.058 C 
ATOM     38  C   UNL     1      32.106  -8.422 -20.410  0.00  0.00    +0.012 C 
ENDBRANCH  28  31
ENDBRANCH  25  28
ENDBRANCH  24  25
ENDBRANCH  23  24
ENDBRANCH   2  23
TORSDOF 9
ENDMDL
MODEL 3
REMARK VINA RESULT:     -10.2      1.969      2.365
REMARK  Name = 131704305
REMARK  9 active torsions:
REMARK  status: ('A' for Active; 'I' for Inactive)
REMARK    1  A    between atoms: N_2  and  C_23
REMARK    2  A    between atoms: N_3  and  C_13
REMARK    3  A    between atoms: C_5  and  O_11
REMARK    4  A    between atoms: C_13  and  C_14
REMARK    5  A    between atoms: C_14  and  C_16
REMARK    6  A    between atoms: C_23  and  C_24
REMARK    7  A    between atoms: C_24  and  N_25
REMARK    8  A    between atoms: N_25  and  C_28
REMARK    9  A    between atoms: C_28  and  C_31
REMARK                            x       y       z     vdW  Elec       q    Type
REMARK                         _______ _______ _______ _____ _____    ______ ____
ROOT
ATOM      1 CL   UNL     1      31.912 -15.484 -20.610  0.00  0.00    -0.136 Cl
ATOM      2  N   UNL     1      33.298 -14.952 -22.755  0.00  0.00    +0.419 N 
ATOM      3  N   UNL     1      35.530 -17.660 -22.823  0.00  0.00    -0.322 N 
ATOM      4  N   UNL     1      35.072 -16.283 -20.990  0.00  0.00    -0.261 NA
ATOM      5  C   UNL     1      34.621 -15.371 -23.228  0.00  0.00    +0.115 C 
ATOM      6  C   UNL     1      35.091 -16.480 -22.275  0.00  0.00    +0.107 C 
ATOM      7  C   UNL     1      33.292 -14.592 -21.331  0.00  0.00    +0.054 C 
ATOM      8  C   UNL     1      34.584 -14.958 -20.593  0.00  0.00    +0.122 C 
ATOM      9  H   UNL     1      32.690 -15.766 -22.856  0.00  0.00    -0.073 HD
ATOM     10  H   UNL     1      35.538 -17.755 -23.802  0.00  0.00    +0.148 HD
ENDROOT
BRANCH   5  11
ATOM     11  O   UNL     1      34.593 -15.856 -24.561  0.00  0.00    -0.398 OA
ATOM     12  H   UNL     1      35.494 -15.877 -24.917  0.00  0.00    +0.208 HD
ENDBRANCH   5  11
BRANCH   3  13
ATOM     13  C   UNL     1      35.975 -18.754 -22.018  0.00  0.00    +0.086 C 
BRANCH  13  14
ATOM     14  C   UNL     1      34.873 -19.797 -21.868  0.00  0.00    -0.000 C 
BRANCH  14  16
ATOM     15  N   UNL     1      35.884 -21.233 -20.172  0.00  0.00    +0.385 N 
ATOM     16  C   UNL     1      34.756 -20.334 -20.442  0.00  0.00    -0.060 C 
ATOM     17  C   UNL     1      33.419 -21.065 -20.252  0.00  0.00    -0.021 C 
ATOM     18  C   UNL     1      33.318 -21.676 -18.857  0.00  0.00    -0.004 C 
ATOM     19  C   UNL     1      34.541 -22.539 -18.560  0.00  0.00    -0.023 C 
ATOM     20  C   UNL     1      35.835 -21.768 -18.812  0.00  0.00    -0.082 C 
ATOM     21  H   UNL     1      36.756 -20.716 -20.293  0.00  0.00    -0.084 HD
ATOM     22  H   UNL     1      35.832 -22.016 -20.825  0.00  0.00    -0.084 HD
ENDBRANCH  14  16
ENDBRANCH  13  14
ENDBRANCH   3  13
BRANCH   2  23
ATOM     23  C   UNL     1      32.741 -13.877 -23.575  0.00  0.00    -0.095 C 
BRANCH  23  24
ATOM     24  C   UNL     1      33.765 -12.757 -23.740  0.00  0.00    -0.104 C 
BRANCH  24  25
ATOM     25  N   UNL     1      33.117 -11.458 -23.592  0.00  0.00    +0.385 N 
ATOM     26  H   UNL     1      32.942 -11.066 -24.517  0.00  0.00    -0.084 HD
ATOM     27  H   UNL     1      33.732 -10.846 -23.057  0.00  0.00    -0.084 HD
BRANCH  25  28
ATOM     28  C   UNL     1      31.854 -11.588 -22.881  0.00  0.00    -0.054 C 
BRANCH  28  31
ATOM     29 CL   UNL     1      32.450  -5.911 -23.574  0.00  0.00    -0.082 Cl
ATOM     30  S   UNL     1      31.727 -10.191 -19.119  0.00  0.00    -0.087 S 
ATOM     31  C   UNL     1      31.843 -10.787 -21.607  0.00  0.00    -0.037 C 
ATOM     32  C   UNL     1      31.977  -9.359 -21.555  0.00  0.00    +0.001 C 
ATOM     33  C   UNL     1      31.930  -8.894 -20.237  0.00  0.00    +0.029 C 
ATOM     34  C   UNL     1      31.701 -11.356 -20.364  0.00  0.00    +0.029 C 
ATOM     35  C   UNL     1      32.141  -8.410 -22.594  0.00  0.00    +0.012 C 
ATOM     36  C   UNL     1      32.043  -7.522 -19.935  0.00  0.00    +0.007 C 
ATOM     37  C   UNL     1      32.252  -7.050 -22.298  0.00  0.00    +0.058 C 
ATOM     38  C   UNL     1      32.203  -6.612 -20.982  0.00  0.00    +0.012 C 
ENDBRANCH  28  31
ENDBRANCH  25  28
ENDBRANCH  24  25
ENDBRANCH  23  24
ENDBRANCH   2  23
TORSDOF 9
ENDMDL
MODEL 4
REMARK VINA RESULT:     -10.0      3.650      9.744
REMARK  Name = 131704305
REMARK  9 active torsions:
REMARK  status: ('A' for Active; 'I' for Inactive)
REMARK    1  A    between atoms: N_2  and  C_23
REMARK    2  A    between atoms: N_3  and  C_13
REMARK    3  A    between atoms: C_5  and  O_11
REMARK    4  A    between atoms: C_13  and  C_14
REMARK    5  A    between atoms: C_14  and  C_16
REMARK    6  A    between atoms: C_23  and  C_24
REMARK    7  A    between atoms: C_24  and  N_25
REMARK    8  A    between atoms: N_25  and  C_28
REMARK    9  A    between atoms: C_28  and  C_31
REMARK                            x       y       z     vdW  Elec       q    Type
REMARK                         _______ _______ _______ _____ _____    ______ ____
ROOT
ATOM      1 CL   UNL     1      31.620 -10.384 -19.987  0.00  0.00    -0.136 Cl
ATOM      2  N   UNL     1      32.465 -11.672 -22.092  0.00  0.00    +0.419 N 
ATOM      3  N   UNL     1      34.387  -9.205 -23.684  0.00  0.00    -0.322 N 
ATOM      4  N   UNL     1      32.203  -8.965 -22.887  0.00  0.00    -0.261 NA
ATOM      5  C   UNL     1      32.975 -11.242 -23.398  0.00  0.00    +0.115 C 
ATOM      6  C   UNL     1      33.173  -9.722 -23.306  0.00  0.00    +0.107 C 
ATOM      7  C   UNL     1      31.281 -10.915 -21.667  0.00  0.00    +0.054 C 
ATOM      8  C   UNL     1      30.979  -9.694 -22.541  0.00  0.00    +0.122 C 
ATOM      9  H   UNL     1      33.204 -11.467 -21.418  0.00  0.00    -0.073 HD
ATOM     10  H   UNL     1      35.086  -9.819 -24.007  0.00  0.00    +0.148 HD
ENDROOT
BRANCH   5  11
ATOM     11  O   UNL     1      34.199 -11.873 -23.737  0.00  0.00    -0.398 OA
ATOM     12  H   UNL     1      34.883 -11.200 -23.876  0.00  0.00    +0.208 HD
ENDBRANCH   5  11
BRANCH   3  13
ATOM     13  C   UNL     1      34.672  -7.805 -23.623  0.00  0.00    +0.086 C 
BRANCH  13  14
ATOM     14  C   UNL     1      34.278  -7.117 -24.925  0.00  0.00    -0.000 C 
BRANCH  14  16
ATOM     15  N   UNL     1      32.163  -6.285 -24.033  0.00  0.00    +0.385 N 
ATOM     16  C   UNL     1      33.407  -5.882 -24.702  0.00  0.00    -0.060 C 
ATOM     17  C   UNL     1      33.106  -5.188 -26.038  0.00  0.00    -0.021 C 
ATOM     18  C   UNL     1      32.171  -3.998 -25.844  0.00  0.00    -0.004 C 
ATOM     19  C   UNL     1      30.924  -4.416 -25.073  0.00  0.00    -0.023 C 
ATOM     20  C   UNL     1      31.291  -5.139 -23.778  0.00  0.00    -0.082 C 
ATOM     21  H   UNL     1      32.394  -6.730 -23.144  0.00  0.00    -0.084 HD
ATOM     22  H   UNL     1      31.667  -6.933 -24.646  0.00  0.00    -0.084 HD
ENDBRANCH  14  16
ENDBRANCH  13  14
ENDBRANCH   3  13
BRANCH   2  23
ATOM     23  C   UNL     1      32.215 -13.113 -22.052  0.00  0.00    -0.095 C 
BRANCH  23  24
ATOM     24  C   UNL     1      32.321 -13.626 -20.618  0.00  0.00    -0.104 C 
BRANCH  24  25
ATOM     25  N   UNL     1      32.763 -15.016 -20.614  0.00  0.00    +0.385 N 
ATOM     26  H   UNL     1      32.330 -15.506 -21.397  0.00  0.00    -0.084 HD
ATOM     27  H   UNL     1      32.489 -15.443 -19.730  0.00  0.00    -0.084 HD
BRANCH  25  28
ATOM     28  C   UNL     1      34.211 -15.099 -20.742  0.00  0.00    -0.054 C 
BRANCH  28  31
ATOM     29 CL   UNL     1      33.217 -14.945 -26.404  0.00  0.00    -0.082 Cl
ATOM     30  S   UNL     1      35.591 -18.651 -22.009  0.00  0.00    -0.087 S 
ATOM     31  C   UNL     1      34.637 -16.330 -21.497  0.00  0.00    -0.037 C 
ATOM     32  C   UNL     1      34.480 -16.498 -22.914  0.00  0.00    +0.001 C 
ATOM     33  C   UNL     1      34.968 -17.740 -23.334  0.00  0.00    +0.029 C 
ATOM     34  C   UNL     1      35.222 -17.417 -20.892  0.00  0.00    +0.029 C 
ATOM     35  C   UNL     1      33.933 -15.629 -23.890  0.00  0.00    +0.012 C 
ATOM     36  C   UNL     1      34.920 -18.131 -24.687  0.00  0.00    +0.007 C 
ATOM     37  C   UNL     1      33.886 -16.014 -25.232  0.00  0.00    +0.058 C 
ATOM     38  C   UNL     1      34.374 -17.252 -25.625  0.00  0.00    +0.012 C 
ENDBRANCH  28  31
ENDBRANCH  25  28
ENDBRANCH  24  25
ENDBRANCH  23  24
ENDBRANCH   2  23
TORSDOF 9
ENDMDL
MODEL 5
REMARK VINA RESULT:      -9.8      4.220      7.350
REMARK  Name = 131704305
REMARK  9 active torsions:
REMARK  status: ('A' for Active; 'I' for Inactive)
REMARK    1  A    between atoms: N_2  and  C_23
REMARK    2  A    between atoms: N_3  and  C_13
REMARK    3  A    between atoms: C_5  and  O_11
REMARK    4  A    between atoms: C_13  and  C_14
REMARK    5  A    between atoms: C_14  and  C_16
REMARK    6  A    between atoms: C_23  and  C_24
REMARK    7  A    between atoms: C_24  and  N_25
REMARK    8  A    between atoms: N_25  and  C_28
REMARK    9  A    between atoms: C_28  and  C_31
REMARK                            x       y       z     vdW  Elec       q    Type
REMARK                         _______ _______ _______ _____ _____    ______ ____
ROOT
ATOM      1 CL   UNL     1      37.034 -20.389 -18.814  0.00  0.00    -0.136 Cl
ATOM      2  N   UNL     1      34.785 -20.022 -20.083  0.00  0.00    +0.419 N 
ATOM      3  N   UNL     1      32.675 -22.274 -18.411  0.00  0.00    -0.322 N 
ATOM      4  N   UNL     1      34.794 -22.740 -19.281  0.00  0.00    -0.261 NA
ATOM      5  C   UNL     1      33.574 -20.834 -20.240  0.00  0.00    +0.115 C 
ATOM      6  C   UNL     1      33.715 -22.015 -19.269  0.00  0.00    +0.107 C 
ATOM      7  C   UNL     1      36.017 -20.807 -20.232  0.00  0.00    +0.054 C 
ATOM      8  C   UNL     1      35.788 -22.320 -20.273  0.00  0.00    +0.122 C 
ATOM      9  H   UNL     1      34.771 -19.675 -19.123  0.00  0.00    -0.073 HD
ATOM     10  H   UNL     1      31.873 -21.704 -18.451  0.00  0.00    +0.148 HD
ENDROOT
BRANCH   5  11
ATOM     11  O   UNL     1      32.391 -20.106 -19.953  0.00  0.00    -0.398 OA
ATOM     12  H   UNL     1      32.474 -19.683 -19.084  0.00  0.00    +0.208 HD
ENDBRANCH   5  11
BRANCH   3  13
ATOM     13  C   UNL     1      32.717 -23.342 -17.463  0.00  0.00    +0.086 C 
BRANCH  13  14
ATOM     14  C   UNL     1      32.695 -22.801 -16.039  0.00  0.00    -0.000 C 
BRANCH  14  16
ATOM     15  N   UNL     1      31.683 -24.492 -14.598  0.00  0.00    +0.385 N 
ATOM     16  C   UNL     1      31.440 -23.209 -15.269  0.00  0.00    -0.060 C 
ATOM     17  C   UNL     1      30.236 -23.310 -16.217  0.00  0.00    -0.021 C 
ATOM     18  C   UNL     1      28.991 -23.793 -15.479  0.00  0.00    -0.004 C 
ATOM     19  C   UNL     1      29.286 -25.082 -14.718  0.00  0.00    -0.023 C 
ATOM     20  C   UNL     1      30.518 -24.929 -13.829  0.00  0.00    -0.082 C 
ATOM     21  H   UNL     1      32.478 -24.391 -13.966  0.00  0.00    -0.084 HD
ATOM     22  H   UNL     1      31.874 -25.195 -15.313  0.00  0.00    -0.084 HD
ENDBRANCH  14  16
ENDBRANCH  13  14
ENDBRANCH   3  13
BRANCH   2  23
ATOM     23  C   UNL     1      34.784 -18.863 -20.975  0.00  0.00    -0.095 C 
BRANCH  23  24
ATOM     24  C   UNL     1      36.200 -18.577 -21.468  0.00  0.00    -0.104 C 
BRANCH  24  25
ATOM     25  N   UNL     1      36.155 -17.919 -22.769  0.00  0.00    +0.385 N 
ATOM     26  H   UNL     1      36.906 -18.285 -23.354  0.00  0.00    -0.084 HD
ATOM     27  H   UNL     1      36.268 -16.915 -22.631  0.00  0.00    -0.084 HD
BRANCH  25  28
ATOM     28  C   UNL     1      34.879 -18.158 -23.426  0.00  0.00    -0.054 C 
BRANCH  28  31
ATOM     29 CL   UNL     1      32.612 -14.223 -19.898  0.00  0.00    -0.082 Cl
ATOM     30  S   UNL     1      33.742 -15.233 -25.931  0.00  0.00    -0.087 S 
ATOM     31  C   UNL     1      34.357 -16.920 -24.105  0.00  0.00    -0.037 C 
ATOM     32  C   UNL     1      33.753 -15.818 -23.412  0.00  0.00    +0.001 C 
ATOM     33  C   UNL     1      33.366 -14.811 -24.302  0.00  0.00    +0.029 C 
ATOM     34  C   UNL     1      34.411 -16.730 -25.466  0.00  0.00    +0.029 C 
ATOM     35  C   UNL     1      33.510 -15.620 -22.031  0.00  0.00    +0.012 C 
ATOM     36  C   UNL     1      32.748 -13.627 -23.851  0.00  0.00    +0.007 C 
ATOM     37  C   UNL     1      32.899 -14.446 -21.581  0.00  0.00    +0.058 C 
ATOM     38  C   UNL     1      32.523 -13.462 -22.483  0.00  0.00    +0.012 C 
ENDBRANCH  28  31
ENDBRANCH  25  28
ENDBRANCH  24  25
ENDBRANCH  23  24
ENDBRANCH   2  23
TORSDOF 9
ENDMDL
MODEL 6
REMARK VINA RESULT:      -9.6      4.177     11.168
REMARK  Name = 131704305
REMARK  9 active torsions:
REMARK  status: ('A' for Active; 'I' for Inactive)
REMARK    1  A    between atoms: N_2  and  C_23
REMARK    2  A    between atoms: N_3  and  C_13
REMARK    3  A    between atoms: C_5  and  O_11
REMARK    4  A    between atoms: C_13  and  C_14
REMARK    5  A    between atoms: C_14  and  C_16
REMARK    6  A    between atoms: C_23  and  C_24
REMARK    7  A    between atoms: C_24  and  N_25
REMARK    8  A    between atoms: N_25  and  C_28
REMARK    9  A    between atoms: C_28  and  C_31
REMARK                            x       y       z     vdW  Elec       q    Type
REMARK                         _______ _______ _______ _____ _____    ______ ____
ROOT
ATOM      1 CL   UNL     1      33.837 -18.798 -24.486  0.00  0.00    -0.136 Cl
ATOM      2  N   UNL     1      34.981 -17.734 -22.398  0.00  0.00    +0.419 N 
ATOM      3  N   UNL     1      33.240 -14.698 -22.130  0.00  0.00    -0.322 N 
ATOM      4  N   UNL     1      34.227 -15.568 -24.062  0.00  0.00    -0.261 NA
ATOM      5  C   UNL     1      35.089 -16.358 -21.900  0.00  0.00    +0.115 C 
ATOM      6  C   UNL     1      34.146 -15.509 -22.766  0.00  0.00    +0.107 C 
ATOM      7  C   UNL     1      35.207 -17.833 -23.845  0.00  0.00    +0.054 C 
ATOM      8  C   UNL     1      35.262 -16.479 -24.559  0.00  0.00    +0.122 C 
ATOM      9  H   UNL     1      34.016 -18.020 -22.230  0.00  0.00    -0.073 HD
ATOM     10  H   UNL     1      33.228 -14.679 -21.145  0.00  0.00    +0.148 HD
ENDROOT
BRANCH   5  11
ATOM     11  O   UNL     1      34.728 -16.245 -20.533  0.00  0.00    -0.398 OA
ATOM     12  H   UNL     1      34.011 -16.868 -20.335  0.00  0.00    +0.208 HD
ENDBRANCH   5  11
BRANCH   3  13
ATOM     13  C   UNL     1      32.314 -13.880 -22.848  0.00  0.00    +0.086 C 
BRANCH  13  14
ATOM     14  C   UNL     1      32.272 -12.472 -22.266  0.00  0.00    -0.000 C 
BRANCH  14  16
ATOM     15  N   UNL     1      34.084 -11.618 -23.661  0.00  0.00    +0.385 N 
ATOM     16  C   UNL     1      32.684 -11.401 -23.275  0.00  0.00    -0.060 C 
ATOM     17  C   UNL     1      32.495  -9.999 -22.678  0.00  0.00    -0.021 C 
ATOM     18  C   UNL     1      32.976  -8.919 -23.643  0.00  0.00    -0.004 C 
ATOM     19  C   UNL     1      34.402  -9.207 -24.101  0.00  0.00    -0.023 C 
ATOM     20  C   UNL     1      34.533 -10.629 -24.641  0.00  0.00    -0.082 C 
ATOM     21  H   UNL     1      34.175 -12.550 -24.066  0.00  0.00    -0.084 HD
ATOM     22  H   UNL     1      34.663 -11.525 -22.827  0.00  0.00    -0.084 HD
ENDBRANCH  14  16
ENDBRANCH  13  14
ENDBRANCH   3  13
BRANCH   2  23
ATOM     23  C   UNL     1      35.852 -18.649 -21.661  0.00  0.00    -0.095 C 
BRANCH  23  24
ATOM     24  C   UNL     1      35.031 -19.785 -21.057  0.00  0.00    -0.104 C 
BRANCH  24  25
ATOM     25  N   UNL     1      35.805 -20.473 -20.029  0.00  0.00    +0.385 N 
ATOM     26  H   UNL     1      35.992 -19.826 -19.264  0.00  0.00    -0.084 HD
ATOM     27  H   UNL     1      36.678 -20.799 -20.443  0.00  0.00    -0.084 HD
BRANCH  25  28
ATOM     28  C   UNL     1      35.076 -21.623 -19.515  0.00  0.00    -0.054 C 
BRANCH  28  31
ATOM     29 CL   UNL     1      31.056 -23.931 -16.111  0.00  0.00    -0.082 Cl
ATOM     30  S   UNL     1      37.086 -22.406 -16.129  0.00  0.00    -0.087 S 
ATOM     31  C   UNL     1      35.555 -22.024 -18.145  0.00  0.00    -0.037 C 
ATOM     32  C   UNL     1      34.716 -22.616 -17.142  0.00  0.00    +0.001 C 
ATOM     33  C   UNL     1      35.436 -22.881 -15.973  0.00  0.00    +0.029 C 
ATOM     34  C   UNL     1      36.853 -21.857 -17.726  0.00  0.00    +0.029 C 
ATOM     35  C   UNL     1      33.341 -22.951 -17.172  0.00  0.00    +0.012 C 
ATOM     36  C   UNL     1      34.822 -23.463 -14.846  0.00  0.00    +0.007 C 
ATOM     37  C   UNL     1      32.730 -23.530 -16.057  0.00  0.00    +0.058 C 
ATOM     38  C   UNL     1      33.464 -23.783 -14.907  0.00  0.00    +0.012 C 
ENDBRANCH  28  31
ENDBRANCH  25  28
ENDBRANCH  24  25
ENDBRANCH  23  24
ENDBRANCH   2  23
TORSDOF 9
ENDMDL
MODEL 7
REMARK VINA RESULT:      -9.6      3.560     10.583
REMARK  Name = 131704305
REMARK  9 active torsions:
REMARK  status: ('A' for Active; 'I' for Inactive)
REMARK    1  A    between atoms: N_2  and  C_23
REMARK    2  A    between atoms: N_3  and  C_13
REMARK    3  A    between atoms: C_5  and  O_11
REMARK    4  A    between atoms: C_13  and  C_14
REMARK    5  A    between atoms: C_14  and  C_16
REMARK    6  A    between atoms: C_23  and  C_24
REMARK    7  A    between atoms: C_24  and  N_25
REMARK    8  A    between atoms: N_25  and  C_28
REMARK    9  A    between atoms: C_28  and  C_31
REMARK                            x       y       z     vdW  Elec       q    Type
REMARK                         _______ _______ _______ _____ _____    ______ ____
ROOT
ATOM      1 CL   UNL     1      34.926 -14.487 -20.726  0.00  0.00    -0.136 Cl
ATOM      2  N   UNL     1      34.511 -15.914 -22.870  0.00  0.00    +0.419 N 
ATOM      3  N   UNL     1      33.605 -13.436 -25.183  0.00  0.00    -0.322 N 
ATOM      4  N   UNL     1      32.725 -13.720 -23.036  0.00  0.00    -0.261 NA
ATOM      5  C   UNL     1      33.754 -15.681 -24.104  0.00  0.00    +0.115 C 
ATOM      6  C   UNL     1      33.331 -14.205 -24.080  0.00  0.00    +0.107 C 
ATOM      7  C   UNL     1      33.779 -15.497 -21.667  0.00  0.00    +0.054 C 
ATOM      8  C   UNL     1      32.509 -14.694 -21.962  0.00  0.00    +0.122 C 
ATOM      9  H   UNL     1      35.341 -15.323 -22.930  0.00  0.00    -0.073 HD
ATOM     10  H   UNL     1      34.053 -13.853 -25.954  0.00  0.00    +0.148 HD
ENDROOT
BRANCH   5  11
ATOM     11  O   UNL     1      34.518 -15.949 -25.269  0.00  0.00    -0.398 OA
ATOM     12  H   UNL     1      35.117 -15.206 -25.441  0.00  0.00    +0.208 HD
ENDBRANCH   5  11
BRANCH   3  13
ATOM     13  C   UNL     1      33.261 -12.050 -25.251  0.00  0.00    +0.086 C 
BRANCH  13  14
ATOM     14  C   UNL     1      34.493 -11.178 -25.037  0.00  0.00    -0.000 C 
BRANCH  14  16
ATOM     15  N   UNL     1      32.870 -10.015 -23.632  0.00  0.00    +0.385 N 
ATOM     16  C   UNL     1      34.302 -10.146 -23.927  0.00  0.00    -0.060 C 
ATOM     17  C   UNL     1      34.898  -8.793 -24.342  0.00  0.00    -0.021 C 
ATOM     18  C   UNL     1      34.647  -7.729 -23.278  0.00  0.00    -0.004 C 
ATOM     19  C   UNL     1      33.165  -7.666 -22.922  0.00  0.00    -0.023 C 
ATOM     20  C   UNL     1      32.625  -9.048 -22.563  0.00  0.00    -0.082 C 
ATOM     21  H   UNL     1      32.506 -10.925 -23.347  0.00  0.00    -0.084 HD
ATOM     22  H   UNL     1      32.400  -9.683 -24.475  0.00  0.00    -0.084 HD
ENDBRANCH  14  16
ENDBRANCH  13  14
ENDBRANCH   3  13
BRANCH   2  23
ATOM     23  C   UNL     1      34.961 -17.302 -22.761  0.00  0.00    -0.095 C 
BRANCH  23  24
ATOM     24  C   UNL     1      34.182 -18.023 -21.664  0.00  0.00    -0.104 C 
BRANCH  24  25
ATOM     25  N   UNL     1      34.065 -19.442 -21.981  0.00  0.00    +0.385 N 
ATOM     26  H   UNL     1      34.997 -19.829 -22.128  0.00  0.00    -0.084 HD
ATOM     27  H   UNL     1      33.500 -19.543 -22.823  0.00  0.00    -0.084 HD
BRANCH  25  28
ATOM     28  C   UNL     1      33.416 -20.163 -20.895  0.00  0.00    -0.054 C 
BRANCH  28  31
ATOM     29 CL   UNL     1      31.140 -23.390 -16.715  0.00  0.00    -0.082 Cl
ATOM     30  S   UNL     1      36.643 -21.516 -18.927  0.00  0.00    -0.087 S 
ATOM     31  C   UNL     1      34.417 -20.814 -19.977  0.00  0.00    -0.037 C 
ATOM     32  C   UNL     1      34.062 -21.657 -18.872  0.00  0.00    +0.001 C 
ATOM     33  C   UNL     1      35.199 -22.117 -18.201  0.00  0.00    +0.029 C 
ATOM     34  C   UNL     1      35.775 -20.657 -20.116  0.00  0.00    +0.029 C 
ATOM     35  C   UNL     1      32.792 -22.065 -18.394  0.00  0.00    +0.012 C 
ATOM     36  C   UNL     1      35.101 -22.963 -17.078  0.00  0.00    +0.007 C 
ATOM     37  C   UNL     1      32.692 -22.904 -17.282  0.00  0.00    +0.058 C 
ATOM     38  C   UNL     1      33.835 -23.348 -16.632  0.00  0.00    +0.012 C 
ENDBRANCH  28  31
ENDBRANCH  25  28
ENDBRANCH  24  25
ENDBRANCH  23  24
ENDBRANCH   2  23
TORSDOF 9
ENDMDL
MODEL 8
REMARK VINA RESULT:      -9.6      1.812      2.269
REMARK  Name = 131704305
REMARK  9 active torsions:
REMARK  status: ('A' for Active; 'I' for Inactive)
REMARK    1  A    between atoms: N_2  and  C_23
REMARK    2  A    between atoms: N_3  and  C_13
REMARK    3  A    between atoms: C_5  and  O_11
REMARK    4  A    between atoms: C_13  and  C_14
REMARK    5  A    between atoms: C_14  and  C_16
REMARK    6  A    between atoms: C_23  and  C_24
REMARK    7  A    between atoms: C_24  and  N_25
REMARK    8  A    between atoms: N_25  and  C_28
REMARK    9  A    between atoms: C_28  and  C_31
REMARK                            x       y       z     vdW  Elec       q    Type
REMARK                         _______ _______ _______ _____ _____    ______ ____
ROOT
ATOM      1 CL   UNL     1      34.109 -12.190 -23.691  0.00  0.00    -0.136 Cl
ATOM      2  N   UNL     1      32.594 -13.335 -21.903  0.00  0.00    +0.419 N 
ATOM      3  N   UNL     1      34.328 -16.335 -21.349  0.00  0.00    -0.322 N 
ATOM      4  N   UNL     1      33.731 -15.439 -23.423  0.00  0.00    -0.261 NA
ATOM      5  C   UNL     1      32.426 -14.724 -21.467  0.00  0.00    +0.115 C 
ATOM      6  C   UNL     1      33.548 -15.529 -22.139  0.00  0.00    +0.107 C 
ATOM      7  C   UNL     1      32.664 -13.203 -23.363  0.00  0.00    +0.054 C 
ATOM      8  C   UNL     1      32.794 -14.538 -24.102  0.00  0.00    +0.122 C 
ATOM      9  H   UNL     1      33.497 -13.030 -21.535  0.00  0.00    -0.073 HD
ATOM     10  H   UNL     1      34.140 -16.380 -20.383  0.00  0.00    +0.148 HD
ENDROOT
BRANCH   5  11
ATOM     11  O   UNL     1      32.504 -14.865 -20.057  0.00  0.00    -0.398 OA
ATOM     12  H   UNL     1      31.756 -15.395 -19.742  0.00  0.00    +0.208 HD
ENDBRANCH   5  11
BRANCH   3  13
ATOM     13  C   UNL     1      35.403 -17.112 -21.880  0.00  0.00    +0.086 C 
BRANCH  13  14
ATOM     14  C   UNL     1      34.951 -18.541 -22.158  0.00  0.00    -0.000 C 
BRANCH  14  16
ATOM     15  N   UNL     1      35.645 -20.393 -20.727  0.00  0.00    +0.385 N 
ATOM     16  C   UNL     1      34.649 -19.326 -20.882  0.00  0.00    -0.060 C 
ATOM     17  C   UNL     1      33.230 -19.909 -20.932  0.00  0.00    -0.021 C 
ATOM     18  C   UNL     1      32.939 -20.762 -19.701  0.00  0.00    -0.004 C 
ATOM     19  C   UNL     1      34.030 -21.811 -19.506  0.00  0.00    -0.023 C 
ATOM     20  C   UNL     1      35.417 -21.172 -19.510  0.00  0.00    -0.082 C 
ATOM     21  H   UNL     1      36.575 -19.975 -20.683  0.00  0.00    -0.084 HD
ATOM     22  H   UNL     1      35.566 -21.022 -21.527  0.00  0.00    -0.084 HD
ENDBRANCH  14  16
ENDBRANCH  13  14
ENDBRANCH   3  13
BRANCH   2  23
ATOM     23  C   UNL     1      31.567 -12.459 -21.341  0.00  0.00    -0.095 C 
BRANCH  23  24
ATOM     24  C   UNL     1      32.214 -11.345 -20.522  0.00  0.00    -0.104 C 
BRANCH  24  25
ATOM     25  N   UNL     1      31.514 -10.085 -20.745  0.00  0.00    +0.385 N 
ATOM     26  H   UNL     1      30.614 -10.114 -20.266  0.00  0.00    -0.084 HD
ATOM     27  H   UNL     1      31.380  -9.960 -21.748  0.00  0.00    -0.084 HD
BRANCH  25  28
ATOM     28  C   UNL     1      32.290  -8.964 -20.235  0.00  0.00    -0.054 C 
BRANCH  28  31
ATOM     29 CL   UNL     1      35.452  -9.628 -24.993  0.00  0.00    -0.082 Cl
ATOM     30  S   UNL     1      31.734  -5.502 -22.191  0.00  0.00    -0.087 S 
ATOM     31  C   UNL     1      32.271  -7.793 -21.181  0.00  0.00    -0.037 C 
ATOM     32  C   UNL     1      32.990  -7.751 -22.422  0.00  0.00    +0.001 C 
ATOM     33  C   UNL     1      32.782  -6.538 -23.087  0.00  0.00    +0.029 C 
ATOM     34  C   UNL     1      31.556  -6.644 -20.938  0.00  0.00    +0.029 C 
ATOM     35  C   UNL     1      33.831  -8.713 -23.033  0.00  0.00    +0.012 C 
ATOM     36  C   UNL     1      33.388  -6.265 -24.330  0.00  0.00    +0.007 C 
ATOM     37  C   UNL     1      34.432  -8.446 -24.266  0.00  0.00    +0.058 C 
ATOM     38  C   UNL     1      34.212  -7.235 -24.906  0.00  0.00    +0.012 C 
ENDBRANCH  28  31
ENDBRANCH  25  28
ENDBRANCH  24  25
ENDBRANCH  23  24
ENDBRANCH   2  23
TORSDOF 9
ENDMDL
MODEL 9
REMARK VINA RESULT:      -9.6      2.173      3.345
REMARK  Name = 131704305
REMARK  9 active torsions:
REMARK  status: ('A' for Active; 'I' for Inactive)
REMARK    1  A    between atoms: N_2  and  C_23
REMARK    2  A    between atoms: N_3  and  C_13
REMARK    3  A    between atoms: C_5  and  O_11
REMARK    4  A    between atoms: C_13  and  C_14
REMARK    5  A    between atoms: C_14  and  C_16
REMARK    6  A    between atoms: C_23  and  C_24
REMARK    7  A    between atoms: C_24  and  N_25
REMARK    8  A    between atoms: N_25  and  C_28
REMARK    9  A    between atoms: C_28  and  C_31
REMARK                            x       y       z     vdW  Elec       q    Type
REMARK                         _______ _______ _______ _____ _____    ______ ____
ROOT
ATOM      1 CL   UNL     1      32.334 -15.715 -21.296  0.00  0.00    -0.136 Cl
ATOM      2  N   UNL     1      33.929 -16.741 -23.087  0.00  0.00    +0.419 N 
ATOM      3  N   UNL     1      34.789 -19.791 -21.580  0.00  0.00    -0.322 N 
ATOM      4  N   UNL     1      34.864 -17.678 -20.582  0.00  0.00    -0.261 NA
ATOM      5  C   UNL     1      34.970 -17.772 -23.036  0.00  0.00    +0.115 C 
ATOM      6  C   UNL     1      34.867 -18.422 -21.648  0.00  0.00    +0.107 C 
ATOM      7  C   UNL     1      34.000 -15.807 -21.956  0.00  0.00    +0.054 C 
ATOM      8  C   UNL     1      34.968 -16.241 -20.852  0.00  0.00    +0.122 C 
ATOM      9  H   UNL     1      33.038 -17.232 -23.008  0.00  0.00    -0.073 HD
ATOM     10  H   UNL     1      34.809 -20.311 -22.415  0.00  0.00    +0.148 HD
ENDROOT
BRANCH   5  11
ATOM     11  O   UNL     1      34.810 -18.755 -24.046  0.00  0.00    -0.398 OA
ATOM     12  H   UNL     1      35.410 -19.497 -23.874  0.00  0.00    +0.208 HD
ENDBRANCH   5  11
BRANCH   3  13
ATOM     13  C   UNL     1      34.678 -20.486 -20.336  0.00  0.00    +0.086 C 
BRANCH  13  14
ATOM     14  C   UNL     1      36.053 -20.913 -19.832  0.00  0.00    -0.000 C 
BRANCH  14  16
ATOM     15  N   UNL     1      34.580 -22.094 -18.285  0.00  0.00    +0.385 N 
ATOM     16  C   UNL     1      35.978 -21.945 -18.709  0.00  0.00    -0.060 C 
ATOM     17  C   UNL     1      36.862 -21.520 -17.528  0.00  0.00    -0.021 C 
ATOM     18  C   UNL     1      36.738 -22.499 -16.364  0.00  0.00    -0.004 C 
ATOM     19  C   UNL     1      35.273 -22.708 -15.993  0.00  0.00    -0.023 C 
ATOM     20  C   UNL     1      34.442 -23.084 -17.217  0.00  0.00    -0.082 C 
ATOM     21  H   UNL     1      34.021 -22.390 -19.086  0.00  0.00    -0.084 HD
ATOM     22  H   UNL     1      34.257 -21.194 -17.928  0.00  0.00    -0.084 HD
ENDBRANCH  14  16
ENDBRANCH  13  14
ENDBRANCH   3  13
BRANCH   2  23
ATOM     23  C   UNL     1      33.932 -16.027 -24.364  0.00  0.00    -0.095 C 
BRANCH  23  24
ATOM     24  C   UNL     1      34.409 -14.591 -24.164  0.00  0.00    -0.104 C 
BRANCH  24  25
ATOM     25  N   UNL     1      33.360 -13.654 -24.552  0.00  0.00    +0.385 N 
ATOM     26  H   UNL     1      32.545 -13.801 -23.957  0.00  0.00    -0.084 HD
ATOM     27  H   UNL     1      33.122 -13.818 -25.529  0.00  0.00    -0.084 HD
BRANCH  25  28
ATOM     28  C   UNL     1      33.815 -12.279 -24.406  0.00  0.00    -0.054 C 
BRANCH  28  31
ATOM     29 CL   UNL     1      34.538  -6.575 -24.482  0.00  0.00    -0.082 Cl
ATOM     30  S   UNL     1      31.339 -11.006 -21.513  0.00  0.00    -0.087 S 
ATOM     31  C   UNL     1      32.991 -11.520 -23.401  0.00  0.00    -0.037 C 
ATOM     32  C   UNL     1      33.020 -10.093 -23.252  0.00  0.00    +0.001 C 
ATOM     33  C   UNL     1      32.151  -9.671 -22.241  0.00  0.00    +0.029 C 
ATOM     34  C   UNL     1      32.126 -12.130 -22.524  0.00  0.00    +0.029 C 
ATOM     35  C   UNL     1      33.765  -9.109 -23.948  0.00  0.00    +0.012 C 
ATOM     36  C   UNL     1      32.011  -8.308 -21.911  0.00  0.00    +0.007 C 
ATOM     37  C   UNL     1      33.626  -7.757 -23.625  0.00  0.00    +0.058 C 
ATOM     38  C   UNL     1      32.758  -7.362 -22.617  0.00  0.00    +0.012 C 
ENDBRANCH  28  31
ENDBRANCH  25  28
ENDBRANCH  24  25
ENDBRANCH  23  24
ENDBRANCH   2  23
TORSDOF 9
ENDMDL
