MODEL 1
REMARK VINA RESULT:      -6.7      0.000      0.000
REMARK  Name = 31016
REMARK  6 active torsions:
REMARK  status: ('A' for Active; 'I' for Inactive)
REMARK    1  A    between atoms: C_1  and  C_13
REMARK    2  A    between atoms: C_4  and  O_7
REMARK    3  A    between atoms: C_5  and  O_9
REMARK    4  A    between atoms: C_6  and  O_11
REMARK    5  A    between atoms: C_13  and  C_14
REMARK    6  A    between atoms: C_14  and  N_16
REMARK                            x       y       z     vdW  Elec       q    Type
REMARK                         _______ _______ _______ _____ _____    ______ ____
ROOT
ATOM      1  C   UNL     1      34.725 -17.989 -22.763  0.00  0.00    -0.018 C 
ATOM      2  C   UNL     1      34.616 -17.674 -24.108  0.00  0.00    +0.036 C 
ATOM      3  C   UNL     1      34.683 -17.005 -21.787  0.00  0.00    +0.036 C 
ATOM      4  C   UNL     1      34.528 -15.672 -22.167  0.00  0.00    +0.175 C 
ATOM      5  C   UNL     1      34.461 -16.341 -24.488  0.00  0.00    +0.175 C 
ATOM      6  C   UNL     1      34.418 -15.339 -23.517  0.00  0.00    +0.206 C 
ENDROOT
BRANCH   4   7
ATOM      7  O   UNL     1      34.487 -14.704 -21.210  0.00  0.00    -0.468 OA
ATOM      8  C   UNL     1      33.296 -14.612 -20.431  0.00  0.00    +0.253 C 
ENDBRANCH   4   7
BRANCH   5   9
ATOM      9  O   UNL     1      34.354 -16.030 -25.809  0.00  0.00    -0.468 OA
ATOM     10  C   UNL     1      33.036 -15.888 -26.337  0.00  0.00    +0.253 C 
ENDBRANCH   5   9
BRANCH   6  11
ATOM     11  O   UNL     1      34.266 -14.036 -23.889  0.00  0.00    -0.465 OA
ATOM     12  C   UNL     1      32.946 -13.500 -23.841  0.00  0.00    +0.253 C 
ENDBRANCH   6  11
BRANCH   1  13
ATOM     13  C   UNL     1      34.892 -19.432 -22.351  0.00  0.00    +0.005 C 
BRANCH  13  14
ATOM     14  C   UNL     1      34.550 -19.695 -20.874  0.00  0.00    -0.061 C 
ATOM     15  C   UNL     1      33.110 -20.176 -20.682  0.00  0.00    -0.024 C 
BRANCH  14  16
ATOM     16  N   UNL     1      35.452 -20.718 -20.337  0.00  0.00    +0.382 N 
ATOM     17  H   UNL     1      34.917 -21.555 -20.105  0.00  0.00    -0.089 HD
ATOM     18  H   UNL     1      35.909 -20.362 -19.498  0.00  0.00    -0.089 HD
ATOM     19  H   UNL     1      36.158 -20.950 -21.036  0.00  0.00    -0.089 HD
ENDBRANCH  14  16
ENDBRANCH  13  14
ENDBRANCH   1  13
TORSDOF 6
ENDMDL
MODEL 2
REMARK VINA RESULT:      -6.7      0.029      2.982
REMARK  Name = 31016
REMARK  6 active torsions:
REMARK  status: ('A' for Active; 'I' for Inactive)
REMARK    1  A    between atoms: C_1  and  C_13
REMARK    2  A    between atoms: C_4  and  O_7
REMARK    3  A    between atoms: C_5  and  O_9
REMARK    4  A    between atoms: C_6  and  O_11
REMARK    5  A    between atoms: C_13  and  C_14
REMARK    6  A    between atoms: C_14  and  N_16
REMARK                            x       y       z     vdW  Elec       q    Type
REMARK                         _______ _______ _______ _____ _____    ______ ____
ROOT
ATOM      1  C   UNL     1      34.725 -17.969 -22.776  0.00  0.00    -0.018 C 
ATOM      2  C   UNL     1      34.680 -16.990 -21.797  0.00  0.00    +0.036 C 
ATOM      3  C   UNL     1      34.613 -17.649 -24.120  0.00  0.00    +0.036 C 
ATOM      4  C   UNL     1      34.451 -16.315 -24.493  0.00  0.00    +0.175 C 
ATOM      5  C   UNL     1      34.518 -15.656 -22.169  0.00  0.00    +0.175 C 
ATOM      6  C   UNL     1      34.404 -15.318 -23.519  0.00  0.00    +0.206 C 
ENDROOT
BRANCH   4   7
ATOM      7  O   UNL     1      34.341 -15.998 -25.813  0.00  0.00    -0.468 OA
ATOM      8  C   UNL     1      33.022 -15.868 -26.341  0.00  0.00    +0.253 C 
ENDBRANCH   4   7
BRANCH   5   9
ATOM      9  O   UNL     1      34.474 -14.693 -21.208  0.00  0.00    -0.468 OA
ATOM     10  C   UNL     1      33.273 -14.594 -20.444  0.00  0.00    +0.253 C 
ENDBRANCH   5   9
BRANCH   6  11
ATOM     11  O   UNL     1      34.246 -14.014 -23.883  0.00  0.00    -0.465 OA
ATOM     12  C   UNL     1      32.923 -13.485 -23.841  0.00  0.00    +0.253 C 
ENDBRANCH   6  11
BRANCH   1  13
ATOM     13  C   UNL     1      34.901 -19.413 -22.372  0.00  0.00    +0.005 C 
BRANCH  13  14
ATOM     14  C   UNL     1      34.577 -19.683 -20.891  0.00  0.00    -0.061 C 
ATOM     15  C   UNL     1      33.139 -20.161 -20.684  0.00  0.00    -0.024 C 
BRANCH  14  16
ATOM     16  N   UNL     1      35.483 -20.711 -20.371  0.00  0.00    +0.382 N 
ATOM     17  H   UNL     1      35.061 -21.154 -19.555  0.00  0.00    -0.089 HD
ATOM     18  H   UNL     1      36.368 -20.281 -20.105  0.00  0.00    -0.089 HD
ATOM     19  H   UNL     1      35.649 -21.414 -21.091  0.00  0.00    -0.089 HD
ENDBRANCH  14  16
ENDBRANCH  13  14
ENDBRANCH   1  13
TORSDOF 6
ENDMDL
MODEL 3
REMARK VINA RESULT:      -6.7      7.498     10.147
REMARK  Name = 31016
REMARK  6 active torsions:
REMARK  status: ('A' for Active; 'I' for Inactive)
REMARK    1  A    between atoms: C_1  and  C_13
REMARK    2  A    between atoms: C_4  and  O_7
REMARK    3  A    between atoms: C_5  and  O_9
REMARK    4  A    between atoms: C_6  and  O_11
REMARK    5  A    between atoms: C_13  and  C_14
REMARK    6  A    between atoms: C_14  and  N_16
REMARK                            x       y       z     vdW  Elec       q    Type
REMARK                         _______ _______ _______ _____ _____    ______ ____
ROOT
ATOM      1  C   UNL     1      31.928 -23.173 -15.664  0.00  0.00    -0.018 C 
ATOM      2  C   UNL     1      32.335 -23.127 -16.988  0.00  0.00    +0.036 C 
ATOM      3  C   UNL     1      32.846 -23.268 -14.631  0.00  0.00    +0.036 C 
ATOM      4  C   UNL     1      34.208 -23.319 -14.930  0.00  0.00    +0.175 C 
ATOM      5  C   UNL     1      33.696 -23.178 -17.287  0.00  0.00    +0.175 C 
ATOM      6  C   UNL     1      34.633 -23.274 -16.257  0.00  0.00    +0.206 C 
ENDROOT
BRANCH   4   7
ATOM      7  O   UNL     1      35.112 -23.412 -13.915  0.00  0.00    -0.468 OA
ATOM      8  C   UNL     1      34.784 -24.280 -12.832  0.00  0.00    +0.253 C 
ENDBRANCH   4   7
BRANCH   5   9
ATOM      9  O   UNL     1      34.098 -23.133 -18.587  0.00  0.00    -0.468 OA
ATOM     10  C   UNL     1      33.823 -21.935 -19.310  0.00  0.00    +0.253 C 
ENDBRANCH   5   9
BRANCH   6  11
ATOM     11  O   UNL     1      35.964 -23.323 -16.549  0.00  0.00    -0.465 OA
ATOM     12  C   UNL     1      36.657 -22.079 -16.622  0.00  0.00    +0.253 C 
ENDBRANCH   6  11
BRANCH   1  13
ATOM     13  C   UNL     1      30.454 -23.118 -15.341  0.00  0.00    +0.005 C 
BRANCH  13  14
ATOM     14  C   UNL     1      29.657 -24.315 -15.889  0.00  0.00    -0.061 C 
ATOM     15  C   UNL     1      29.327 -25.345 -14.808  0.00  0.00    -0.024 C 
BRANCH  14  16
ATOM     16  N   UNL     1      28.398 -23.840 -16.472  0.00  0.00    +0.382 N 
ATOM     17  H   UNL     1      27.614 -24.274 -15.986  0.00  0.00    -0.089 HD
ATOM     18  H   UNL     1      28.366 -24.088 -17.460  0.00  0.00    -0.089 HD
ATOM     19  H   UNL     1      28.339 -22.826 -16.373  0.00  0.00    -0.089 HD
ENDBRANCH  14  16
ENDBRANCH  13  14
ENDBRANCH   1  13
TORSDOF 6
ENDMDL
MODEL 4
REMARK VINA RESULT:      -6.7      7.517     10.581
REMARK  Name = 31016
REMARK  6 active torsions:
REMARK  status: ('A' for Active; 'I' for Inactive)
REMARK    1  A    between atoms: C_1  and  C_13
REMARK    2  A    between atoms: C_4  and  O_7
REMARK    3  A    between atoms: C_5  and  O_9
REMARK    4  A    between atoms: C_6  and  O_11
REMARK    5  A    between atoms: C_13  and  C_14
REMARK    6  A    between atoms: C_14  and  N_16
REMARK                            x       y       z     vdW  Elec       q    Type
REMARK                         _______ _______ _______ _____ _____    ______ ____
ROOT
ATOM      1  C   UNL     1      32.038 -23.215 -15.632  0.00  0.00    -0.018 C 
ATOM      2  C   UNL     1      32.951 -23.322 -14.595  0.00  0.00    +0.036 C 
ATOM      3  C   UNL     1      32.452 -23.139 -16.952  0.00  0.00    +0.036 C 
ATOM      4  C   UNL     1      33.816 -23.168 -17.243  0.00  0.00    +0.175 C 
ATOM      5  C   UNL     1      34.315 -23.351 -14.886  0.00  0.00    +0.175 C 
ATOM      6  C   UNL     1      34.748 -23.274 -16.210  0.00  0.00    +0.206 C 
ENDROOT
BRANCH   4   7
ATOM      7  O   UNL     1      34.225 -23.093 -18.540  0.00  0.00    -0.468 OA
ATOM      8  C   UNL     1      33.766 -21.978 -19.301  0.00  0.00    +0.253 C 
ENDBRANCH   4   7
BRANCH   5   9
ATOM      9  O   UNL     1      35.214 -23.455 -13.868  0.00  0.00    -0.468 OA
ATOM     10  C   UNL     1      34.847 -24.275 -12.760  0.00  0.00    +0.253 C 
ENDBRANCH   5   9
BRANCH   6  11
ATOM     11  O   UNL     1      36.081 -23.304 -16.495  0.00  0.00    -0.465 OA
ATOM     12  C   UNL     1      36.759 -22.052 -16.549  0.00  0.00    +0.253 C 
ENDBRANCH   6  11
BRANCH   1  13
ATOM     13  C   UNL     1      30.561 -23.184 -15.317  0.00  0.00    +0.005 C 
BRANCH  13  14
ATOM     14  C   UNL     1      29.791 -24.406 -15.850  0.00  0.00    -0.061 C 
ATOM     15  C   UNL     1      29.448 -25.409 -14.747  0.00  0.00    -0.024 C 
BRANCH  14  16
ATOM     16  N   UNL     1      28.541 -23.962 -16.475  0.00  0.00    +0.382 N 
ATOM     17  H   UNL     1      27.770 -24.089 -15.819  0.00  0.00    -0.089 HD
ATOM     18  H   UNL     1      28.367 -24.513 -17.315  0.00  0.00    -0.089 HD
ATOM     19  H   UNL     1      28.617 -22.976 -16.724  0.00  0.00    -0.089 HD
ENDBRANCH  14  16
ENDBRANCH  13  14
ENDBRANCH   1  13
TORSDOF 6
ENDMDL
MODEL 5
REMARK VINA RESULT:      -6.6      4.584      7.566
REMARK  Name = 31016
REMARK  6 active torsions:
REMARK  status: ('A' for Active; 'I' for Inactive)
REMARK    1  A    between atoms: C_1  and  C_13
REMARK    2  A    between atoms: C_4  and  O_7
REMARK    3  A    between atoms: C_5  and  O_9
REMARK    4  A    between atoms: C_6  and  O_11
REMARK    5  A    between atoms: C_13  and  C_14
REMARK    6  A    between atoms: C_14  and  N_16
REMARK                            x       y       z     vdW  Elec       q    Type
REMARK                         _______ _______ _______ _____ _____    ______ ____
ROOT
ATOM      1  C   UNL     1      32.192 -10.460 -22.497  0.00  0.00    -0.018 C 
ATOM      2  C   UNL     1      31.846 -11.716 -22.025  0.00  0.00    +0.036 C 
ATOM      3  C   UNL     1      33.081 -10.305 -23.550  0.00  0.00    +0.036 C 
ATOM      4  C   UNL     1      33.639 -11.437 -24.143  0.00  0.00    +0.175 C 
ATOM      5  C   UNL     1      32.404 -12.848 -22.619  0.00  0.00    +0.175 C 
ATOM      6  C   UNL     1      33.302 -12.708 -23.679  0.00  0.00    +0.206 C 
ENDROOT
BRANCH   4   7
ATOM      7  O   UNL     1      34.513 -11.288 -25.178  0.00  0.00    -0.468 OA
ATOM      8  C   UNL     1      35.302 -10.100 -25.193  0.00  0.00    +0.253 C 
ENDBRANCH   4   7
BRANCH   5   9
ATOM      9  O   UNL     1      32.066 -14.082 -22.155  0.00  0.00    -0.468 OA
ATOM     10  C   UNL     1      32.776 -14.564 -21.016  0.00  0.00    +0.253 C 
ENDBRANCH   5   9
BRANCH   6  11
ATOM     11  O   UNL     1      33.847 -13.815 -24.260  0.00  0.00    -0.465 OA
ATOM     12  C   UNL     1      33.128 -14.396 -25.345  0.00  0.00    +0.253 C 
ENDBRANCH   6  11
BRANCH   1  13
ATOM     13  C   UNL     1      31.587  -9.235 -21.854  0.00  0.00    +0.005 C 
BRANCH  13  14
ATOM     14  C   UNL     1      32.598  -8.399 -21.047  0.00  0.00    -0.061 C 
ATOM     15  C   UNL     1      32.286  -6.903 -21.088  0.00  0.00    -0.024 C 
BRANCH  14  16
ATOM     16  N   UNL     1      32.586  -8.835 -19.648  0.00  0.00    +0.382 N 
ATOM     17  H   UNL     1      32.827  -8.048 -19.045  0.00  0.00    -0.089 HD
ATOM     18  H   UNL     1      33.266  -9.584 -19.519  0.00  0.00    -0.089 HD
ATOM     19  H   UNL     1      31.655  -9.175 -19.405  0.00  0.00    -0.089 HD
ENDBRANCH  14  16
ENDBRANCH  13  14
ENDBRANCH   1  13
TORSDOF 6
ENDMDL
MODEL 6
REMARK VINA RESULT:      -6.6      4.668      7.385
REMARK  Name = 31016
REMARK  6 active torsions:
REMARK  status: ('A' for Active; 'I' for Inactive)
REMARK    1  A    between atoms: C_1  and  C_13
REMARK    2  A    between atoms: C_4  and  O_7
REMARK    3  A    between atoms: C_5  and  O_9
REMARK    4  A    between atoms: C_6  and  O_11
REMARK    5  A    between atoms: C_13  and  C_14
REMARK    6  A    between atoms: C_14  and  N_16
REMARK                            x       y       z     vdW  Elec       q    Type
REMARK                         _______ _______ _______ _____ _____    ______ ____
ROOT
ATOM      1  C   UNL     1      32.209 -10.434 -22.486  0.00  0.00    -0.018 C 
ATOM      2  C   UNL     1      33.081 -10.288 -23.553  0.00  0.00    +0.036 C 
ATOM      3  C   UNL     1      31.867 -11.686 -22.001  0.00  0.00    +0.036 C 
ATOM      4  C   UNL     1      32.411 -12.822 -22.601  0.00  0.00    +0.175 C 
ATOM      5  C   UNL     1      33.625 -11.424 -24.152  0.00  0.00    +0.175 C 
ATOM      6  C   UNL     1      33.289 -12.692 -23.676  0.00  0.00    +0.206 C 
ENDROOT
BRANCH   4   7
ATOM      7  O   UNL     1      32.075 -14.055 -22.126  0.00  0.00    -0.468 OA
ATOM      8  C   UNL     1      32.731 -14.492 -20.938  0.00  0.00    +0.253 C 
ENDBRANCH   4   7
BRANCH   5   9
ATOM      9  O   UNL     1      34.481 -11.282 -25.201  0.00  0.00    -0.468 OA
ATOM     10  C   UNL     1      35.322 -10.129 -25.201  0.00  0.00    +0.253 C 
ENDBRANCH   5   9
BRANCH   6  11
ATOM     11  O   UNL     1      33.822 -13.802 -24.262  0.00  0.00    -0.465 OA
ATOM     12  C   UNL     1      33.083 -14.386 -25.332  0.00  0.00    +0.253 C 
ENDBRANCH   6  11
BRANCH   1  13
ATOM     13  C   UNL     1      31.621  -9.204 -21.837  0.00  0.00    +0.005 C 
BRANCH  13  14
ATOM     14  C   UNL     1      32.680  -8.197 -21.352  0.00  0.00    -0.061 C 
ATOM     15  C   UNL     1      32.344  -6.758 -21.746  0.00  0.00    -0.024 C 
BRANCH  14  16
ATOM     16  N   UNL     1      32.784  -8.262 -19.891  0.00  0.00    +0.382 N 
ATOM     17  H   UNL     1      33.540  -7.653 -19.577  0.00  0.00    -0.089 HD
ATOM     18  H   UNL     1      32.979  -9.221 -19.606  0.00  0.00    -0.089 HD
ATOM     19  H   UNL     1      31.906  -7.954 -19.473  0.00  0.00    -0.089 HD
ENDBRANCH  14  16
ENDBRANCH  13  14
ENDBRANCH   1  13
TORSDOF 6
ENDMDL
MODEL 7
REMARK VINA RESULT:      -6.4      7.158     10.269
REMARK  Name = 31016
REMARK  6 active torsions:
REMARK  status: ('A' for Active; 'I' for Inactive)
REMARK    1  A    between atoms: C_1  and  C_13
REMARK    2  A    between atoms: C_4  and  O_7
REMARK    3  A    between atoms: C_5  and  O_9
REMARK    4  A    between atoms: C_6  and  O_11
REMARK    5  A    between atoms: C_13  and  C_14
REMARK    6  A    between atoms: C_14  and  N_16
REMARK                            x       y       z     vdW  Elec       q    Type
REMARK                         _______ _______ _______ _____ _____    ______ ____
ROOT
ATOM      1  C   UNL     1      33.288 -23.006 -17.590  0.00  0.00    -0.018 C 
ATOM      2  C   UNL     1      31.953 -22.783 -17.296  0.00  0.00    +0.036 C 
ATOM      3  C   UNL     1      34.172 -23.460 -16.623  0.00  0.00    +0.036 C 
ATOM      4  C   UNL     1      33.708 -23.695 -15.329  0.00  0.00    +0.175 C 
ATOM      5  C   UNL     1      31.488 -23.018 -16.002  0.00  0.00    +0.175 C 
ATOM      6  C   UNL     1      32.367 -23.474 -15.018  0.00  0.00    +0.206 C 
ENDROOT
BRANCH   4   7
ATOM      7  O   UNL     1      34.575 -24.140 -14.378  0.00  0.00    -0.468 OA
ATOM      8  C   UNL     1      35.700 -24.892 -14.827  0.00  0.00    +0.253 C 
ENDBRANCH   4   7
BRANCH   5   9
ATOM      9  O   UNL     1      30.176 -22.799 -15.712  0.00  0.00    -0.468 OA
ATOM     10  C   UNL     1      29.226 -23.692 -16.291  0.00  0.00    +0.253 C 
ENDBRANCH   5   9
BRANCH   6  11
ATOM     11  O   UNL     1      31.912 -23.705 -13.753  0.00  0.00    -0.465 OA
ATOM     12  C   UNL     1      31.385 -25.001 -13.482  0.00  0.00    +0.253 C 
ENDBRANCH   6  11
BRANCH   1  13
ATOM     13  C   UNL     1      33.791 -22.752 -18.991  0.00  0.00    +0.005 C 
BRANCH  13  14
ATOM     14  C   UNL     1      33.805 -21.263 -19.380  0.00  0.00    -0.061 C 
ATOM     15  C   UNL     1      35.117 -20.843 -20.045  0.00  0.00    -0.024 C 
BRANCH  14  16
ATOM     16  N   UNL     1      32.707 -20.990 -20.313  0.00  0.00    +0.382 N 
ATOM     17  H   UNL     1      33.081 -20.894 -21.257  0.00  0.00    -0.089 HD
ATOM     18  H   UNL     1      32.239 -20.126 -20.043  0.00  0.00    -0.089 HD
ATOM     19  H   UNL     1      32.041 -21.761 -20.288  0.00  0.00    -0.089 HD
ENDBRANCH  14  16
ENDBRANCH  13  14
ENDBRANCH   1  13
TORSDOF 6
ENDMDL
MODEL 8
REMARK VINA RESULT:      -6.4      9.287     11.539
REMARK  Name = 31016
REMARK  6 active torsions:
REMARK  status: ('A' for Active; 'I' for Inactive)
REMARK    1  A    between atoms: C_1  and  C_13
REMARK    2  A    between atoms: C_4  and  O_7
REMARK    3  A    between atoms: C_5  and  O_9
REMARK    4  A    between atoms: C_6  and  O_11
REMARK    5  A    between atoms: C_13  and  C_14
REMARK    6  A    between atoms: C_14  and  N_16
REMARK                            x       y       z     vdW  Elec       q    Type
REMARK                         _______ _______ _______ _____ _____    ______ ____
ROOT
ATOM      1  C   UNL     1      33.429 -23.447 -14.615  0.00  0.00    -0.018 C 
ATOM      2  C   UNL     1      34.318 -23.113 -15.623  0.00  0.00    +0.036 C 
ATOM      3  C   UNL     1      33.852 -24.105 -13.470  0.00  0.00    +0.036 C 
ATOM      4  C   UNL     1      35.199 -24.438 -13.332  0.00  0.00    +0.175 C 
ATOM      5  C   UNL     1      35.666 -23.446 -15.485  0.00  0.00    +0.175 C 
ATOM      6  C   UNL     1      36.106 -24.109 -14.339  0.00  0.00    +0.206 C 
ENDROOT
BRANCH   4   7
ATOM      7  O   UNL     1      35.616 -25.084 -12.208  0.00  0.00    -0.468 OA
ATOM      8  C   UNL     1      35.771 -24.299 -11.027  0.00  0.00    +0.253 C 
ENDBRANCH   4   7
BRANCH   5   9
ATOM      9  O   UNL     1      36.541 -23.119 -16.475  0.00  0.00    -0.468 OA
ATOM     10  C   UNL     1      37.095 -21.805 -16.443  0.00  0.00    +0.253 C 
ENDBRANCH   5   9
BRANCH   6  11
ATOM     11  O   UNL     1      37.424 -24.433 -14.203  0.00  0.00    -0.465 OA
ATOM     12  C   UNL     1      37.835 -25.697 -14.717  0.00  0.00    +0.253 C 
ENDBRANCH   6  11
BRANCH   1  13
ATOM     13  C   UNL     1      31.970 -23.087 -14.764  0.00  0.00    +0.005 C 
BRANCH  13  14
ATOM     14  C   UNL     1      31.305 -23.711 -16.004  0.00  0.00    -0.061 C 
ATOM     15  C   UNL     1      30.099 -24.581 -15.646  0.00  0.00    -0.024 C 
BRANCH  14  16
ATOM     16  N   UNL     1      30.854 -22.647 -16.906  0.00  0.00    +0.382 N 
ATOM     17  H   UNL     1      30.269 -21.990 -16.390  0.00  0.00    -0.089 HD
ATOM     18  H   UNL     1      30.316 -23.054 -17.670  0.00  0.00    -0.089 HD
ATOM     19  H   UNL     1      31.664 -22.156 -17.284  0.00  0.00    -0.089 HD
ENDBRANCH  14  16
ENDBRANCH  13  14
ENDBRANCH   1  13
TORSDOF 6
ENDMDL
MODEL 9
REMARK VINA RESULT:      -6.4      3.478      5.186
REMARK  Name = 31016
REMARK  6 active torsions:
REMARK  status: ('A' for Active; 'I' for Inactive)
REMARK    1  A    between atoms: C_1  and  C_13
REMARK    2  A    between atoms: C_4  and  O_7
REMARK    3  A    between atoms: C_5  and  O_9
REMARK    4  A    between atoms: C_6  and  O_11
REMARK    5  A    between atoms: C_13  and  C_14
REMARK    6  A    between atoms: C_14  and  N_16
REMARK                            x       y       z     vdW  Elec       q    Type
REMARK                         _______ _______ _______ _____ _____    ______ ____
ROOT
ATOM      1  C   UNL     1      33.145 -13.278 -23.515  0.00  0.00    -0.018 C 
ATOM      2  C   UNL     1      33.857 -12.280 -24.160  0.00  0.00    +0.036 C 
ATOM      3  C   UNL     1      32.178 -12.977 -22.568  0.00  0.00    +0.036 C 
ATOM      4  C   UNL     1      31.918 -11.642 -22.260  0.00  0.00    +0.175 C 
ATOM      5  C   UNL     1      33.596 -10.945 -23.851  0.00  0.00    +0.175 C 
ATOM      6  C   UNL     1      32.626 -10.626 -22.901  0.00  0.00    +0.206 C 
ENDROOT
BRANCH   4   7
ATOM      7  O   UNL     1      30.968 -11.343 -21.330  0.00  0.00    -0.468 OA
ATOM      8  C   UNL     1      31.375 -11.346 -19.963  0.00  0.00    +0.253 C 
ENDBRANCH   4   7
BRANCH   5   9
ATOM      9  O   UNL     1      34.296  -9.963 -24.485  0.00  0.00    -0.468 OA
ATOM     10  C   UNL     1      35.273 -10.375 -25.439  0.00  0.00    +0.253 C 
ENDBRANCH   5   9
BRANCH   6  11
ATOM     11  O   UNL     1      32.371  -9.320 -22.599  0.00  0.00    -0.465 OA
ATOM     12  C   UNL     1      31.383  -8.657 -23.383  0.00  0.00    +0.253 C 
ENDBRANCH   6  11
BRANCH   1  13
ATOM     13  C   UNL     1      33.427 -14.723 -23.849  0.00  0.00    +0.005 C 
BRANCH  13  14
ATOM     14  C   UNL     1      34.714 -15.266 -23.203  0.00  0.00    -0.061 C 
ATOM     15  C   UNL     1      34.481 -15.796 -21.787  0.00  0.00    -0.024 C 
BRANCH  14  16
ATOM     16  N   UNL     1      35.250 -16.358 -24.021  0.00  0.00    +0.382 N 
ATOM     17  H   UNL     1      34.981 -16.216 -24.995  0.00  0.00    -0.089 HD
ATOM     18  H   UNL     1      34.875 -17.247 -23.690  0.00  0.00    -0.089 HD
ATOM     19  H   UNL     1      36.267 -16.370 -23.948  0.00  0.00    -0.089 HD
ENDBRANCH  14  16
ENDBRANCH  13  14
ENDBRANCH   1  13
TORSDOF 6
ENDMDL
