MODEL 1
REMARK VINA RESULT:     -10.4      0.000      0.000
REMARK  Name = 6918848
REMARK  6 active torsions:
REMARK  status: ('A' for Active; 'I' for Inactive)
REMARK    1  A    between atoms: N_2  and  C_5
REMARK    2  A    between atoms: C_3  and  C_17
REMARK    3  A    between atoms: C_10  and  C_13
REMARK    4  A    between atoms: N_12  and  O_15
REMARK    5  A    between atoms: C_17  and  C_18
REMARK    6  A    between atoms: C_17  and  C_24
REMARK                            x       y       z     vdW  Elec       q    Type
REMARK                         _______ _______ _______ _____ _____    ______ ____
ROOT
ATOM      1  O   UNL     1      35.022 -15.852 -21.101  0.00  0.00    -0.274 OA
ATOM      2  N   UNL     1      34.457 -17.659 -22.487  0.00  0.00    -0.284 N 
ATOM      3  C   UNL     1      34.691 -16.320 -22.187  0.00  0.00    +0.230 C 
ATOM      4  H   UNL     1      34.224 -17.860 -23.422  0.00  0.00    +0.155 HD
ENDROOT
BRANCH   2   5
ATOM      5  C   UNL     1      34.514 -18.763 -21.605  0.00  0.00    +0.050 C 
ATOM      6  C   UNL     1      35.748 -19.265 -21.227  0.00  0.00    +0.015 C 
ATOM      7  C   UNL     1      33.334 -19.318 -21.135  0.00  0.00    +0.015 C 
ATOM      8  C   UNL     1      35.804 -20.353 -20.355  0.00  0.00    +0.006 C 
ATOM      9  C   UNL     1      33.391 -20.405 -20.264  0.00  0.00    +0.006 C 
ATOM     10  C   UNL     1      34.625 -20.923 -19.874  0.00  0.00    +0.055 C 
BRANCH  10  13
ATOM     11  O   UNL     1      35.726 -22.312 -18.333  0.00  0.00    -0.268 OA
ATOM     12  N   UNL     1      33.541 -22.836 -18.849  0.00  0.00    -0.193 N 
ATOM     13  C   UNL     1      34.684 -22.056 -18.965  0.00  0.00    +0.268 C 
ATOM     14  H   UNL     1      32.721 -22.626 -19.353  0.00  0.00    +0.183 HD
BRANCH  12  15
ATOM     15  O   UNL     1      33.610 -23.934 -17.981  0.00  0.00    -0.295 OA
ATOM     16  H   UNL     1      32.790 -23.991 -17.466  0.00  0.00    +0.241 HD
ENDBRANCH  12  15
ENDBRANCH  10  13
ENDBRANCH   2   5
BRANCH   3  17
ATOM     17  C   UNL     1      34.527 -15.426 -23.431  0.00  0.00    +0.099 C 
BRANCH  17  18
ATOM     18  C   UNL     1      33.694 -14.210 -23.045  0.00  0.00    -0.014 C 
ATOM     19  C   UNL     1      32.713 -14.354 -22.087  0.00  0.00    -0.004 C 
ATOM     20  C   UNL     1      33.947 -13.005 -23.666  0.00  0.00    -0.004 C 
ATOM     21  C   UNL     1      31.949 -13.242 -21.733  0.00  0.00    -0.000 C 
ATOM     22  C   UNL     1      33.184 -11.893 -23.312  0.00  0.00    -0.000 C 
ATOM     23  C   UNL     1      32.185 -12.011 -22.346  0.00  0.00    -0.000 C 
ENDBRANCH  17  18
BRANCH  17  24
ATOM     24  C   UNL     1      33.947 -16.217 -24.640  0.00  0.00    +0.013 C 
ATOM     25  C   UNL     1      33.292 -15.290 -25.673  0.00  0.00    +0.001 C 
ATOM     26  C   UNL     1      35.046 -17.026 -25.346  0.00  0.00    +0.001 C 
ENDBRANCH  17  24
ENDBRANCH   3  17
TORSDOF 6
ENDMDL
MODEL 2
REMARK VINA RESULT:     -10.2      1.180      2.036
REMARK  Name = 6918848
REMARK  6 active torsions:
REMARK  status: ('A' for Active; 'I' for Inactive)
REMARK    1  A    between atoms: N_2  and  C_5
REMARK    2  A    between atoms: C_3  and  C_17
REMARK    3  A    between atoms: C_10  and  C_13
REMARK    4  A    between atoms: N_12  and  O_15
REMARK    5  A    between atoms: C_17  and  C_18
REMARK    6  A    between atoms: C_17  and  C_24
REMARK                            x       y       z     vdW  Elec       q    Type
REMARK                         _______ _______ _______ _____ _____    ______ ____
ROOT
ATOM      1  O   UNL     1      35.366 -16.883 -20.551  0.00  0.00    -0.274 OA
ATOM      2  N   UNL     1      34.476 -18.633 -21.836  0.00  0.00    -0.284 N 
ATOM      3  C   UNL     1      34.917 -17.334 -21.602  0.00  0.00    +0.230 C 
ATOM      4  H   UNL     1      34.170 -18.830 -22.751  0.00  0.00    +0.155 HD
ENDROOT
BRANCH   2   5
ATOM      5  C   UNL     1      34.415 -19.703 -20.913  0.00  0.00    +0.050 C 
ATOM      6  C   UNL     1      33.183 -20.116 -20.435  0.00  0.00    +0.015 C 
ATOM      7  C   UNL     1      35.589 -20.318 -20.509  0.00  0.00    +0.015 C 
ATOM      8  C   UNL     1      33.123 -21.173 -19.525  0.00  0.00    +0.006 C 
ATOM      9  C   UNL     1      35.529 -21.374 -19.600  0.00  0.00    +0.006 C 
ATOM     10  C   UNL     1      34.296 -21.801 -19.109  0.00  0.00    +0.055 C 
BRANCH  10  13
ATOM     11  O   UNL     1      33.520 -23.898 -18.389  0.00  0.00    -0.268 OA
ATOM     12  N   UNL     1      34.987 -22.786 -17.002  0.00  0.00    -0.193 N 
ATOM     13  C   UNL     1      34.233 -22.903 -18.162  0.00  0.00    +0.268 C 
ATOM     14  H   UNL     1      35.548 -21.995 -16.830  0.00  0.00    +0.183 HD
BRANCH  12  15
ATOM     15  O   UNL     1      34.911 -23.846 -16.088  0.00  0.00    -0.295 OA
ATOM     16  H   UNL     1      35.806 -24.130 -15.846  0.00  0.00    +0.241 HD
ENDBRANCH  12  15
ENDBRANCH  10  13
ENDBRANCH   2   5
BRANCH   3  17
ATOM     17  C   UNL     1      34.823 -16.468 -22.872  0.00  0.00    +0.099 C 
BRANCH  17  18
ATOM     18  C   UNL     1      33.956 -15.254 -22.566  0.00  0.00    -0.014 C 
ATOM     19  C   UNL     1      34.165 -14.090 -23.275  0.00  0.00    -0.004 C 
ATOM     20  C   UNL     1      32.988 -15.357 -21.588  0.00  0.00    -0.004 C 
ATOM     21  C   UNL     1      33.372 -12.979 -22.995  0.00  0.00    -0.000 C 
ATOM     22  C   UNL     1      32.194 -14.245 -21.308  0.00  0.00    -0.000 C 
ATOM     23  C   UNL     1      32.386 -13.056 -22.011  0.00  0.00    -0.000 C 
ENDBRANCH  17  18
BRANCH  17  24
ATOM     24  C   UNL     1      34.328 -17.291 -24.098  0.00  0.00    +0.013 C 
ATOM     25  C   UNL     1      34.223 -16.429 -25.364  0.00  0.00    +0.001 C 
ATOM     26  C   UNL     1      35.275 -18.464 -24.391  0.00  0.00    +0.001 C 
ENDBRANCH  17  24
ENDBRANCH   3  17
TORSDOF 6
ENDMDL
MODEL 3
REMARK VINA RESULT:     -10.0      3.006      7.879
REMARK  Name = 6918848
REMARK  6 active torsions:
REMARK  status: ('A' for Active; 'I' for Inactive)
REMARK    1  A    between atoms: N_2  and  C_5
REMARK    2  A    between atoms: C_3  and  C_17
REMARK    3  A    between atoms: C_10  and  C_13
REMARK    4  A    between atoms: N_12  and  O_15
REMARK    5  A    between atoms: C_17  and  C_18
REMARK    6  A    between atoms: C_17  and  C_24
REMARK                            x       y       z     vdW  Elec       q    Type
REMARK                         _______ _______ _______ _____ _____    ______ ____
ROOT
ATOM      1  O   UNL     1      34.996 -16.571 -20.996  0.00  0.00    -0.274 OA
ATOM      2  N   UNL     1      33.073 -16.116 -22.262  0.00  0.00    -0.284 N 
ATOM      3  C   UNL     1      34.149 -16.885 -21.829  0.00  0.00    +0.230 C 
ATOM      4  H   UNL     1      32.475 -16.538 -22.920  0.00  0.00    +0.155 HD
ENDROOT
BRANCH   2   5
ATOM      5  C   UNL     1      32.741 -14.799 -21.869  0.00  0.00    +0.050 C 
ATOM      6  C   UNL     1      32.536 -13.833 -22.841  0.00  0.00    +0.015 C 
ATOM      7  C   UNL     1      32.624 -14.502 -20.521  0.00  0.00    +0.015 C 
ATOM      8  C   UNL     1      32.206 -12.534 -22.453  0.00  0.00    +0.006 C 
ATOM      9  C   UNL     1      32.295 -13.203 -20.134  0.00  0.00    +0.006 C 
ATOM     10  C   UNL     1      32.086 -12.220 -21.100  0.00  0.00    +0.055 C 
BRANCH  10  13
ATOM     11  O   UNL     1      31.305 -10.046 -21.525  0.00  0.00    -0.268 OA
ATOM     12  N   UNL     1      31.933 -10.535 -19.361  0.00  0.00    -0.193 N 
ATOM     13  C   UNL     1      31.741 -10.866 -20.696  0.00  0.00    +0.268 C 
ATOM     14  H   UNL     1      32.278 -11.190 -18.712  0.00  0.00    +0.183 HD
BRANCH  12  15
ATOM     15  O   UNL     1      31.611  -9.224 -18.982  0.00  0.00    -0.295 OA
ATOM     16  H   UNL     1      30.721  -9.004 -19.301  0.00  0.00    +0.241 HD
ENDBRANCH  12  15
ENDBRANCH  10  13
ENDBRANCH   2   5
BRANCH   3  17
ATOM     17  C   UNL     1      34.159 -18.272 -22.499  0.00  0.00    +0.099 C 
BRANCH  17  18
ATOM     18  C   UNL     1      34.410 -19.325 -21.427  0.00  0.00    -0.014 C 
ATOM     19  C   UNL     1      35.710 -19.622 -21.078  0.00  0.00    -0.004 C 
ATOM     20  C   UNL     1      33.328 -19.947 -20.840  0.00  0.00    -0.004 C 
ATOM     21  C   UNL     1      35.940 -20.585 -20.097  0.00  0.00    -0.000 C 
ATOM     22  C   UNL     1      33.558 -20.910 -19.858  0.00  0.00    -0.000 C 
ATOM     23  C   UNL     1      34.864 -21.230 -19.487  0.00  0.00    -0.000 C 
ENDBRANCH  17  18
BRANCH  17  24
ATOM     24  C   UNL     1      35.172 -18.336 -23.680  0.00  0.00    +0.013 C 
ATOM     25  C   UNL     1      34.954 -19.577 -24.557  0.00  0.00    +0.001 C 
ATOM     26  C   UNL     1      35.057 -17.090 -24.571  0.00  0.00    +0.001 C 
ENDBRANCH  17  24
ENDBRANCH   3  17
TORSDOF 6
ENDMDL
MODEL 4
REMARK VINA RESULT:      -9.8      5.340      8.083
REMARK  Name = 6918848
REMARK  6 active torsions:
REMARK  status: ('A' for Active; 'I' for Inactive)
REMARK    1  A    between atoms: N_2  and  C_5
REMARK    2  A    between atoms: C_3  and  C_17
REMARK    3  A    between atoms: C_10  and  C_13
REMARK    4  A    between atoms: N_12  and  O_15
REMARK    5  A    between atoms: C_17  and  C_18
REMARK    6  A    between atoms: C_17  and  C_24
REMARK                            x       y       z     vdW  Elec       q    Type
REMARK                         _______ _______ _______ _____ _____    ______ ____
ROOT
ATOM      1  O   UNL     1      30.604 -10.560 -22.512  0.00  0.00    -0.274 OA
ATOM      2  N   UNL     1      32.867 -10.504 -23.128  0.00  0.00    -0.284 N 
ATOM      3  C   UNL     1      31.691  -9.994 -22.587  0.00  0.00    +0.230 C 
ATOM      4  H   UNL     1      33.657  -9.919 -23.081  0.00  0.00    +0.155 HD
ENDROOT
BRANCH   2   5
ATOM      5  C   UNL     1      33.059 -11.764 -23.741  0.00  0.00    +0.050 C 
ATOM      6  C   UNL     1      33.437 -11.820 -25.072  0.00  0.00    +0.015 C 
ATOM      7  C   UNL     1      32.867 -12.917 -22.996  0.00  0.00    +0.015 C 
ATOM      8  C   UNL     1      33.628 -13.064 -25.675  0.00  0.00    +0.006 C 
ATOM      9  C   UNL     1      33.058 -14.159 -23.600  0.00  0.00    +0.006 C 
ATOM     10  C   UNL     1      33.438 -14.233 -24.939  0.00  0.00    +0.055 C 
BRANCH  10  13
ATOM     11  O   UNL     1      33.140 -15.779 -26.682  0.00  0.00    -0.268 OA
ATOM     12  N   UNL     1      34.388 -16.464 -24.868  0.00  0.00    -0.193 N 
ATOM     13  C   UNL     1      33.638 -15.529 -25.568  0.00  0.00    +0.268 C 
ATOM     14  H   UNL     1      34.778 -16.257 -23.987  0.00  0.00    +0.183 HD
BRANCH  12  15
ATOM     15  O   UNL     1      34.565 -17.715 -25.474  0.00  0.00    -0.295 OA
ATOM     16  H   UNL     1      33.713 -18.176 -25.520  0.00  0.00    +0.241 HD
ENDBRANCH  12  15
ENDBRANCH  10  13
ENDBRANCH   2   5
BRANCH   3  17
ATOM     17  C   UNL     1      31.900  -8.579 -22.014  0.00  0.00    +0.099 C 
BRANCH  17  18
ATOM     18  C   UNL     1      32.631  -7.741 -23.054  0.00  0.00    -0.014 C 
ATOM     19  C   UNL     1      33.997  -7.881 -23.181  0.00  0.00    -0.004 C 
ATOM     20  C   UNL     1      31.904  -6.868 -23.837  0.00  0.00    -0.004 C 
ATOM     21  C   UNL     1      34.667  -7.114 -24.133  0.00  0.00    -0.000 C 
ATOM     22  C   UNL     1      32.574  -6.101 -24.790  0.00  0.00    -0.000 C 
ATOM     23  C   UNL     1      33.955  -6.224 -24.938  0.00  0.00    -0.000 C 
ENDBRANCH  17  18
BRANCH  17  24
ATOM     24  C   UNL     1      32.615  -8.615 -20.631  0.00  0.00    +0.013 C 
ATOM     25  C   UNL     1      32.640  -7.234 -19.961  0.00  0.00    +0.001 C 
ATOM     26  C   UNL     1      31.923  -9.601 -19.679  0.00  0.00    +0.001 C 
ENDBRANCH  17  24
ENDBRANCH   3  17
TORSDOF 6
ENDMDL
MODEL 5
REMARK VINA RESULT:      -9.5      3.598      9.049
REMARK  Name = 6918848
REMARK  6 active torsions:
REMARK  status: ('A' for Active; 'I' for Inactive)
REMARK    1  A    between atoms: N_2  and  C_5
REMARK    2  A    between atoms: C_3  and  C_17
REMARK    3  A    between atoms: C_10  and  C_13
REMARK    4  A    between atoms: N_12  and  O_15
REMARK    5  A    between atoms: C_17  and  C_18
REMARK    6  A    between atoms: C_17  and  C_24
REMARK                            x       y       z     vdW  Elec       q    Type
REMARK                         _______ _______ _______ _____ _____    ______ ____
ROOT
ATOM      1  O   UNL     1      33.851 -23.836 -19.123  0.00  0.00    -0.274 OA
ATOM      2  N   UNL     1      34.447 -21.708 -18.335  0.00  0.00    -0.284 N 
ATOM      3  C   UNL     1      34.106 -23.052 -18.213  0.00  0.00    +0.230 C 
ATOM      4  H   UNL     1      34.647 -21.232 -17.497  0.00  0.00    +0.155 HD
ENDROOT
BRANCH   2   5
ATOM      5  C   UNL     1      34.539 -20.946 -19.524  0.00  0.00    +0.050 C 
ATOM      6  C   UNL     1      33.378 -20.489 -20.127  0.00  0.00    +0.015 C 
ATOM      7  C   UNL     1      35.787 -20.670 -20.059  0.00  0.00    +0.015 C 
ATOM      8  C   UNL     1      33.469 -19.736 -21.298  0.00  0.00    +0.006 C 
ATOM      9  C   UNL     1      35.876 -19.918 -21.230  0.00  0.00    +0.006 C 
ATOM     10  C   UNL     1      34.718 -19.451 -21.849  0.00  0.00    +0.055 C 
BRANCH  10  13
ATOM     11  O   UNL     1      34.304 -19.074 -24.130  0.00  0.00    -0.268 OA
ATOM     12  N   UNL     1      35.498 -17.461 -22.995  0.00  0.00    -0.193 N 
ATOM     13  C   UNL     1      34.812 -18.665 -23.069  0.00  0.00    +0.268 C 
ATOM     14  H   UNL     1      35.897 -17.146 -22.152  0.00  0.00    +0.183 HD
BRANCH  12  15
ATOM     15  O   UNL     1      35.597 -16.715 -24.178  0.00  0.00    -0.295 OA
ATOM     16  H   UNL     1      35.836 -17.303 -24.912  0.00  0.00    +0.241 HD
ENDBRANCH  12  15
ENDBRANCH  10  13
ENDBRANCH   2   5
BRANCH   3  17
ATOM     17  C   UNL     1      34.120 -23.506 -16.741  0.00  0.00    +0.099 C 
BRANCH  17  18
ATOM     18  C   UNL     1      32.742 -23.253 -16.145  0.00  0.00    -0.014 C 
ATOM     19  C   UNL     1      31.674 -23.059 -16.996  0.00  0.00    -0.004 C 
ATOM     20  C   UNL     1      32.606 -23.225 -14.773  0.00  0.00    -0.004 C 
ATOM     21  C   UNL     1      30.412 -22.827 -16.451  0.00  0.00    -0.000 C 
ATOM     22  C   UNL     1      31.343 -22.993 -14.227  0.00  0.00    -0.000 C 
ATOM     23  C   UNL     1      30.247 -22.794 -15.066  0.00  0.00    -0.000 C 
ENDBRANCH  17  18
BRANCH  17  24
ATOM     24  C   UNL     1      35.276 -22.837 -15.941  0.00  0.00    +0.013 C 
ATOM     25  C   UNL     1      35.794 -23.742 -14.814  0.00  0.00    +0.001 C 
ATOM     26  C   UNL     1      36.455 -22.491 -16.862  0.00  0.00    +0.001 C 
ENDBRANCH  17  24
ENDBRANCH   3  17
TORSDOF 6
ENDMDL
MODEL 6
REMARK VINA RESULT:      -9.4      4.174      6.941
REMARK  Name = 6918848
REMARK  6 active torsions:
REMARK  status: ('A' for Active; 'I' for Inactive)
REMARK    1  A    between atoms: N_2  and  C_5
REMARK    2  A    between atoms: C_3  and  C_17
REMARK    3  A    between atoms: C_10  and  C_13
REMARK    4  A    between atoms: N_12  and  O_15
REMARK    5  A    between atoms: C_17  and  C_18
REMARK    6  A    between atoms: C_17  and  C_24
REMARK                            x       y       z     vdW  Elec       q    Type
REMARK                         _______ _______ _______ _____ _____    ______ ____
ROOT
ATOM      1  O   UNL     1      33.726 -10.454 -23.918  0.00  0.00    -0.274 OA
ATOM      2  N   UNL     1      32.397 -12.056 -22.835  0.00  0.00    -0.284 N 
ATOM      3  C   UNL     1      32.814 -10.768 -23.158  0.00  0.00    +0.230 C 
ATOM      4  H   UNL     1      31.627 -12.123 -22.225  0.00  0.00    +0.155 HD
ENDROOT
BRANCH   2   5
ATOM      5  C   UNL     1      32.952 -13.279 -23.279  0.00  0.00    +0.050 C 
ATOM      6  C   UNL     1      33.671 -14.060 -22.389  0.00  0.00    +0.015 C 
ATOM      7  C   UNL     1      32.763 -13.672 -24.594  0.00  0.00    +0.015 C 
ATOM      8  C   UNL     1      34.217 -15.267 -22.827  0.00  0.00    +0.006 C 
ATOM      9  C   UNL     1      33.309 -14.879 -25.031  0.00  0.00    +0.006 C 
ATOM     10  C   UNL     1      34.035 -15.676 -24.147  0.00  0.00    +0.055 C 
BRANCH  10  13
ATOM     11  O   UNL     1      34.947 -17.085 -25.791  0.00  0.00    -0.268 OA
ATOM     12  N   UNL     1      34.728 -17.950 -23.664  0.00  0.00    -0.193 N 
ATOM     13  C   UNL     1      34.603 -16.935 -24.603  0.00  0.00    +0.268 C 
ATOM     14  H   UNL     1      34.453 -17.822 -22.728  0.00  0.00    +0.183 HD
BRANCH  12  15
ATOM     15  O   UNL     1      35.263 -19.165 -24.114  0.00  0.00    -0.295 OA
ATOM     16  H   UNL     1      35.126 -19.849 -23.439  0.00  0.00    +0.241 HD
ENDBRANCH  12  15
ENDBRANCH  10  13
ENDBRANCH   2   5
BRANCH   3  17
ATOM     17  C   UNL     1      31.944  -9.702 -22.465  0.00  0.00    +0.099 C 
BRANCH  17  18
ATOM     18  C   UNL     1      32.122  -8.381 -23.201  0.00  0.00    -0.014 C 
ATOM     19  C   UNL     1      31.006  -7.741 -23.698  0.00  0.00    -0.004 C 
ATOM     20  C   UNL     1      33.393  -7.866 -23.348  0.00  0.00    -0.004 C 
ATOM     21  C   UNL     1      31.168  -6.532 -24.372  0.00  0.00    -0.000 C 
ATOM     22  C   UNL     1      33.555  -6.656 -24.022  0.00  0.00    -0.000 C 
ATOM     23  C   UNL     1      32.443  -5.989 -24.534  0.00  0.00    -0.000 C 
ENDBRANCH  17  18
BRANCH  17  24
ATOM     24  C   UNL     1      32.250  -9.609 -20.941  0.00  0.00    +0.013 C 
ATOM     25  C   UNL     1      32.168  -8.165 -20.426  0.00  0.00    +0.001 C 
ATOM     26  C   UNL     1      31.267 -10.466 -20.130  0.00  0.00    +0.001 C 
ENDBRANCH  17  24
ENDBRANCH   3  17
TORSDOF 6
ENDMDL
MODEL 7
REMARK VINA RESULT:      -9.4      4.177      6.992
REMARK  Name = 6918848
REMARK  6 active torsions:
REMARK  status: ('A' for Active; 'I' for Inactive)
REMARK    1  A    between atoms: N_2  and  C_5
REMARK    2  A    between atoms: C_3  and  C_17
REMARK    3  A    between atoms: C_10  and  C_13
REMARK    4  A    between atoms: N_12  and  O_15
REMARK    5  A    between atoms: C_17  and  C_18
REMARK    6  A    between atoms: C_17  and  C_24
REMARK                            x       y       z     vdW  Elec       q    Type
REMARK                         _______ _______ _______ _____ _____    ______ ____
ROOT
ATOM      1  O   UNL     1      33.737 -10.456 -23.904  0.00  0.00    -0.274 OA
ATOM      2  N   UNL     1      32.403 -12.057 -22.825  0.00  0.00    -0.284 N 
ATOM      3  C   UNL     1      32.823 -10.770 -23.146  0.00  0.00    +0.230 C 
ATOM      4  H   UNL     1      31.632 -12.125 -22.217  0.00  0.00    +0.155 HD
ENDROOT
BRANCH   2   5
ATOM      5  C   UNL     1      32.956 -13.281 -23.271  0.00  0.00    +0.050 C 
ATOM      6  C   UNL     1      32.737 -13.687 -24.577  0.00  0.00    +0.015 C 
ATOM      7  C   UNL     1      33.708 -14.046 -22.393  0.00  0.00    +0.015 C 
ATOM      8  C   UNL     1      33.284 -14.894 -25.017  0.00  0.00    +0.006 C 
ATOM      9  C   UNL     1      34.253 -15.251 -22.833  0.00  0.00    +0.006 C 
ATOM     10  C   UNL     1      34.042 -15.674 -24.145  0.00  0.00    +0.055 C 
BRANCH  10  13
ATOM     11  O   UNL     1      34.965 -17.074 -25.790  0.00  0.00    -0.268 OA
ATOM     12  N   UNL     1      34.730 -17.952 -23.671  0.00  0.00    -0.193 N 
ATOM     13  C   UNL     1      34.613 -16.931 -24.604  0.00  0.00    +0.268 C 
ATOM     14  H   UNL     1      34.448 -17.830 -22.735  0.00  0.00    +0.183 HD
BRANCH  12  15
ATOM     15  O   UNL     1      35.268 -19.164 -24.124  0.00  0.00    -0.295 OA
ATOM     16  H   UNL     1      35.143 -19.848 -23.446  0.00  0.00    +0.241 HD
ENDBRANCH  12  15
ENDBRANCH  10  13
ENDBRANCH   2   5
BRANCH   3  17
ATOM     17  C   UNL     1      31.954  -9.703 -22.451  0.00  0.00    +0.099 C 
BRANCH  17  18
ATOM     18  C   UNL     1      32.133  -8.382 -23.187  0.00  0.00    -0.014 C 
ATOM     19  C   UNL     1      33.404  -7.869 -23.334  0.00  0.00    -0.004 C 
ATOM     20  C   UNL     1      31.017  -7.740 -23.683  0.00  0.00    -0.004 C 
ATOM     21  C   UNL     1      33.569  -6.659 -24.008  0.00  0.00    -0.000 C 
ATOM     22  C   UNL     1      31.181  -6.530 -24.357  0.00  0.00    -0.000 C 
ATOM     23  C   UNL     1      32.457  -5.990 -24.520  0.00  0.00    -0.000 C 
ENDBRANCH  17  18
BRANCH  17  24
ATOM     24  C   UNL     1      32.260  -9.611 -20.927  0.00  0.00    +0.013 C 
ATOM     25  C   UNL     1      32.157  -8.171 -20.406  0.00  0.00    +0.001 C 
ATOM     26  C   UNL     1      31.291 -10.487 -20.118  0.00  0.00    +0.001 C 
ENDBRANCH  17  24
ENDBRANCH   3  17
TORSDOF 6
ENDMDL
MODEL 8
REMARK VINA RESULT:      -9.4      3.032      8.156
REMARK  Name = 6918848
REMARK  6 active torsions:
REMARK  status: ('A' for Active; 'I' for Inactive)
REMARK    1  A    between atoms: N_2  and  C_5
REMARK    2  A    between atoms: C_3  and  C_17
REMARK    3  A    between atoms: C_10  and  C_13
REMARK    4  A    between atoms: N_12  and  O_15
REMARK    5  A    between atoms: C_17  and  C_18
REMARK    6  A    between atoms: C_17  and  C_24
REMARK                            x       y       z     vdW  Elec       q    Type
REMARK                         _______ _______ _______ _____ _____    ______ ____
ROOT
ATOM      1  O   UNL     1      35.079 -16.251 -21.454  0.00  0.00    -0.274 OA
ATOM      2  N   UNL     1      33.469 -15.873 -23.118  0.00  0.00    -0.284 N 
ATOM      3  C   UNL     1      34.379 -16.632 -22.389  0.00  0.00    +0.230 C 
ATOM      4  H   UNL     1      32.970 -16.348 -23.820  0.00  0.00    +0.155 HD
ENDROOT
BRANCH   2   5
ATOM      5  C   UNL     1      33.178 -14.496 -22.968  0.00  0.00    +0.050 C 
ATOM      6  C   UNL     1      33.741 -13.586 -23.848  0.00  0.00    +0.015 C 
ATOM      7  C   UNL     1      32.335 -14.087 -21.948  0.00  0.00    +0.015 C 
ATOM      8  C   UNL     1      33.453 -12.228 -23.701  0.00  0.00    +0.006 C 
ATOM      9  C   UNL     1      32.048 -12.731 -21.802  0.00  0.00    +0.006 C 
ATOM     10  C   UNL     1      32.607 -11.801 -22.678  0.00  0.00    +0.055 C 
BRANCH  10  13
ATOM     11  O   UNL     1      31.333 -10.012 -21.844  0.00  0.00    -0.268 OA
ATOM     12  N   UNL     1      33.138  -9.488 -23.181  0.00  0.00    -0.193 N 
ATOM     13  C   UNL     1      32.306 -10.386 -22.526  0.00  0.00    +0.268 C 
ATOM     14  H   UNL     1      33.904  -9.794 -23.718  0.00  0.00    +0.183 HD
BRANCH  12  15
ATOM     15  O   UNL     1      32.833  -8.127 -23.041  0.00  0.00    -0.295 OA
ATOM     16  H   UNL     1      33.646  -7.604 -23.123  0.00  0.00    +0.241 HD
ENDBRANCH  12  15
ENDBRANCH  10  13
ENDBRANCH   2   5
BRANCH   3  17
ATOM     17  C   UNL     1      34.399 -18.098 -22.862  0.00  0.00    +0.099 C 
BRANCH  17  18
ATOM     18  C   UNL     1      34.993 -18.955 -21.752  0.00  0.00    -0.014 C 
ATOM     19  C   UNL     1      34.169 -19.826 -21.071  0.00  0.00    -0.004 C 
ATOM     20  C   UNL     1      36.336 -18.834 -21.464  0.00  0.00    -0.004 C 
ATOM     21  C   UNL     1      34.711 -20.611 -20.055  0.00  0.00    -0.000 C 
ATOM     22  C   UNL     1      36.880 -19.620 -20.448  0.00  0.00    -0.000 C 
ATOM     23  C   UNL     1      36.068 -20.508 -19.743  0.00  0.00    -0.000 C 
ENDBRANCH  17  18
BRANCH  17  24
ATOM     24  C   UNL     1      35.132 -18.254 -24.227  0.00  0.00    +0.013 C 
ATOM     25  C   UNL     1      34.887 -19.633 -24.856  0.00  0.00    +0.001 C 
ATOM     26  C   UNL     1      34.672 -17.180 -25.225  0.00  0.00    +0.001 C 
ENDBRANCH  17  24
ENDBRANCH   3  17
TORSDOF 6
ENDMDL
MODEL 9
REMARK VINA RESULT:      -9.4      4.303      9.970
REMARK  Name = 6918848
REMARK  6 active torsions:
REMARK  status: ('A' for Active; 'I' for Inactive)
REMARK    1  A    between atoms: N_2  and  C_5
REMARK    2  A    between atoms: C_3  and  C_17
REMARK    3  A    between atoms: C_10  and  C_13
REMARK    4  A    between atoms: N_12  and  O_15
REMARK    5  A    between atoms: C_17  and  C_18
REMARK    6  A    between atoms: C_17  and  C_24
REMARK                            x       y       z     vdW  Elec       q    Type
REMARK                         _______ _______ _______ _____ _____    ______ ____
ROOT
ATOM      1  O   UNL     1      35.475 -22.193 -15.683  0.00  0.00    -0.274 OA
ATOM      2  N   UNL     1      34.334 -23.166 -17.487  0.00  0.00    -0.284 N 
ATOM      3  C   UNL     1      34.823 -23.104 -16.186  0.00  0.00    +0.230 C 
ATOM      4  H   UNL     1      33.805 -23.964 -17.715  0.00  0.00    +0.155 HD
ENDROOT
BRANCH   2   5
ATOM      5  C   UNL     1      34.509 -22.216 -18.521  0.00  0.00    +0.050 C 
ATOM      6  C   UNL     1      35.792 -21.844 -18.888  0.00  0.00    +0.015 C 
ATOM      7  C   UNL     1      33.395 -21.680 -19.145  0.00  0.00    +0.015 C 
ATOM      8  C   UNL     1      35.964 -20.908 -19.909  0.00  0.00    +0.006 C 
ATOM      9  C   UNL     1      33.568 -20.745 -20.165  0.00  0.00    +0.006 C 
ATOM     10  C   UNL     1      34.852 -20.359 -20.547  0.00  0.00    +0.055 C 
BRANCH  10  13
ATOM     11  O   UNL     1      34.162 -19.232 -22.489  0.00  0.00    -0.268 OA
ATOM     12  N   UNL     1      36.213 -18.654 -21.608  0.00  0.00    -0.193 N 
ATOM     13  C   UNL     1      35.033 -19.384 -21.612  0.00  0.00    +0.268 C 
ATOM     14  H   UNL     1      36.896 -18.782 -20.910  0.00  0.00    +0.183 HD
BRANCH  12  15
ATOM     15  O   UNL     1      36.386 -17.727 -22.645  0.00  0.00    -0.295 OA
ATOM     16  H   UNL     1      36.284 -16.827 -22.295  0.00  0.00    +0.241 HD
ENDBRANCH  12  15
ENDBRANCH  10  13
ENDBRANCH   2   5
BRANCH   3  17
ATOM     17  C   UNL     1      34.411 -24.343 -15.368  0.00  0.00    +0.099 C 
BRANCH  17  18
ATOM     18  C   UNL     1      33.027 -24.095 -14.781  0.00  0.00    -0.014 C 
ATOM     19  C   UNL     1      32.358 -22.938 -15.122  0.00  0.00    -0.004 C 
ATOM     20  C   UNL     1      32.488 -25.036 -13.929  0.00  0.00    -0.004 C 
ATOM     21  C   UNL     1      31.091 -22.711 -14.585  0.00  0.00    -0.000 C 
ATOM     22  C   UNL     1      31.220 -24.808 -13.393  0.00  0.00    -0.000 C 
ATOM     23  C   UNL     1      30.522 -23.646 -13.721  0.00  0.00    -0.000 C 
ENDBRANCH  17  18
BRANCH  17  24
ATOM     24  C   UNL     1      35.481 -24.712 -14.299  0.00  0.00    +0.013 C 
ATOM     25  C   UNL     1      36.848 -25.006 -14.932  0.00  0.00    +0.001 C 
ATOM     26  C   UNL     1      35.656 -23.576 -13.280  0.00  0.00    +0.001 C 
ENDBRANCH  17  24
ENDBRANCH   3  17
TORSDOF 6
ENDMDL
