MODEL 1
REMARK VINA RESULT:      -8.9      0.000      0.000
REMARK  Name = 5756
REMARK  3 active torsions:
REMARK  status: ('A' for Active; 'I' for Inactive)
REMARK    1  A    between atoms: C_5  and  O_19
REMARK    2  A    between atoms: C_8  and  O_21
REMARK    3  A    between atoms: C_18  and  O_23
REMARK                            x       y       z     vdW  Elec       q    Type
REMARK                         _______ _______ _______ _____ _____    ______ ____
ROOT
ATOM      1  C   UNL     1      36.298 -25.071 -14.088  0.00  0.00    +0.027 C 
ATOM      2  C   UNL     1      36.990 -23.731 -14.413  0.00  0.00    +0.005 C 
ATOM      3  C   UNL     1      36.685 -23.251 -15.832  0.00  0.00    +0.005 C 
ATOM      4  C   UNL     1      35.148 -23.028 -15.966  0.00  0.00    +0.022 C 
ATOM      5  C   UNL     1      36.844 -25.285 -12.662  0.00  0.00    +0.137 C 
ATOM      6  C   UNL     1      34.782 -24.855 -14.169  0.00  0.00    +0.003 C 
ATOM      7  C   UNL     1      38.443 -23.964 -13.998  0.00  0.00    +0.032 C 
ATOM      8  C   UNL     1      38.333 -24.892 -12.771  0.00  0.00    +0.137 C 
ATOM      9  C   UNL     1      34.356 -24.293 -15.540  0.00  0.00    +0.004 C 
ATOM     10  C   UNL     1      37.409 -21.950 -16.181  0.00  0.00    +0.005 C 
ATOM     11  C   UNL     1      36.701 -26.252 -15.007  0.00  0.00    +0.002 C 
ATOM     12  C   UNL     1      34.788 -22.471 -17.340  0.00  0.00    -0.026 C 
ATOM     13  C   UNL     1      37.177 -21.606 -17.650  0.00  0.00    +0.026 C 
ATOM     14  C   UNL     1      35.747 -21.766 -18.102  0.00  0.00    -0.023 C 
ATOM     15  C   UNL     1      33.478 -22.566 -17.845  0.00  0.00    -0.001 C 
ATOM     16  C   UNL     1      35.391 -21.228 -19.351  0.00  0.00    +0.032 C 
ATOM     17  C   UNL     1      33.137 -22.019 -19.083  0.00  0.00    +0.036 C 
ATOM     18  C   UNL     1      34.093 -21.355 -19.839  0.00  0.00    +0.133 C 
ENDROOT
BRANCH   5  19
ATOM     19  O   UNL     1      36.713 -26.619 -12.203  0.00  0.00    -0.382 OA
ATOM     20  H   UNL     1      36.048 -26.655 -11.499  0.00  0.00    +0.210 HD
ENDBRANCH   5  19
BRANCH   8  21
ATOM     21  O   UNL     1      38.720 -24.207 -11.586  0.00  0.00    -0.382 OA
ATOM     22  H   UNL     1      38.962 -23.294 -11.805  0.00  0.00    +0.210 HD
ENDBRANCH   8  21
BRANCH  18  23
ATOM     23  O   UNL     1      33.763 -20.825 -21.047  0.00  0.00    -0.506 OA
ATOM     24  H   UNL     1      33.348 -21.358 -21.696  0.00  0.00    +0.292 HD
ENDBRANCH  18  23
TORSDOF 3
ENDMDL
MODEL 2
REMARK VINA RESULT:      -8.6      1.783      3.840
REMARK  Name = 5756
REMARK  3 active torsions:
REMARK  status: ('A' for Active; 'I' for Inactive)
REMARK    1  A    between atoms: C_5  and  O_19
REMARK    2  A    between atoms: C_8  and  O_21
REMARK    3  A    between atoms: C_18  and  O_23
REMARK                            x       y       z     vdW  Elec       q    Type
REMARK                         _______ _______ _______ _____ _____    ______ ____
ROOT
ATOM      1  C   UNL     1      36.378 -22.926 -15.895  0.00  0.00    +0.027 C 
ATOM      2  C   UNL     1      35.305 -23.414 -16.891  0.00  0.00    +0.005 C 
ATOM      3  C   UNL     1      34.828 -22.299 -17.821  0.00  0.00    +0.005 C 
ATOM      4  C   UNL     1      36.042 -21.791 -18.656  0.00  0.00    +0.022 C 
ATOM      5  C   UNL     1      36.584 -24.232 -15.102  0.00  0.00    +0.137 C 
ATOM      6  C   UNL     1      37.599 -22.465 -16.701  0.00  0.00    +0.003 C 
ATOM      7  C   UNL     1      34.289 -24.134 -16.003  0.00  0.00    +0.032 C 
ATOM      8  C   UNL     1      35.152 -24.770 -14.894  0.00  0.00    +0.137 C 
ATOM      9  C   UNL     1      37.228 -21.387 -17.738  0.00  0.00    +0.004 C 
ATOM     10  C   UNL     1      33.726 -22.762 -18.777  0.00  0.00    +0.005 C 
ATOM     11  C   UNL     1      35.921 -21.784 -14.954  0.00  0.00    +0.002 C 
ATOM     12  C   UNL     1      35.613 -20.728 -19.664  0.00  0.00    -0.026 C 
ATOM     13  C   UNL     1      33.198 -21.571 -19.573  0.00  0.00    +0.026 C 
ATOM     14  C   UNL     1      34.277 -20.667 -20.117  0.00  0.00    -0.023 C 
ATOM     15  C   UNL     1      36.548 -19.843 -20.231  0.00  0.00    -0.001 C 
ATOM     16  C   UNL     1      33.904 -19.705 -21.072  0.00  0.00    +0.032 C 
ATOM     17  C   UNL     1      36.165 -18.898 -21.186  0.00  0.00    +0.036 C 
ATOM     18  C   UNL     1      34.843 -18.825 -21.603  0.00  0.00    +0.133 C 
ENDROOT
BRANCH   5  19
ATOM     19  O   UNL     1      37.229 -24.038 -13.855  0.00  0.00    -0.382 OA
ATOM     20  H   UNL     1      38.055 -23.550 -13.991  0.00  0.00    +0.210 HD
ENDBRANCH   5  19
BRANCH   8  21
ATOM     21  O   UNL     1      35.166 -26.186 -15.018  0.00  0.00    -0.382 OA
ATOM     22  H   UNL     1      36.050 -26.521 -14.802  0.00  0.00    +0.210 HD
ENDBRANCH   8  21
BRANCH  18  23
ATOM     23  O   UNL     1      34.467 -17.903 -22.529  0.00  0.00    -0.506 OA
ATOM     24  H   UNL     1      33.754 -17.323 -22.351  0.00  0.00    +0.292 HD
ENDBRANCH  18  23
TORSDOF 3
ENDMDL
MODEL 3
REMARK VINA RESULT:      -8.6     10.536     14.086
REMARK  Name = 5756
REMARK  3 active torsions:
REMARK  status: ('A' for Active; 'I' for Inactive)
REMARK    1  A    between atoms: C_5  and  O_19
REMARK    2  A    between atoms: C_8  and  O_21
REMARK    3  A    between atoms: C_18  and  O_23
REMARK                            x       y       z     vdW  Elec       q    Type
REMARK                         _______ _______ _______ _____ _____    ______ ____
ROOT
ATOM      1  C   UNL     1      33.155 -13.922 -22.259  0.00  0.00    +0.027 C 
ATOM      2  C   UNL     1      32.180 -13.430 -21.169  0.00  0.00    +0.005 C 
ATOM      3  C   UNL     1      32.350 -11.940 -20.871  0.00  0.00    +0.005 C 
ATOM      4  C   UNL     1      32.046 -11.132 -22.169  0.00  0.00    +0.022 C 
ATOM      5  C   UNL     1      32.772 -15.416 -22.270  0.00  0.00    +0.137 C 
ATOM      6  C   UNL     1      32.838 -13.169 -23.556  0.00  0.00    +0.003 C 
ATOM      7  C   UNL     1      32.358 -14.445 -20.040  0.00  0.00    +0.032 C 
ATOM      8  C   UNL     1      32.628 -15.773 -20.774  0.00  0.00    +0.137 C 
ATOM      9  C   UNL     1      32.900 -11.641 -23.362  0.00  0.00    +0.004 C 
ATOM     10  C   UNL     1      31.422 -11.455 -19.755  0.00  0.00    +0.005 C 
ATOM     11  C   UNL     1      34.656 -13.749 -21.916  0.00  0.00    +0.002 C 
ATOM     12  C   UNL     1      32.121  -9.629 -21.914  0.00  0.00    -0.026 C 
ATOM     13  C   UNL     1      31.743 -10.003 -19.411  0.00  0.00    +0.026 C 
ATOM     14  C   UNL     1      31.933  -9.112 -20.613  0.00  0.00    -0.023 C 
ATOM     15  C   UNL     1      32.291  -8.719 -22.973  0.00  0.00    -0.001 C 
ATOM     16  C   UNL     1      31.970  -7.723 -20.399  0.00  0.00    +0.032 C 
ATOM     17  C   UNL     1      32.316  -7.341 -22.747  0.00  0.00    +0.036 C 
ATOM     18  C   UNL     1      32.161  -6.843 -21.461  0.00  0.00    +0.133 C 
ENDROOT
BRANCH   5  19
ATOM     19  O   UNL     1      33.742 -16.242 -22.888  0.00  0.00    -0.382 OA
ATOM     20  H   UNL     1      34.621 -16.020 -22.547  0.00  0.00    +0.210 HD
ENDBRANCH   5  19
BRANCH   8  21
ATOM     21  O   UNL     1      31.535 -16.668 -20.614  0.00  0.00    -0.382 OA
ATOM     22  H   UNL     1      31.256 -16.996 -21.483  0.00  0.00    +0.210 HD
ENDBRANCH   8  21
BRANCH  18  23
ATOM     23  O   UNL     1      32.190  -5.502 -21.238  0.00  0.00    -0.506 OA
ATOM     24  H   UNL     1      32.927  -4.995 -21.518  0.00  0.00    +0.292 HD
ENDBRANCH  18  23
TORSDOF 3
ENDMDL
MODEL 4
REMARK VINA RESULT:      -8.4      2.169      2.959
REMARK  Name = 5756
REMARK  3 active torsions:
REMARK  status: ('A' for Active; 'I' for Inactive)
REMARK    1  A    between atoms: C_5  and  O_19
REMARK    2  A    between atoms: C_8  and  O_21
REMARK    3  A    between atoms: C_18  and  O_23
REMARK                            x       y       z     vdW  Elec       q    Type
REMARK                         _______ _______ _______ _____ _____    ______ ____
ROOT
ATOM      1  C   UNL     1      36.838 -25.290 -13.345  0.00  0.00    +0.027 C 
ATOM      2  C   UNL     1      36.966 -24.230 -14.459  0.00  0.00    +0.005 C 
ATOM      3  C   UNL     1      35.672 -24.068 -15.257  0.00  0.00    +0.005 C 
ATOM      4  C   UNL     1      34.545 -23.594 -14.289  0.00  0.00    +0.022 C 
ATOM      5  C   UNL     1      38.279 -25.244 -12.800  0.00  0.00    +0.137 C 
ATOM      6  C   UNL     1      35.764 -24.814 -12.359  0.00  0.00    +0.003 C 
ATOM      7  C   UNL     1      38.250 -24.627 -15.189  0.00  0.00    +0.032 C 
ATOM      8  C   UNL     1      39.155 -25.183 -14.071  0.00  0.00    +0.137 C 
ATOM      9  C   UNL     1      34.421 -24.538 -13.063  0.00  0.00    +0.004 C 
ATOM     10  C   UNL     1      35.806 -23.057 -16.397  0.00  0.00    +0.005 C 
ATOM     11  C   UNL     1      36.488 -26.715 -13.840  0.00  0.00    +0.002 C 
ATOM     12  C   UNL     1      33.242 -23.336 -15.042  0.00  0.00    -0.026 C 
ATOM     13  C   UNL     1      34.531 -23.050 -17.236  0.00  0.00    +0.026 C 
ATOM     14  C   UNL     1      33.260 -23.039 -16.423  0.00  0.00    -0.023 C 
ATOM     15  C   UNL     1      32.007 -23.301 -14.370  0.00  0.00    -0.001 C 
ATOM     16  C   UNL     1      32.055 -22.770 -17.097  0.00  0.00    +0.032 C 
ATOM     17  C   UNL     1      30.820 -23.023 -15.050  0.00  0.00    +0.036 C 
ATOM     18  C   UNL     1      30.842 -22.763 -16.414  0.00  0.00    +0.133 C 
ENDROOT
BRANCH   5  19
ATOM     19  O   UNL     1      38.621 -26.372 -12.014  0.00  0.00    -0.382 OA
ATOM     20  H   UNL     1      37.920 -26.537 -11.365  0.00  0.00    +0.210 HD
ENDBRANCH   5  19
BRANCH   8  21
ATOM     21  O   UNL     1      40.255 -24.313 -13.835  0.00  0.00    -0.382 OA
ATOM     22  H   UNL     1      39.998 -23.402 -14.046  0.00  0.00    +0.210 HD
ENDBRANCH   8  21
BRANCH  18  23
ATOM     23  O   UNL     1      29.686 -22.496 -17.078  0.00  0.00    -0.506 OA
ATOM     24  H   UNL     1      28.907 -22.973 -16.875  0.00  0.00    +0.292 HD
ENDBRANCH  18  23
TORSDOF 3
ENDMDL
MODEL 5
REMARK VINA RESULT:      -8.3      3.490      6.604
REMARK  Name = 5756
REMARK  3 active torsions:
REMARK  status: ('A' for Active; 'I' for Inactive)
REMARK    1  A    between atoms: C_5  and  O_19
REMARK    2  A    between atoms: C_8  and  O_21
REMARK    3  A    between atoms: C_18  and  O_23
REMARK                            x       y       z     vdW  Elec       q    Type
REMARK                         _______ _______ _______ _____ _____    ______ ____
ROOT
ATOM      1  C   UNL     1      30.654 -23.817 -14.813  0.00  0.00    +0.027 C 
ATOM      2  C   UNL     1      31.496 -23.625 -16.093  0.00  0.00    +0.005 C 
ATOM      3  C   UNL     1      32.977 -23.403 -15.784  0.00  0.00    +0.005 C 
ATOM      4  C   UNL     1      33.528 -24.660 -15.046  0.00  0.00    +0.022 C 
ATOM      5  C   UNL     1      29.261 -23.951 -15.459  0.00  0.00    +0.137 C 
ATOM      6  C   UNL     1      31.155 -25.078 -14.100  0.00  0.00    +0.003 C 
ATOM      7  C   UNL     1      30.726 -22.561 -16.876  0.00  0.00    +0.032 C 
ATOM      8  C   UNL     1      29.249 -22.856 -16.548  0.00  0.00    +0.137 C 
ATOM      9  C   UNL     1      32.666 -25.007 -13.802  0.00  0.00    +0.004 C 
ATOM     10  C   UNL     1      33.810 -23.160 -17.043  0.00  0.00    +0.005 C 
ATOM     11  C   UNL     1      30.685 -22.621 -13.829  0.00  0.00    +0.002 C 
ATOM     12  C   UNL     1      35.026 -24.532 -14.780  0.00  0.00    -0.026 C 
ATOM     13  C   UNL     1      35.243 -22.804 -16.656  0.00  0.00    +0.026 C 
ATOM     14  C   UNL     1      35.826 -23.684 -15.578  0.00  0.00    -0.023 C 
ATOM     15  C   UNL     1      35.661 -25.315 -13.799  0.00  0.00    -0.001 C 
ATOM     16  C   UNL     1      37.210 -23.603 -15.344  0.00  0.00    +0.032 C 
ATOM     17  C   UNL     1      37.038 -25.231 -13.584  0.00  0.00    +0.036 C 
ATOM     18  C   UNL     1      37.812 -24.372 -14.352  0.00  0.00    +0.133 C 
ENDROOT
BRANCH   5  19
ATOM     19  O   UNL     1      28.195 -23.755 -14.545  0.00  0.00    -0.382 OA
ATOM     20  H   UNL     1      27.641 -23.020 -14.848  0.00  0.00    +0.210 HD
ENDBRANCH   5  19
BRANCH   8  21
ATOM     21  O   UNL     1      28.569 -23.351 -17.695  0.00  0.00    -0.382 OA
ATOM     22  H   UNL     1      28.919 -24.225 -17.926  0.00  0.00    +0.210 HD
ENDBRANCH   8  21
BRANCH  18  23
ATOM     23  O   UNL     1      39.152 -24.285 -14.141  0.00  0.00    -0.506 OA
ATOM     24  H   UNL     1      39.695 -25.040 -14.258  0.00  0.00    +0.292 HD
ENDBRANCH  18  23
TORSDOF 3
ENDMDL
MODEL 6
REMARK VINA RESULT:      -8.2     11.840     16.102
REMARK  Name = 5756
REMARK  3 active torsions:
REMARK  status: ('A' for Active; 'I' for Inactive)
REMARK    1  A    between atoms: C_5  and  O_19
REMARK    2  A    between atoms: C_8  and  O_21
REMARK    3  A    between atoms: C_18  and  O_23
REMARK                            x       y       z     vdW  Elec       q    Type
REMARK                         _______ _______ _______ _____ _____    ______ ____
ROOT
ATOM      1  C   UNL     1      32.123  -8.076 -21.818  0.00  0.00    +0.027 C 
ATOM      2  C   UNL     1      32.342  -8.618 -23.246  0.00  0.00    +0.005 C 
ATOM      3  C   UNL     1      33.006  -9.995 -23.248  0.00  0.00    +0.005 C 
ATOM      4  C   UNL     1      32.076 -11.000 -22.504  0.00  0.00    +0.022 C 
ATOM      5  C   UNL     1      31.515  -6.704 -22.171  0.00  0.00    +0.137 C 
ATOM      6  C   UNL     1      31.171  -9.031 -21.088  0.00  0.00    +0.003 C 
ATOM      7  C   UNL     1      33.022  -7.457 -23.973  0.00  0.00    +0.032 C 
ATOM      8  C   UNL     1      32.385  -6.202 -23.344  0.00  0.00    +0.137 C 
ATOM      9  C   UNL     1      31.699 -10.479 -21.091  0.00  0.00    +0.004 C 
ATOM     10  C   UNL     1      33.274 -10.517 -24.660  0.00  0.00    +0.005 C 
ATOM     11  C   UNL     1      33.417  -7.899 -20.984  0.00  0.00    +0.002 C 
ATOM     12  C   UNL     1      32.649 -12.414 -22.541  0.00  0.00    -0.026 C 
ATOM     13  C   UNL     1      34.065 -11.821 -24.589  0.00  0.00    +0.026 C 
ATOM     14  C   UNL     1      33.553 -12.795 -23.557  0.00  0.00    -0.023 C 
ATOM     15  C   UNL     1      32.229 -13.394 -21.623  0.00  0.00    -0.001 C 
ATOM     16  C   UNL     1      34.046 -14.111 -23.599  0.00  0.00    +0.032 C 
ATOM     17  C   UNL     1      32.720 -14.700 -21.683  0.00  0.00    +0.036 C 
ATOM     18  C   UNL     1      33.632 -15.058 -22.666  0.00  0.00    +0.133 C 
ENDROOT
BRANCH   5  19
ATOM     19  O   UNL     1      31.547  -5.780 -21.097  0.00  0.00    -0.382 OA
ATOM     20  H   UNL     1      30.647  -5.476 -20.906  0.00  0.00    +0.210 HD
ENDBRANCH   5  19
BRANCH   8  21
ATOM     21  O   UNL     1      31.555  -5.534 -24.285  0.00  0.00    -0.382 OA
ATOM     22  H   UNL     1      31.561  -4.581 -24.103  0.00  0.00    +0.210 HD
ENDBRANCH   8  21
BRANCH  18  23
ATOM     23  O   UNL     1      34.114 -16.328 -22.723  0.00  0.00    -0.506 OA
ATOM     24  H   UNL     1      33.528 -17.047 -22.858  0.00  0.00    +0.292 HD
ENDBRANCH  18  23
TORSDOF 3
ENDMDL
MODEL 7
REMARK VINA RESULT:      -8.1      0.938      2.726
REMARK  Name = 5756
REMARK  3 active torsions:
REMARK  status: ('A' for Active; 'I' for Inactive)
REMARK    1  A    between atoms: C_5  and  O_19
REMARK    2  A    between atoms: C_8  and  O_21
REMARK    3  A    between atoms: C_18  and  O_23
REMARK                            x       y       z     vdW  Elec       q    Type
REMARK                         _______ _______ _______ _____ _____    ______ ____
ROOT
ATOM      1  C   UNL     1      37.260 -23.619 -14.045  0.00  0.00    +0.027 C 
ATOM      2  C   UNL     1      35.963 -24.364 -14.424  0.00  0.00    +0.005 C 
ATOM      3  C   UNL     1      35.078 -23.546 -15.364  0.00  0.00    +0.005 C 
ATOM      4  C   UNL     1      35.864 -23.277 -16.683  0.00  0.00    +0.022 C 
ATOM      5  C   UNL     1      37.865 -24.659 -13.081  0.00  0.00    +0.137 C 
ATOM      6  C   UNL     1      38.067 -23.388 -15.329  0.00  0.00    +0.003 C 
ATOM      7  C   UNL     1      35.403 -24.820 -13.076  0.00  0.00    +0.032 C 
ATOM      8  C   UNL     1      36.659 -25.127 -12.237  0.00  0.00    +0.137 C 
ATOM      9  C   UNL     1      37.247 -22.635 -16.394  0.00  0.00    +0.004 C 
ATOM     10  C   UNL     1      33.766 -24.255 -15.703  0.00  0.00    +0.005 C 
ATOM     11  C   UNL     1      37.046 -22.266 -13.322  0.00  0.00    +0.002 C 
ATOM     12  C   UNL     1      35.002 -22.530 -17.698  0.00  0.00    -0.026 C 
ATOM     13  C   UNL     1      32.873 -23.328 -16.523  0.00  0.00    +0.026 C 
ATOM     14  C   UNL     1      33.593 -22.601 -17.631  0.00  0.00    -0.023 C 
ATOM     15  C   UNL     1      35.583 -21.828 -18.770  0.00  0.00    -0.001 C 
ATOM     16  C   UNL     1      32.812 -21.937 -18.593  0.00  0.00    +0.032 C 
ATOM     17  C   UNL     1      34.795 -21.181 -19.723  0.00  0.00    +0.036 C 
ATOM     18  C   UNL     1      33.410 -21.230 -19.633  0.00  0.00    +0.133 C 
ENDROOT
BRANCH   5  19
ATOM     19  O   UNL     1      38.881 -24.131 -12.248  0.00  0.00    -0.382 OA
ATOM     20  H   UNL     1      38.886 -24.607 -11.403  0.00  0.00    +0.210 HD
ENDBRANCH   5  19
BRANCH   8  21
ATOM     21  O   UNL     1      36.775 -26.524 -11.998  0.00  0.00    -0.382 OA
ATOM     22  H   UNL     1      37.418 -26.678 -11.288  0.00  0.00    +0.210 HD
ENDBRANCH   8  21
BRANCH  18  23
ATOM     23  O   UNL     1      32.641 -20.596 -20.558  0.00  0.00    -0.506 OA
ATOM     24  H   UNL     1      31.828 -20.974 -20.830  0.00  0.00    +0.292 HD
ENDBRANCH  18  23
TORSDOF 3
ENDMDL
MODEL 8
REMARK VINA RESULT:      -7.9     13.535     16.156
REMARK  Name = 5756
REMARK  3 active torsions:
REMARK  status: ('A' for Active; 'I' for Inactive)
REMARK    1  A    between atoms: C_5  and  O_19
REMARK    2  A    between atoms: C_8  and  O_21
REMARK    3  A    between atoms: C_18  and  O_23
REMARK                            x       y       z     vdW  Elec       q    Type
REMARK                         _______ _______ _______ _____ _____    ______ ____
ROOT
ATOM      1  C   UNL     1      32.553  -7.925 -22.763  0.00  0.00    +0.027 C 
ATOM      2  C   UNL     1      32.762  -9.193 -21.909  0.00  0.00    +0.005 C 
ATOM      3  C   UNL     1      32.523 -10.475 -22.708  0.00  0.00    +0.005 C 
ATOM      4  C   UNL     1      33.546 -10.530 -23.883  0.00  0.00    +0.022 C 
ATOM      5  C   UNL     1      32.804  -6.859 -21.678  0.00  0.00    +0.137 C 
ATOM      6  C   UNL     1      33.584  -7.942 -23.898  0.00  0.00    +0.003 C 
ATOM      7  C   UNL     1      31.928  -8.926 -20.656  0.00  0.00    +0.032 C 
ATOM      8  C   UNL     1      32.059  -7.405 -20.441  0.00  0.00    +0.137 C 
ATOM      9  C   UNL     1      33.495  -9.233 -24.735  0.00  0.00    +0.004 C 
ATOM     10  C   UNL     1      32.677 -11.736 -21.855  0.00  0.00    +0.005 C 
ATOM     11  C   UNL     1      31.132  -7.769 -23.360  0.00  0.00    +0.002 C 
ATOM     12  C   UNL     1      33.411 -11.829 -24.673  0.00  0.00    -0.026 C 
ATOM     13  C   UNL     1      32.287 -12.964 -22.673  0.00  0.00    +0.026 C 
ATOM     14  C   UNL     1      32.853 -12.979 -24.071  0.00  0.00    -0.023 C 
ATOM     15  C   UNL     1      33.914 -11.941 -25.982  0.00  0.00    -0.001 C 
ATOM     16  C   UNL     1      32.767 -14.178 -24.800  0.00  0.00    +0.032 C 
ATOM     17  C   UNL     1      33.830 -13.141 -26.690  0.00  0.00    +0.036 C 
ATOM     18  C   UNL     1      33.252 -14.259 -26.102  0.00  0.00    +0.133 C 
ENDROOT
BRANCH   5  19
ATOM     19  O   UNL     1      32.317  -5.575 -22.026  0.00  0.00    -0.382 OA
ATOM     20  H   UNL     1      32.737  -5.282 -22.850  0.00  0.00    +0.210 HD
ENDBRANCH   5  19
BRANCH   8  21
ATOM     21  O   UNL     1      32.826  -7.125 -19.277  0.00  0.00    -0.382 OA
ATOM     22  H   UNL     1      33.693  -7.553 -19.351  0.00  0.00    +0.210 HD
ENDBRANCH   8  21
BRANCH  18  23
ATOM     23  O   UNL     1      33.166 -15.427 -26.792  0.00  0.00    -0.506 OA
ATOM     24  H   UNL     1      33.390 -16.236 -26.375  0.00  0.00    +0.292 HD
ENDBRANCH  18  23
TORSDOF 3
ENDMDL
MODEL 9
REMARK VINA RESULT:      -7.9      5.436     10.458
REMARK  Name = 5756
REMARK  3 active torsions:
REMARK  status: ('A' for Active; 'I' for Inactive)
REMARK    1  A    between atoms: C_5  and  O_19
REMARK    2  A    between atoms: C_8  and  O_21
REMARK    3  A    between atoms: C_18  and  O_23
REMARK                            x       y       z     vdW  Elec       q    Type
REMARK                         _______ _______ _______ _____ _____    ______ ____
ROOT
ATOM      1  C   UNL     1      32.809 -15.032 -21.559  0.00  0.00    +0.027 C 
ATOM      2  C   UNL     1      33.832 -15.772 -22.446  0.00  0.00    +0.005 C 
ATOM      3  C   UNL     1      34.443 -16.982 -21.740  0.00  0.00    +0.005 C 
ATOM      4  C   UNL     1      33.304 -17.991 -21.400  0.00  0.00    +0.022 C 
ATOM      5  C   UNL     1      32.448 -13.879 -22.516  0.00  0.00    +0.137 C 
ATOM      6  C   UNL     1      31.658 -15.998 -21.254  0.00  0.00    +0.003 C 
ATOM      7  C   UNL     1      34.750 -14.656 -22.947  0.00  0.00    +0.032 C 
ATOM      8  C   UNL     1      33.808 -13.445 -23.106  0.00  0.00    +0.137 C 
ATOM      9  C   UNL     1      32.161 -17.303 -20.606  0.00  0.00    +0.004 C 
ATOM     10  C   UNL     1      35.496 -17.691 -22.593  0.00  0.00    +0.005 C 
ATOM     11  C   UNL     1      33.381 -14.477 -20.230  0.00  0.00    +0.002 C 
ATOM     12  C   UNL     1      33.862 -19.260 -20.763  0.00  0.00    -0.026 C 
ATOM     13  C   UNL     1      36.165 -18.795 -21.778  0.00  0.00    +0.026 C 
ATOM     14  C   UNL     1      35.202 -19.646 -20.988  0.00  0.00    -0.023 C 
ATOM     15  C   UNL     1      33.040 -20.120 -20.012  0.00  0.00    -0.001 C 
ATOM     16  C   UNL     1      35.693 -20.837 -20.423  0.00  0.00    +0.032 C 
ATOM     17  C   UNL     1      33.538 -21.305 -19.465  0.00  0.00    +0.036 C 
ATOM     18  C   UNL     1      34.865 -21.661 -19.665  0.00  0.00    +0.133 C 
ENDROOT
BRANCH   5  19
ATOM     19  O   UNL     1      31.814 -12.788 -21.871  0.00  0.00    -0.382 OA
ATOM     20  H   UNL     1      31.464 -12.178 -22.538  0.00  0.00    +0.210 HD
ENDBRANCH   5  19
BRANCH   8  21
ATOM     21  O   UNL     1      33.635 -13.118 -24.479  0.00  0.00    -0.382 OA
ATOM     22  H   UNL     1      34.470 -13.257 -24.951  0.00  0.00    +0.210 HD
ENDBRANCH   8  21
BRANCH  18  23
ATOM     23  O   UNL     1      35.353 -22.811 -19.129  0.00  0.00    -0.506 OA
ATOM     24  H   UNL     1      35.924 -23.357 -19.632  0.00  0.00    +0.292 HD
ENDBRANCH  18  23
TORSDOF 3
ENDMDL
