MODEL 1
REMARK VINA RESULT:      -9.3      0.000      0.000
REMARK  Name = 25138289
REMARK  12 active torsions:
REMARK  status: ('A' for Active; 'I' for Inactive)
REMARK    1  A    between atoms: P_1  and  O_3
REMARK    2  A    between atoms: P_1  and  C_5
REMARK    3  A    between atoms: P_1  and  C_18
REMARK    4  A    between atoms: C_5  and  N_6
REMARK    5  A    between atoms: C_5  and  C_10
REMARK    6  A    between atoms: C_10  and  C_11
REMARK    7  A    between atoms: C_11  and  C_12
REMARK    8  A    between atoms: C_18  and  C_19
REMARK    9  A    between atoms: C_19  and  C_21
REMARK   10  A    between atoms: C_19  and  C_24
REMARK   11  A    between atoms: C_21  and  O_22
REMARK   12  A    between atoms: C_24  and  C_25
REMARK                            x       y       z     vdW  Elec       q    Type
REMARK                         _______ _______ _______ _____ _____    ______ ____
ROOT
ATOM      1  P   UNL     1      34.141 -15.487 -21.610  0.00  0.00    +0.201 P 
ATOM      2  O   UNL     1      32.656 -15.588 -21.411  0.00  0.00    -0.292 OA
ENDROOT
BRANCH   1   3
ATOM      3  O   UNL     1      34.889 -14.639 -20.451  0.00  0.00    -0.344 OA
ATOM      4  H   UNL     1      35.849 -14.755 -20.533  0.00  0.00    +0.218 HD
ENDBRANCH   1   3
BRANCH   1   5
ATOM      5  C   UNL     1      35.028 -17.033 -21.634  0.00  0.00    +0.015 C 
BRANCH   5   6
ATOM      6  N   UNL     1      35.563 -17.036 -22.990  0.00  0.00    +0.388 N 
ATOM      7  H   UNL     1      35.011 -16.408 -23.574  0.00  0.00    -0.089 HD
ATOM      8  H   UNL     1      35.518 -17.982 -23.370  0.00  0.00    -0.089 HD
ATOM      9  H   UNL     1      36.533 -16.722 -22.973  0.00  0.00    -0.089 HD
ENDBRANCH   5   6
BRANCH   5  10
ATOM     10  C   UNL     1      34.229 -18.301 -21.327  0.00  0.00    -0.008 C 
BRANCH  10  11
ATOM     11  C   UNL     1      34.979 -19.615 -21.568  0.00  0.00    +0.025 C 
BRANCH  11  12
ATOM     12  C   UNL     1      34.781 -20.580 -20.425  0.00  0.00    -0.022 C 
ATOM     13  C   UNL     1      33.495 -20.969 -20.054  0.00  0.00    -0.004 C 
ATOM     14  C   UNL     1      35.887 -21.083 -19.739  0.00  0.00    -0.004 C 
ATOM     15  C   UNL     1      33.313 -21.860 -18.997  0.00  0.00    -0.000 C 
ATOM     16  C   UNL     1      35.706 -21.974 -18.682  0.00  0.00    -0.000 C 
ATOM     17  C   UNL     1      34.418 -22.363 -18.311  0.00  0.00    -0.000 C 
ENDBRANCH  11  12
ENDBRANCH  10  11
ENDBRANCH   5  10
ENDBRANCH   1   5
BRANCH   1  18
ATOM     18  C   UNL     1      34.603 -14.603 -23.087  0.00  0.00    +0.096 C 
BRANCH  18  19
ATOM     19  C   UNL     1      33.436 -14.102 -23.948  0.00  0.00    +0.113 C 
BRANCH  19  21
ATOM     20  O   UNL     1      33.889 -15.999 -25.419  0.00  0.00    -0.250 OA
ATOM     21  C   UNL     1      33.290 -14.954 -25.201  0.00  0.00    +0.314 C 
BRANCH  21  22
ATOM     22  O   UNL     1      32.403 -14.419 -26.082  0.00  0.00    -0.480 OA
ATOM     23  H   UNL     1      31.792 -13.769 -25.795  0.00  0.00    +0.295 HD
ENDBRANCH  21  22
ENDBRANCH  19  21
BRANCH  19  24
ATOM     24  C   UNL     1      33.559 -12.622 -24.351  0.00  0.00    +0.038 C 
BRANCH  24  25
ATOM     25  C   UNL     1      32.890 -11.673 -23.388  0.00  0.00    -0.022 C 
ATOM     26  C   UNL     1      33.117 -10.300 -23.489  0.00  0.00    -0.004 C 
ATOM     27  C   UNL     1      32.045 -12.168 -22.394  0.00  0.00    -0.004 C 
ATOM     28  C   UNL     1      32.499  -9.423 -22.598  0.00  0.00    -0.000 C 
ATOM     29  C   UNL     1      31.427 -11.291 -21.502  0.00  0.00    -0.000 C 
ATOM     30  C   UNL     1      31.654  -9.919 -21.604  0.00  0.00    -0.000 C 
ENDBRANCH  24  25
ENDBRANCH  19  24
ENDBRANCH  18  19
ENDBRANCH   1  18
TORSDOF 12
ENDMDL
MODEL 2
REMARK VINA RESULT:      -9.3      0.169      1.374
REMARK  Name = 25138289
REMARK  12 active torsions:
REMARK  status: ('A' for Active; 'I' for Inactive)
REMARK    1  A    between atoms: P_1  and  O_3
REMARK    2  A    between atoms: P_1  and  C_5
REMARK    3  A    between atoms: P_1  and  C_18
REMARK    4  A    between atoms: C_5  and  N_6
REMARK    5  A    between atoms: C_5  and  C_10
REMARK    6  A    between atoms: C_10  and  C_11
REMARK    7  A    between atoms: C_11  and  C_12
REMARK    8  A    between atoms: C_18  and  C_19
REMARK    9  A    between atoms: C_19  and  C_21
REMARK   10  A    between atoms: C_19  and  C_24
REMARK   11  A    between atoms: C_21  and  O_22
REMARK   12  A    between atoms: C_24  and  C_25
REMARK                            x       y       z     vdW  Elec       q    Type
REMARK                         _______ _______ _______ _____ _____    ______ ____
ROOT
ATOM      1  P   UNL     1      34.142 -15.565 -21.636  0.00  0.00    +0.201 P 
ATOM      2  O   UNL     1      32.653 -15.613 -21.441  0.00  0.00    -0.292 OA
ENDROOT
BRANCH   1   3
ATOM      3  O   UNL     1      34.909 -14.685 -20.513  0.00  0.00    -0.344 OA
ATOM      4  H   UNL     1      35.850 -14.922 -20.504  0.00  0.00    +0.218 HD
ENDBRANCH   1   3
BRANCH   1   5
ATOM      5  C   UNL     1      34.984 -17.135 -21.584  0.00  0.00    +0.015 C 
BRANCH   5   6
ATOM      6  N   UNL     1      35.516 -17.220 -22.937  0.00  0.00    +0.388 N 
ATOM      7  H   UNL     1      34.882 -16.749 -23.582  0.00  0.00    -0.089 HD
ATOM      8  H   UNL     1      35.606 -18.201 -23.205  0.00  0.00    -0.089 HD
ATOM      9  H   UNL     1      36.431 -16.773 -22.972  0.00  0.00    -0.089 HD
ENDBRANCH   5   6
BRANCH   5  10
ATOM     10  C   UNL     1      34.148 -18.362 -21.214  0.00  0.00    -0.008 C 
BRANCH  10  11
ATOM     11  C   UNL     1      34.788 -19.711 -21.561  0.00  0.00    +0.025 C 
BRANCH  11  12
ATOM     12  C   UNL     1      34.761 -20.653 -20.382  0.00  0.00    -0.022 C 
ATOM     13  C   UNL     1      35.947 -20.985 -19.728  0.00  0.00    -0.004 C 
ATOM     14  C   UNL     1      33.550 -21.192 -19.948  0.00  0.00    -0.004 C 
ATOM     15  C   UNL     1      35.921 -21.856 -18.639  0.00  0.00    -0.000 C 
ATOM     16  C   UNL     1      33.524 -22.063 -18.860  0.00  0.00    -0.000 C 
ATOM     17  C   UNL     1      34.710 -22.395 -18.205  0.00  0.00    -0.000 C 
ENDBRANCH  11  12
ENDBRANCH  10  11
ENDBRANCH   5  10
ENDBRANCH   1   5
BRANCH   1  18
ATOM     18  C   UNL     1      34.635 -14.763 -23.150  0.00  0.00    +0.096 C 
BRANCH  18  19
ATOM     19  C   UNL     1      33.491 -14.204 -24.004  0.00  0.00    +0.113 C 
BRANCH  19  21
ATOM     20  O   UNL     1      33.964 -16.024 -25.563  0.00  0.00    -0.250 OA
ATOM     21  C   UNL     1      33.324 -15.021 -25.278  0.00  0.00    +0.314 C 
BRANCH  21  22
ATOM     22  O   UNL     1      32.367 -14.504 -26.094  0.00  0.00    -0.480 OA
ATOM     23  H   UNL     1      31.783 -13.847 -25.773  0.00  0.00    +0.295 HD
ENDBRANCH  21  22
ENDBRANCH  19  21
BRANCH  19  24
ATOM     24  C   UNL     1      33.663 -12.719 -24.370  0.00  0.00    +0.038 C 
BRANCH  24  25
ATOM     25  C   UNL     1      32.947 -11.776 -23.436  0.00  0.00    -0.022 C 
ATOM     26  C   UNL     1      32.082 -12.278 -22.464  0.00  0.00    -0.004 C 
ATOM     27  C   UNL     1      33.151 -10.400 -23.544  0.00  0.00    -0.004 C 
ATOM     28  C   UNL     1      31.420 -11.405 -21.601  0.00  0.00    -0.000 C 
ATOM     29  C   UNL     1      32.489  -9.526 -22.681  0.00  0.00    -0.000 C 
ATOM     30  C   UNL     1      31.623 -10.029 -21.710  0.00  0.00    -0.000 C 
ENDBRANCH  24  25
ENDBRANCH  19  24
ENDBRANCH  18  19
ENDBRANCH   1  18
TORSDOF 12
ENDMDL
MODEL 3
REMARK VINA RESULT:      -9.0      8.052     12.024
REMARK  Name = 25138289
REMARK  12 active torsions:
REMARK  status: ('A' for Active; 'I' for Inactive)
REMARK    1  A    between atoms: P_1  and  O_3
REMARK    2  A    between atoms: P_1  and  C_5
REMARK    3  A    between atoms: P_1  and  C_18
REMARK    4  A    between atoms: C_5  and  N_6
REMARK    5  A    between atoms: C_5  and  C_10
REMARK    6  A    between atoms: C_10  and  C_11
REMARK    7  A    between atoms: C_11  and  C_12
REMARK    8  A    between atoms: C_18  and  C_19
REMARK    9  A    between atoms: C_19  and  C_21
REMARK   10  A    between atoms: C_19  and  C_24
REMARK   11  A    between atoms: C_21  and  O_22
REMARK   12  A    between atoms: C_24  and  C_25
REMARK                            x       y       z     vdW  Elec       q    Type
REMARK                         _______ _______ _______ _____ _____    ______ ____
ROOT
ATOM      1  P   UNL     1      37.043 -23.863 -15.201  0.00  0.00    +0.201 P 
ATOM      2  O   UNL     1      36.641 -25.288 -15.453  0.00  0.00    -0.292 OA
ENDROOT
BRANCH   1   3
ATOM      3  O   UNL     1      38.634 -23.675 -14.965  0.00  0.00    -0.344 OA
ATOM      4  H   UNL     1      39.066 -23.483 -15.811  0.00  0.00    +0.218 HD
ENDBRANCH   1   3
BRANCH   1   5
ATOM      5  C   UNL     1      36.677 -22.710 -16.511  0.00  0.00    +0.015 C 
BRANCH   5   6
ATOM      6  N   UNL     1      37.456 -21.550 -16.098  0.00  0.00    +0.388 N 
ATOM      7  H   UNL     1      38.251 -21.857 -15.539  0.00  0.00    -0.089 HD
ATOM      8  H   UNL     1      36.868 -20.929 -15.541  0.00  0.00    -0.089 HD
ATOM      9  H   UNL     1      37.790 -21.053 -16.924  0.00  0.00    -0.089 HD
ENDBRANCH   5   6
BRANCH   5  10
ATOM     10  C   UNL     1      35.205 -22.363 -16.744  0.00  0.00    -0.008 C 
BRANCH  10  11
ATOM     11  C   UNL     1      34.614 -22.890 -18.056  0.00  0.00    +0.025 C 
BRANCH  11  12
ATOM     12  C   UNL     1      34.474 -21.788 -19.078  0.00  0.00    -0.022 C 
ATOM     13  C   UNL     1      33.209 -21.325 -19.437  0.00  0.00    -0.004 C 
ATOM     14  C   UNL     1      35.612 -21.233 -19.665  0.00  0.00    -0.004 C 
ATOM     15  C   UNL     1      33.080 -20.308 -20.381  0.00  0.00    -0.000 C 
ATOM     16  C   UNL     1      35.484 -20.216 -20.610  0.00  0.00    -0.000 C 
ATOM     17  C   UNL     1      34.217 -19.753 -20.968  0.00  0.00    -0.000 C 
ENDBRANCH  11  12
ENDBRANCH  10  11
ENDBRANCH   5  10
ENDBRANCH   1   5
BRANCH   1  18
ATOM     18  C   UNL     1      36.353 -23.182 -13.705  0.00  0.00    +0.096 C 
BRANCH  18  19
ATOM     19  C   UNL     1      35.150 -23.939 -13.130  0.00  0.00    +0.113 C 
BRANCH  19  21
ATOM     20  O   UNL     1      35.298 -24.833 -10.861  0.00  0.00    -0.250 OA
ATOM     21  C   UNL     1      35.596 -24.910 -12.046  0.00  0.00    +0.314 C 
BRANCH  21  22
ATOM     22  O   UNL     1      36.388 -25.899 -12.540  0.00  0.00    -0.480 OA
ATOM     23  H   UNL     1      36.005 -26.621 -12.996  0.00  0.00    +0.295 HD
ENDBRANCH  21  22
ENDBRANCH  19  21
BRANCH  19  24
ATOM     24  C   UNL     1      34.335 -24.700 -14.190  0.00  0.00    +0.038 C 
BRANCH  24  25
ATOM     25  C   UNL     1      32.883 -24.296 -14.246  0.00  0.00    -0.022 C 
ATOM     26  C   UNL     1      31.911 -25.095 -13.643  0.00  0.00    -0.004 C 
ATOM     27  C   UNL     1      32.510 -23.122 -14.901  0.00  0.00    -0.004 C 
ATOM     28  C   UNL     1      30.569 -24.721 -13.696  0.00  0.00    -0.000 C 
ATOM     29  C   UNL     1      31.167 -22.747 -14.954  0.00  0.00    -0.000 C 
ATOM     30  C   UNL     1      30.197 -23.547 -14.351  0.00  0.00    -0.000 C 
ENDBRANCH  24  25
ENDBRANCH  19  24
ENDBRANCH  18  19
ENDBRANCH   1  18
TORSDOF 12
ENDMDL
MODEL 4
REMARK VINA RESULT:      -8.9      2.191      8.534
REMARK  Name = 25138289
REMARK  12 active torsions:
REMARK  status: ('A' for Active; 'I' for Inactive)
REMARK    1  A    between atoms: P_1  and  O_3
REMARK    2  A    between atoms: P_1  and  C_5
REMARK    3  A    between atoms: P_1  and  C_18
REMARK    4  A    between atoms: C_5  and  N_6
REMARK    5  A    between atoms: C_5  and  C_10
REMARK    6  A    between atoms: C_10  and  C_11
REMARK    7  A    between atoms: C_11  and  C_12
REMARK    8  A    between atoms: C_18  and  C_19
REMARK    9  A    between atoms: C_19  and  C_21
REMARK   10  A    between atoms: C_19  and  C_24
REMARK   11  A    between atoms: C_21  and  O_22
REMARK   12  A    between atoms: C_24  and  C_25
REMARK                            x       y       z     vdW  Elec       q    Type
REMARK                         _______ _______ _______ _____ _____    ______ ____
ROOT
ATOM      1  P   UNL     1      34.378 -15.776 -21.427  0.00  0.00    +0.201 P 
ATOM      2  O   UNL     1      35.262 -15.502 -22.610  0.00  0.00    -0.292 OA
ENDROOT
BRANCH   1   3
ATOM      3  O   UNL     1      35.192 -15.906 -20.032  0.00  0.00    -0.344 OA
ATOM      4  H   UNL     1      34.583 -16.172 -19.326  0.00  0.00    +0.218 HD
ENDBRANCH   1   3
BRANCH   1   5
ATOM      5  C   UNL     1      33.144 -14.538 -21.076  0.00  0.00    +0.015 C 
BRANCH   5   6
ATOM      6  N   UNL     1      32.203 -15.295 -20.261  0.00  0.00    +0.388 N 
ATOM      7  H   UNL     1      32.176 -14.904 -19.320  0.00  0.00    -0.089 HD
ATOM      8  H   UNL     1      32.501 -16.270 -20.216  0.00  0.00    -0.089 HD
ATOM      9  H   UNL     1      31.274 -15.244 -20.679  0.00  0.00    -0.089 HD
ENDBRANCH   5   6
BRANCH   5  10
ATOM     10  C   UNL     1      32.464 -13.873 -22.274  0.00  0.00    -0.008 C 
BRANCH  10  11
ATOM     11  C   UNL     1      33.298 -12.796 -22.977  0.00  0.00    +0.025 C 
BRANCH  11  12
ATOM     12  C   UNL     1      33.337 -13.017 -24.469  0.00  0.00    -0.022 C 
ATOM     13  C   UNL     1      33.751 -11.990 -25.317  0.00  0.00    -0.004 C 
ATOM     14  C   UNL     1      32.959 -14.250 -25.002  0.00  0.00    -0.004 C 
ATOM     15  C   UNL     1      33.786 -12.194 -26.695  0.00  0.00    -0.000 C 
ATOM     16  C   UNL     1      32.995 -14.455 -26.380  0.00  0.00    -0.000 C 
ATOM     17  C   UNL     1      33.408 -13.427 -27.227  0.00  0.00    -0.000 C 
ENDBRANCH  11  12
ENDBRANCH  10  11
ENDBRANCH   5  10
ENDBRANCH   1   5
BRANCH   1  18
ATOM     18  C   UNL     1      33.530 -17.341 -21.519  0.00  0.00    +0.096 C 
BRANCH  18  19
ATOM     19  C   UNL     1      34.433 -18.577 -21.611  0.00  0.00    +0.113 C 
BRANCH  19  21
ATOM     20  O   UNL     1      34.505 -19.085 -23.999  0.00  0.00    -0.250 OA
ATOM     21  C   UNL     1      35.067 -18.677 -22.991  0.00  0.00    +0.314 C 
BRANCH  21  22
ATOM     22  O   UNL     1      36.362 -18.261 -22.990  0.00  0.00    -0.480 OA
ATOM     23  H   UNL     1      36.892 -18.380 -23.752  0.00  0.00    +0.295 HD
ENDBRANCH  21  22
ENDBRANCH  19  21
BRANCH  19  24
ATOM     24  C   UNL     1      33.709 -19.895 -21.286  0.00  0.00    +0.038 C 
BRANCH  24  25
ATOM     25  C   UNL     1      34.385 -20.712 -20.213  0.00  0.00    -0.022 C 
ATOM     26  C   UNL     1      33.631 -21.561 -19.403  0.00  0.00    -0.004 C 
ATOM     27  C   UNL     1      35.764 -20.617 -20.030  0.00  0.00    -0.004 C 
ATOM     28  C   UNL     1      34.257 -22.315 -18.410  0.00  0.00    -0.000 C 
ATOM     29  C   UNL     1      36.391 -21.372 -19.037  0.00  0.00    -0.000 C 
ATOM     30  C   UNL     1      35.637 -22.221 -18.228  0.00  0.00    -0.000 C 
ENDBRANCH  24  25
ENDBRANCH  19  24
ENDBRANCH  18  19
ENDBRANCH   1  18
TORSDOF 12
ENDMDL
MODEL 5
REMARK VINA RESULT:      -8.9      1.720      2.607
REMARK  Name = 25138289
REMARK  12 active torsions:
REMARK  status: ('A' for Active; 'I' for Inactive)
REMARK    1  A    between atoms: P_1  and  O_3
REMARK    2  A    between atoms: P_1  and  C_5
REMARK    3  A    between atoms: P_1  and  C_18
REMARK    4  A    between atoms: C_5  and  N_6
REMARK    5  A    between atoms: C_5  and  C_10
REMARK    6  A    between atoms: C_10  and  C_11
REMARK    7  A    between atoms: C_11  and  C_12
REMARK    8  A    between atoms: C_18  and  C_19
REMARK    9  A    between atoms: C_19  and  C_21
REMARK   10  A    between atoms: C_19  and  C_24
REMARK   11  A    between atoms: C_21  and  O_22
REMARK   12  A    between atoms: C_24  and  C_25
REMARK                            x       y       z     vdW  Elec       q    Type
REMARK                         _______ _______ _______ _____ _____    ______ ____
ROOT
ATOM      1  P   UNL     1      34.162 -15.829 -21.830  0.00  0.00    +0.201 P 
ATOM      2  O   UNL     1      33.200 -16.585 -20.959  0.00  0.00    -0.292 OA
ENDROOT
BRANCH   1   3
ATOM      3  O   UNL     1      35.017 -14.712 -21.026  0.00  0.00    -0.344 OA
ATOM      4  H   UNL     1      35.951 -14.779 -21.276  0.00  0.00    +0.218 HD
ENDBRANCH   1   3
BRANCH   1   5
ATOM      5  C   UNL     1      35.412 -16.809 -22.639  0.00  0.00    +0.015 C 
BRANCH   5   6
ATOM      6  N   UNL     1      35.271 -16.371 -24.020  0.00  0.00    +0.388 N 
ATOM      7  H   UNL     1      34.411 -15.832 -24.120  0.00  0.00    -0.089 HD
ATOM      8  H   UNL     1      35.234 -17.186 -24.633  0.00  0.00    -0.089 HD
ATOM      9  H   UNL     1      36.069 -15.790 -24.276  0.00  0.00    -0.089 HD
ENDBRANCH   5   6
BRANCH   5  10
ATOM     10  C   UNL     1      35.303 -18.329 -22.501  0.00  0.00    -0.008 C 
BRANCH  10  11
ATOM     11  C   UNL     1      36.066 -18.929 -21.316  0.00  0.00    +0.025 C 
BRANCH  11  12
ATOM     12  C   UNL     1      35.244 -19.975 -20.604  0.00  0.00    -0.022 C 
ATOM     13  C   UNL     1      35.875 -20.994 -19.890  0.00  0.00    -0.004 C 
ATOM     14  C   UNL     1      33.850 -19.923 -20.660  0.00  0.00    -0.004 C 
ATOM     15  C   UNL     1      35.113 -21.959 -19.233  0.00  0.00    -0.000 C 
ATOM     16  C   UNL     1      33.089 -20.889 -20.003  0.00  0.00    -0.000 C 
ATOM     17  C   UNL     1      33.721 -21.908 -19.290  0.00  0.00    -0.000 C 
ENDBRANCH  11  12
ENDBRANCH  10  11
ENDBRANCH   5  10
ENDBRANCH   1   5
BRANCH   1  18
ATOM     18  C   UNL     1      33.365 -14.860 -23.096  0.00  0.00    +0.096 C 
BRANCH  18  19
ATOM     19  C   UNL     1      33.272 -13.355 -22.815  0.00  0.00    +0.113 C 
BRANCH  19  21
ATOM     20  O   UNL     1      32.440 -13.353 -20.518  0.00  0.00    -0.250 OA
ATOM     21  C   UNL     1      32.274 -13.079 -21.699  0.00  0.00    +0.314 C 
BRANCH  21  22
ATOM     22  O   UNL     1      31.143 -12.484 -22.163  0.00  0.00    -0.480 OA
ATOM     23  H   UNL     1      30.779 -11.750 -21.707  0.00  0.00    +0.295 HD
ENDBRANCH  21  22
ENDBRANCH  19  21
BRANCH  19  24
ATOM     24  C   UNL     1      32.899 -12.519 -24.051  0.00  0.00    +0.038 C 
BRANCH  24  25
ATOM     25  C   UNL     1      33.577 -11.172 -24.101  0.00  0.00    -0.022 C 
ATOM     26  C   UNL     1      34.674 -10.973 -24.939  0.00  0.00    -0.004 C 
ATOM     27  C   UNL     1      33.105 -10.125 -23.310  0.00  0.00    -0.004 C 
ATOM     28  C   UNL     1      35.300  -9.728 -24.984  0.00  0.00    -0.000 C 
ATOM     29  C   UNL     1      33.731  -8.878 -23.355  0.00  0.00    -0.000 C 
ATOM     30  C   UNL     1      34.829  -8.680 -24.192  0.00  0.00    -0.000 C 
ENDBRANCH  24  25
ENDBRANCH  19  24
ENDBRANCH  18  19
ENDBRANCH   1  18
TORSDOF 12
ENDMDL
MODEL 6
REMARK VINA RESULT:      -8.8      2.048      8.908
REMARK  Name = 25138289
REMARK  12 active torsions:
REMARK  status: ('A' for Active; 'I' for Inactive)
REMARK    1  A    between atoms: P_1  and  O_3
REMARK    2  A    between atoms: P_1  and  C_5
REMARK    3  A    between atoms: P_1  and  C_18
REMARK    4  A    between atoms: C_5  and  N_6
REMARK    5  A    between atoms: C_5  and  C_10
REMARK    6  A    between atoms: C_10  and  C_11
REMARK    7  A    between atoms: C_11  and  C_12
REMARK    8  A    between atoms: C_18  and  C_19
REMARK    9  A    between atoms: C_19  and  C_21
REMARK   10  A    between atoms: C_19  and  C_24
REMARK   11  A    between atoms: C_21  and  O_22
REMARK   12  A    between atoms: C_24  and  C_25
REMARK                            x       y       z     vdW  Elec       q    Type
REMARK                         _______ _______ _______ _____ _____    ______ ____
ROOT
ATOM      1  P   UNL     1      33.877 -15.548 -21.047  0.00  0.00    +0.201 P 
ATOM      2  O   UNL     1      34.865 -15.669 -19.922  0.00  0.00    -0.292 OA
ENDROOT
BRANCH   1   3
ATOM      3  O   UNL     1      32.364 -15.940 -20.619  0.00  0.00    -0.344 OA
ATOM      4  H   UNL     1      31.752 -15.256 -20.932  0.00  0.00    +0.218 HD
ENDBRANCH   1   3
BRANCH   1   5
ATOM      5  C   UNL     1      33.702 -13.922 -21.755  0.00  0.00    +0.015 C 
BRANCH   5   6
ATOM      6  N   UNL     1      32.294 -13.647 -21.498  0.00  0.00    +0.388 N 
ATOM      7  H   UNL     1      32.010 -14.108 -20.633  0.00  0.00    -0.089 HD
ATOM      8  H   UNL     1      31.733 -14.002 -22.272  0.00  0.00    -0.089 HD
ATOM      9  H   UNL     1      32.155 -12.641 -21.410  0.00  0.00    -0.089 HD
ENDBRANCH   5   6
BRANCH   5  10
ATOM     10  C   UNL     1      34.059 -13.763 -23.234  0.00  0.00    -0.008 C 
BRANCH  10  11
ATOM     11  C   UNL     1      33.113 -12.865 -24.037  0.00  0.00    +0.025 C 
BRANCH  11  12
ATOM     12  C   UNL     1      33.584 -11.431 -24.039  0.00  0.00    -0.022 C 
ATOM     13  C   UNL     1      34.664 -11.051 -24.834  0.00  0.00    -0.004 C 
ATOM     14  C   UNL     1      32.937 -10.485 -23.242  0.00  0.00    -0.004 C 
ATOM     15  C   UNL     1      35.098  -9.726 -24.834  0.00  0.00    -0.000 C 
ATOM     16  C   UNL     1      33.371  -9.160 -23.242  0.00  0.00    -0.000 C 
ATOM     17  C   UNL     1      34.452  -8.781 -24.038  0.00  0.00    -0.000 C 
ENDBRANCH  11  12
ENDBRANCH  10  11
ENDBRANCH   5  10
ENDBRANCH   1   5
BRANCH   1  18
ATOM     18  C   UNL     1      34.193 -16.669 -22.396  0.00  0.00    +0.096 C 
BRANCH  18  19
ATOM     19  C   UNL     1      34.746 -18.043 -21.997  0.00  0.00    +0.113 C 
BRANCH  19  21
ATOM     20  O   UNL     1      35.075 -19.313 -24.058  0.00  0.00    -0.250 OA
ATOM     21  C   UNL     1      35.545 -18.652 -23.141  0.00  0.00    +0.314 C 
BRANCH  21  22
ATOM     22  O   UNL     1      36.874 -18.385 -23.035  0.00  0.00    -0.480 OA
ATOM     23  H   UNL     1      37.296 -18.430 -22.199  0.00  0.00    +0.295 HD
ENDBRANCH  21  22
ENDBRANCH  19  21
BRANCH  19  24
ATOM     24  C   UNL     1      33.662 -19.037 -21.547  0.00  0.00    +0.038 C 
BRANCH  24  25
ATOM     25  C   UNL     1      34.167 -20.105 -20.610  0.00  0.00    -0.022 C 
ATOM     26  C   UNL     1      33.267 -20.957 -19.971  0.00  0.00    -0.004 C 
ATOM     27  C   UNL     1      35.537 -20.241 -20.381  0.00  0.00    -0.004 C 
ATOM     28  C   UNL     1      33.735 -21.944 -19.104  0.00  0.00    -0.000 C 
ATOM     29  C   UNL     1      36.006 -21.228 -19.514  0.00  0.00    -0.000 C 
ATOM     30  C   UNL     1      35.105 -22.080 -18.876  0.00  0.00    -0.000 C 
ENDBRANCH  24  25
ENDBRANCH  19  24
ENDBRANCH  18  19
ENDBRANCH   1  18
TORSDOF 12
ENDMDL
MODEL 7
REMARK VINA RESULT:      -8.8      1.978      3.243
REMARK  Name = 25138289
REMARK  12 active torsions:
REMARK  status: ('A' for Active; 'I' for Inactive)
REMARK    1  A    between atoms: P_1  and  O_3
REMARK    2  A    between atoms: P_1  and  C_5
REMARK    3  A    between atoms: P_1  and  C_18
REMARK    4  A    between atoms: C_5  and  N_6
REMARK    5  A    between atoms: C_5  and  C_10
REMARK    6  A    between atoms: C_10  and  C_11
REMARK    7  A    between atoms: C_11  and  C_12
REMARK    8  A    between atoms: C_18  and  C_19
REMARK    9  A    between atoms: C_19  and  C_21
REMARK   10  A    between atoms: C_19  and  C_24
REMARK   11  A    between atoms: C_21  and  O_22
REMARK   12  A    between atoms: C_24  and  C_25
REMARK                            x       y       z     vdW  Elec       q    Type
REMARK                         _______ _______ _______ _____ _____    ______ ____
ROOT
ATOM      1  P   UNL     1      33.626 -14.682 -22.671  0.00  0.00    +0.201 P 
ATOM      2  O   UNL     1      34.889 -13.894 -22.472  0.00  0.00    -0.292 OA
ENDROOT
BRANCH   1   3
ATOM      3  O   UNL     1      33.546 -15.417 -24.112  0.00  0.00    -0.344 OA
ATOM      4  H   UNL     1      34.348 -15.944 -24.251  0.00  0.00    +0.218 HD
ENDBRANCH   1   3
BRANCH   1   5
ATOM      5  C   UNL     1      33.345 -16.007 -21.511  0.00  0.00    +0.015 C 
BRANCH   5   6
ATOM      6  N   UNL     1      32.777 -15.283 -20.382  0.00  0.00    +0.388 N 
ATOM      7  H   UNL     1      33.490 -15.158 -19.663  0.00  0.00    -0.089 HD
ATOM      8  H   UNL     1      31.996 -15.815 -19.997  0.00  0.00    -0.089 HD
ATOM      9  H   UNL     1      32.445 -14.371 -20.695  0.00  0.00    -0.089 HD
ENDBRANCH   5   6
BRANCH   5  10
ATOM     10  C   UNL     1      34.558 -16.847 -21.106  0.00  0.00    -0.008 C 
BRANCH  10  11
ATOM     11  C   UNL     1      34.750 -18.137 -21.910  0.00  0.00    +0.025 C 
BRANCH  11  12
ATOM     12  C   UNL     1      34.540 -19.359 -21.049  0.00  0.00    -0.022 C 
ATOM     13  C   UNL     1      33.252 -19.729 -20.664  0.00  0.00    -0.004 C 
ATOM     14  C   UNL     1      35.636 -20.119 -20.638  0.00  0.00    -0.004 C 
ATOM     15  C   UNL     1      33.059 -20.857 -19.869  0.00  0.00    -0.000 C 
ATOM     16  C   UNL     1      35.443 -21.247 -19.842  0.00  0.00    -0.000 C 
ATOM     17  C   UNL     1      34.154 -21.616 -19.458  0.00  0.00    -0.000 C 
ENDBRANCH  11  12
ENDBRANCH  10  11
ENDBRANCH   5  10
ENDBRANCH   1   5
BRANCH   1  18
ATOM     18  C   UNL     1      32.154 -13.677 -22.674  0.00  0.00    +0.096 C 
BRANCH  18  19
ATOM     19  C   UNL     1      32.340 -12.232 -22.195  0.00  0.00    +0.113 C 
BRANCH  19  21
ATOM     20  O   UNL     1      31.914 -12.226 -19.790  0.00  0.00    -0.250 OA
ATOM     21  C   UNL     1      31.536 -11.979 -20.927  0.00  0.00    +0.314 C 
BRANCH  21  22
ATOM     22  O   UNL     1      30.317 -11.441 -21.195  0.00  0.00    -0.480 OA
ATOM     23  H   UNL     1      30.196 -10.513 -21.159  0.00  0.00    +0.295 HD
ENDBRANCH  21  22
ENDBRANCH  19  21
BRANCH  19  24
ATOM     24  C   UNL     1      31.967 -11.179 -23.253  0.00  0.00    +0.038 C 
BRANCH  24  25
ATOM     25  C   UNL     1      32.959 -10.048 -23.362  0.00  0.00    -0.022 C 
ATOM     26  C   UNL     1      34.082 -10.180 -24.178  0.00  0.00    -0.004 C 
ATOM     27  C   UNL     1      32.754  -8.869 -22.644  0.00  0.00    -0.004 C 
ATOM     28  C   UNL     1      34.999  -9.134 -24.277  0.00  0.00    -0.000 C 
ATOM     29  C   UNL     1      33.671  -7.822 -22.744  0.00  0.00    -0.000 C 
ATOM     30  C   UNL     1      34.794  -7.955 -23.560  0.00  0.00    -0.000 C 
ENDBRANCH  24  25
ENDBRANCH  19  24
ENDBRANCH  18  19
ENDBRANCH   1  18
TORSDOF 12
ENDMDL
MODEL 8
REMARK VINA RESULT:      -8.8      9.606     11.713
REMARK  Name = 25138289
REMARK  12 active torsions:
REMARK  status: ('A' for Active; 'I' for Inactive)
REMARK    1  A    between atoms: P_1  and  O_3
REMARK    2  A    between atoms: P_1  and  C_5
REMARK    3  A    between atoms: P_1  and  C_18
REMARK    4  A    between atoms: C_5  and  N_6
REMARK    5  A    between atoms: C_5  and  C_10
REMARK    6  A    between atoms: C_10  and  C_11
REMARK    7  A    between atoms: C_11  and  C_12
REMARK    8  A    between atoms: C_18  and  C_19
REMARK    9  A    between atoms: C_19  and  C_21
REMARK   10  A    between atoms: C_19  and  C_24
REMARK   11  A    between atoms: C_21  and  O_22
REMARK   12  A    between atoms: C_24  and  C_25
REMARK                            x       y       z     vdW  Elec       q    Type
REMARK                         _______ _______ _______ _____ _____    ______ ____
ROOT
ATOM      1  P   UNL     1      35.443 -24.318 -12.616  0.00  0.00    +0.201 P 
ATOM      2  O   UNL     1      35.199 -23.901 -11.194  0.00  0.00    -0.292 OA
ENDROOT
BRANCH   1   3
ATOM      3  O   UNL     1      36.257 -25.712 -12.747  0.00  0.00    -0.344 OA
ATOM      4  H   UNL     1      36.676 -25.922 -11.898  0.00  0.00    +0.218 HD
ENDBRANCH   1   3
BRANCH   1   5
ATOM      5  C   UNL     1      33.985 -24.591 -13.606  0.00  0.00    +0.015 C 
BRANCH   5   6
ATOM      6  N   UNL     1      34.516 -25.430 -14.672  0.00  0.00    +0.388 N 
ATOM      7  H   UNL     1      33.747 -25.881 -15.165  0.00  0.00    -0.089 HD
ATOM      8  H   UNL     1      35.127 -26.142 -14.271  0.00  0.00    -0.089 HD
ATOM      9  H   UNL     1      35.048 -24.854 -15.324  0.00  0.00    -0.089 HD
ENDBRANCH   5   6
BRANCH   5  10
ATOM     10  C   UNL     1      33.268 -23.353 -14.148  0.00  0.00    -0.008 C 
BRANCH  10  11
ATOM     11  C   UNL     1      31.885 -23.088 -13.545  0.00  0.00    +0.025 C 
BRANCH  11  12
ATOM     12  C   UNL     1      30.784 -23.501 -14.491  0.00  0.00    -0.022 C 
ATOM     13  C   UNL     1      30.545 -22.763 -15.650  0.00  0.00    -0.004 C 
ATOM     14  C   UNL     1      30.003 -24.622 -14.205  0.00  0.00    -0.004 C 
ATOM     15  C   UNL     1      29.528 -23.144 -16.523  0.00  0.00    -0.000 C 
ATOM     16  C   UNL     1      28.985 -25.003 -15.078  0.00  0.00    -0.000 C 
ATOM     17  C   UNL     1      28.747 -24.264 -16.237  0.00  0.00    -0.000 C 
ENDBRANCH  11  12
ENDBRANCH  10  11
ENDBRANCH   5  10
ENDBRANCH   1   5
BRANCH   1  18
ATOM     18  C   UNL     1      36.479 -23.186 -13.522  0.00  0.00    +0.096 C 
BRANCH  18  19
ATOM     19  C   UNL     1      36.776 -23.581 -14.974  0.00  0.00    +0.113 C 
BRANCH  19  21
ATOM     20  O   UNL     1      39.062 -24.393 -14.685  0.00  0.00    -0.250 OA
ATOM     21  C   UNL     1      37.906 -24.600 -15.031  0.00  0.00    +0.314 C 
BRANCH  21  22
ATOM     22  O   UNL     1      37.490 -25.796 -15.526  0.00  0.00    -0.480 OA
ATOM     23  H   UNL     1      37.456 -25.934 -16.451  0.00  0.00    +0.295 HD
ENDBRANCH  21  22
ENDBRANCH  19  21
BRANCH  19  24
ATOM     24  C   UNL     1      37.121 -22.386 -15.880  0.00  0.00    +0.038 C 
BRANCH  24  25
ATOM     25  C   UNL     1      36.211 -22.246 -17.074  0.00  0.00    -0.022 C 
ATOM     26  C   UNL     1      36.656 -21.583 -18.218  0.00  0.00    -0.004 C 
ATOM     27  C   UNL     1      34.923 -22.781 -17.036  0.00  0.00    -0.004 C 
ATOM     28  C   UNL     1      35.813 -21.453 -19.321  0.00  0.00    -0.000 C 
ATOM     29  C   UNL     1      34.080 -22.652 -18.140  0.00  0.00    -0.000 C 
ATOM     30  C   UNL     1      34.526 -21.988 -19.283  0.00  0.00    -0.000 C 
ENDBRANCH  24  25
ENDBRANCH  19  24
ENDBRANCH  18  19
ENDBRANCH   1  18
TORSDOF 12
ENDMDL
MODEL 9
REMARK VINA RESULT:      -8.7      1.284      2.065
REMARK  Name = 25138289
REMARK  12 active torsions:
REMARK  status: ('A' for Active; 'I' for Inactive)
REMARK    1  A    between atoms: P_1  and  O_3
REMARK    2  A    between atoms: P_1  and  C_5
REMARK    3  A    between atoms: P_1  and  C_18
REMARK    4  A    between atoms: C_5  and  N_6
REMARK    5  A    between atoms: C_5  and  C_10
REMARK    6  A    between atoms: C_10  and  C_11
REMARK    7  A    between atoms: C_11  and  C_12
REMARK    8  A    between atoms: C_18  and  C_19
REMARK    9  A    between atoms: C_19  and  C_21
REMARK   10  A    between atoms: C_19  and  C_24
REMARK   11  A    between atoms: C_21  and  O_22
REMARK   12  A    between atoms: C_24  and  C_25
REMARK                            x       y       z     vdW  Elec       q    Type
REMARK                         _______ _______ _______ _____ _____    ______ ____
ROOT
ATOM      1  P   UNL     1      33.995 -15.179 -21.955  0.00  0.00    +0.201 P 
ATOM      2  O   UNL     1      32.524 -15.269 -21.665  0.00  0.00    -0.292 OA
ENDROOT
BRANCH   1   3
ATOM      3  O   UNL     1      34.771 -14.108 -21.019  0.00  0.00    -0.344 OA
ATOM      4  H   UNL     1      35.628 -13.892 -21.418  0.00  0.00    +0.218 HD
ENDBRANCH   1   3
BRANCH   1   5
ATOM      5  C   UNL     1      34.926 -16.682 -21.727  0.00  0.00    +0.015 C 
BRANCH   5   6
ATOM      6  N   UNL     1      35.643 -16.770 -22.992  0.00  0.00    +0.388 N 
ATOM      7  H   UNL     1      36.632 -16.939 -22.811  0.00  0.00    -0.089 HD
ATOM      8  H   UNL     1      35.535 -15.894 -23.504  0.00  0.00    -0.089 HD
ATOM      9  H   UNL     1      35.262 -17.537 -23.546  0.00  0.00    -0.089 HD
ENDBRANCH   5   6
BRANCH   5  10
ATOM     10  C   UNL     1      34.132 -17.955 -21.425  0.00  0.00    -0.008 C 
BRANCH  10  11
ATOM     11  C   UNL     1      34.832 -19.263 -21.808  0.00  0.00    +0.025 C 
BRANCH  11  12
ATOM     12  C   UNL     1      34.734 -20.285 -20.702  0.00  0.00    -0.022 C 
ATOM     13  C   UNL     1      33.483 -20.700 -20.245  0.00  0.00    -0.004 C 
ATOM     14  C   UNL     1      35.894 -20.814 -20.137  0.00  0.00    -0.004 C 
ATOM     15  C   UNL     1      33.394 -21.644 -19.223  0.00  0.00    -0.000 C 
ATOM     16  C   UNL     1      35.805 -21.758 -19.115  0.00  0.00    -0.000 C 
ATOM     17  C   UNL     1      34.554 -22.173 -18.658  0.00  0.00    -0.000 C 
ENDBRANCH  11  12
ENDBRANCH  10  11
ENDBRANCH   5  10
ENDBRANCH   1   5
BRANCH   1  18
ATOM     18  C   UNL     1      34.363 -14.587 -23.596  0.00  0.00    +0.096 C 
BRANCH  18  19
ATOM     19  C   UNL     1      33.234 -14.744 -24.622  0.00  0.00    +0.113 C 
BRANCH  19  21
ATOM     20  O   UNL     1      33.448 -15.063 -27.035  0.00  0.00    -0.250 OA
ATOM     21  C   UNL     1      33.755 -15.393 -25.897  0.00  0.00    +0.314 C 
BRANCH  21  22
ATOM     22  O   UNL     1      34.618 -16.411 -25.636  0.00  0.00    -0.480 OA
ATOM     23  H   UNL     1      34.473 -17.256 -26.012  0.00  0.00    +0.295 HD
ENDBRANCH  21  22
ENDBRANCH  19  21
BRANCH  19  24
ATOM     24  C   UNL     1      32.532 -13.421 -24.974  0.00  0.00    +0.038 C 
BRANCH  24  25
ATOM     25  C   UNL     1      33.451 -12.225 -24.969  0.00  0.00    -0.022 C 
ATOM     26  C   UNL     1      33.506 -11.391 -23.853  0.00  0.00    -0.004 C 
ATOM     27  C   UNL     1      34.247 -11.954 -26.082  0.00  0.00    -0.004 C 
ATOM     28  C   UNL     1      34.356 -10.285 -23.850  0.00  0.00    -0.000 C 
ATOM     29  C   UNL     1      35.098 -10.847 -26.079  0.00  0.00    -0.000 C 
ATOM     30  C   UNL     1      35.152 -10.013 -24.963  0.00  0.00    -0.000 C 
ENDBRANCH  24  25
ENDBRANCH  19  24
ENDBRANCH  18  19
ENDBRANCH   1  18
TORSDOF 12
ENDMDL
