MODEL 1
REMARK VINA RESULT:      -8.5      0.000      0.000
REMARK  Name = 444238
REMARK  10 active torsions:
REMARK  status: ('A' for Active; 'I' for Inactive)
REMARK    1  A    between atoms: C_3  and  C_10
REMARK    2  A    between atoms: C_7  and  O_22
REMARK    3  A    between atoms: N_9  and  N_12
REMARK    4  A    between atoms: N_12  and  C_14
REMARK    5  A    between atoms: C_14  and  C_15
REMARK    6  A    between atoms: C_15  and  C_16
REMARK    7  A    between atoms: C_16  and  C_17
REMARK    8  A    between atoms: C_17  and  N_18
REMARK    9  A    between atoms: O_22  and  C_23
REMARK   10  A    between atoms: C_23  and  C_24
REMARK                            x       y       z     vdW  Elec       q    Type
REMARK                         _______ _______ _______ _____ _____    ______ ____
ROOT
ATOM      1  O   UNL     1      37.605 -21.431 -16.594  0.00  0.00    -0.226 OA
ATOM      2  N   UNL     1      36.231 -23.088 -15.745  0.00  0.00    -0.239 N 
ATOM      3  C   UNL     1      35.188 -24.077 -15.969  0.00  0.00    +0.156 C 
ATOM      4  C   UNL     1      35.400 -25.115 -14.873  0.00  0.00    +0.031 C 
ATOM      5  C   UNL     1      36.026 -24.308 -13.735  0.00  0.00    +0.024 C 
ATOM      6  C   UNL     1      36.894 -23.292 -14.461  0.00  0.00    +0.097 C 
ATOM      7  C   UNL     1      36.635 -22.177 -16.711  0.00  0.00    +0.406 C 
ENDROOT
BRANCH   3  10
ATOM      8  O   UNL     1      33.555 -22.811 -14.776  0.00  0.00    -0.272 OA
ATOM      9  N   UNL     1      33.121 -23.417 -16.982  0.00  0.00    -0.248 N 
ATOM     10  C   UNL     1      33.873 -23.371 -15.822  0.00  0.00    +0.254 C 
ATOM     11  H   UNL     1      33.457 -23.892 -17.776  0.00  0.00    +0.169 HD
BRANCH   9  12
ATOM     12  N   UNL     1      31.891 -22.783 -17.009  0.00  0.00    -0.230 NA
ATOM     13  H   UNL     1      31.664 -22.526 -17.970  0.00  0.00    +0.145 HD
BRANCH  12  14
ATOM     14  C   UNL     1      30.856 -23.667 -16.491  0.00  0.00    +0.087 C 
BRANCH  14  15
ATOM     15  C   UNL     1      30.078 -22.976 -15.371  0.00  0.00    +0.017 C 
BRANCH  15  16
ATOM     16  C   UNL     1      30.375 -23.621 -14.013  0.00  0.00    -0.022 C 
BRANCH  16  17
ATOM     17  C   UNL     1      30.834 -25.077 -14.115  0.00  0.00    -0.086 C 
BRANCH  17  18
ATOM     18  N   UNL     1      32.143 -25.290 -13.511  0.00  0.00    +0.380 N 
ATOM     19  H   UNL     1      32.131 -26.155 -12.970  0.00  0.00    -0.089 HD
ATOM     20  H   UNL     1      32.365 -24.507 -12.896  0.00  0.00    -0.089 HD
ATOM     21  H   UNL     1      32.849 -25.357 -14.244  0.00  0.00    -0.089 HD
ENDBRANCH  17  18
ENDBRANCH  16  17
ENDBRANCH  15  16
ENDBRANCH  14  15
ENDBRANCH  12  14
ENDBRANCH   9  12
ENDBRANCH   3  10
BRANCH   7  22
ATOM     22  O   UNL     1      35.824 -22.205 -17.813  0.00  0.00    -0.430 OA
BRANCH  22  23
ATOM     23  C   UNL     1      36.388 -21.679 -19.019  0.00  0.00    +0.237 C 
BRANCH  23  24
ATOM     24  C   UNL     1      35.322 -20.943 -19.777  0.00  0.00    +0.021 C 
ATOM     25  C   UNL     1      35.681 -19.939 -20.669  0.00  0.00    -0.001 C 
ATOM     26  C   UNL     1      33.985 -21.270 -19.579  0.00  0.00    -0.001 C 
ATOM     27  C   UNL     1      34.690 -19.255 -21.374  0.00  0.00    -0.000 C 
ATOM     28  C   UNL     1      32.994 -20.586 -20.283  0.00  0.00    -0.000 C 
ATOM     29  C   UNL     1      33.347 -19.578 -21.181  0.00  0.00    -0.000 C 
ENDBRANCH  23  24
ENDBRANCH  22  23
ENDBRANCH   7  22
TORSDOF 10
ENDMDL
MODEL 2
REMARK VINA RESULT:      -8.3      1.063      1.941
REMARK  Name = 444238
REMARK  10 active torsions:
REMARK  status: ('A' for Active; 'I' for Inactive)
REMARK    1  A    between atoms: C_3  and  C_10
REMARK    2  A    between atoms: C_7  and  O_22
REMARK    3  A    between atoms: N_9  and  N_12
REMARK    4  A    between atoms: N_12  and  C_14
REMARK    5  A    between atoms: C_14  and  C_15
REMARK    6  A    between atoms: C_15  and  C_16
REMARK    7  A    between atoms: C_16  and  C_17
REMARK    8  A    between atoms: C_17  and  N_18
REMARK    9  A    between atoms: O_22  and  C_23
REMARK   10  A    between atoms: C_23  and  C_24
REMARK                            x       y       z     vdW  Elec       q    Type
REMARK                         _______ _______ _______ _____ _____    ______ ____
ROOT
ATOM      1  O   UNL     1      37.522 -21.344 -16.490  0.00  0.00    -0.226 OA
ATOM      2  N   UNL     1      36.199 -23.001 -15.563  0.00  0.00    -0.239 N 
ATOM      3  C   UNL     1      35.224 -24.065 -15.748  0.00  0.00    +0.156 C 
ATOM      4  C   UNL     1      35.437 -24.991 -14.556  0.00  0.00    +0.031 C 
ATOM      5  C   UNL     1      35.958 -24.056 -13.466  0.00  0.00    +0.024 C 
ATOM      6  C   UNL     1      36.806 -23.056 -14.237  0.00  0.00    +0.097 C 
ATOM      7  C   UNL     1      36.602 -22.153 -16.585  0.00  0.00    +0.406 C 
ENDROOT
BRANCH   3  10
ATOM      8  O   UNL     1      33.248 -23.190 -16.758  0.00  0.00    -0.272 OA
ATOM      9  N   UNL     1      33.425 -23.184 -14.436  0.00  0.00    -0.248 N 
ATOM     10  C   UNL     1      33.868 -23.428 -15.724  0.00  0.00    +0.254 C 
ATOM     11  H   UNL     1      33.993 -23.407 -13.664  0.00  0.00    +0.169 HD
BRANCH   9  12
ATOM     12  N   UNL     1      32.174 -22.622 -14.252  0.00  0.00    -0.230 NA
ATOM     13  H   UNL     1      31.829 -22.267 -15.144  0.00  0.00    +0.145 HD
BRANCH  12  14
ATOM     14  C   UNL     1      31.243 -23.618 -13.738  0.00  0.00    +0.087 C 
BRANCH  14  15
ATOM     15  C   UNL     1      30.570 -24.361 -14.891  0.00  0.00    +0.017 C 
BRANCH  15  16
ATOM     16  C   UNL     1      29.185 -23.777 -15.189  0.00  0.00    -0.022 C 
BRANCH  16  17
ATOM     17  C   UNL     1      29.146 -22.906 -16.447  0.00  0.00    -0.086 C 
BRANCH  17  18
ATOM     18  N   UNL     1      30.479 -22.604 -16.954  0.00  0.00    +0.380 N 
ATOM     19  H   UNL     1      30.400 -22.049 -17.806  0.00  0.00    -0.089 HD
ATOM     20  H   UNL     1      30.969 -23.475 -17.159  0.00  0.00    -0.089 HD
ATOM     21  H   UNL     1      30.999 -22.078 -16.251  0.00  0.00    -0.089 HD
ENDBRANCH  17  18
ENDBRANCH  16  17
ENDBRANCH  15  16
ENDBRANCH  14  15
ENDBRANCH  12  14
ENDBRANCH   9  12
ENDBRANCH   3  10
BRANCH   7  22
ATOM     22  O   UNL     1      35.851 -22.322 -17.717  0.00  0.00    -0.430 OA
BRANCH  22  23
ATOM     23  C   UNL     1      36.397 -21.769 -18.919  0.00  0.00    +0.237 C 
BRANCH  23  24
ATOM     24  C   UNL     1      35.309 -21.056 -19.668  0.00  0.00    +0.021 C 
ATOM     25  C   UNL     1      33.981 -21.396 -19.440  0.00  0.00    -0.001 C 
ATOM     26  C   UNL     1      35.640 -20.064 -20.584  0.00  0.00    -0.001 C 
ATOM     27  C   UNL     1      32.970 -20.733 -20.137  0.00  0.00    -0.000 C 
ATOM     28  C   UNL     1      34.630 -19.401 -21.280  0.00  0.00    -0.000 C 
ATOM     29  C   UNL     1      33.294 -19.736 -21.056  0.00  0.00    -0.000 C 
ENDBRANCH  23  24
ENDBRANCH  22  23
ENDBRANCH   7  22
TORSDOF 10
ENDMDL
MODEL 3
REMARK VINA RESULT:      -8.3      2.026      3.041
REMARK  Name = 444238
REMARK  10 active torsions:
REMARK  status: ('A' for Active; 'I' for Inactive)
REMARK    1  A    between atoms: C_3  and  C_10
REMARK    2  A    between atoms: C_7  and  O_22
REMARK    3  A    between atoms: N_9  and  N_12
REMARK    4  A    between atoms: N_12  and  C_14
REMARK    5  A    between atoms: C_14  and  C_15
REMARK    6  A    between atoms: C_15  and  C_16
REMARK    7  A    between atoms: C_16  and  C_17
REMARK    8  A    between atoms: C_17  and  N_18
REMARK    9  A    between atoms: O_22  and  C_23
REMARK   10  A    between atoms: C_23  and  C_24
REMARK                            x       y       z     vdW  Elec       q    Type
REMARK                         _______ _______ _______ _____ _____    ______ ____
ROOT
ATOM      1  O   UNL     1      38.674 -23.161 -15.803  0.00  0.00    -0.226 OA
ATOM      2  N   UNL     1      37.717 -24.611 -14.275  0.00  0.00    -0.239 N 
ATOM      3  C   UNL     1      36.591 -25.449 -13.890  0.00  0.00    +0.156 C 
ATOM      4  C   UNL     1      37.194 -26.502 -12.968  0.00  0.00    +0.031 C 
ATOM      5  C   UNL     1      38.389 -25.785 -12.342  0.00  0.00    +0.024 C 
ATOM      6  C   UNL     1      38.898 -24.900 -13.469  0.00  0.00    +0.097 C 
ATOM      7  C   UNL     1      37.694 -23.767 -15.377  0.00  0.00    +0.406 C 
ENDROOT
BRANCH   3  10
ATOM      8  O   UNL     1      35.966 -23.827 -12.256  0.00  0.00    -0.272 OA
ATOM      9  N   UNL     1      34.331 -24.688 -13.673  0.00  0.00    -0.248 N 
ATOM     10  C   UNL     1      35.614 -24.570 -13.169  0.00  0.00    +0.254 C 
ATOM     11  H   UNL     1      34.140 -25.313 -14.409  0.00  0.00    +0.169 HD
BRANCH   9  12
ATOM     12  N   UNL     1      33.321 -23.915 -13.125  0.00  0.00    -0.230 NA
ATOM     13  H   UNL     1      33.642 -22.951 -13.042  0.00  0.00    +0.145 HD
BRANCH  12  14
ATOM     14  C   UNL     1      32.137 -23.957 -13.973  0.00  0.00    +0.087 C 
BRANCH  14  15
ATOM     15  C   UNL     1      32.231 -22.897 -15.070  0.00  0.00    +0.017 C 
BRANCH  15  16
ATOM     16  C   UNL     1      31.219 -23.169 -16.188  0.00  0.00    -0.022 C 
BRANCH  16  17
ATOM     17  C   UNL     1      29.773 -22.866 -15.791  0.00  0.00    -0.086 C 
BRANCH  17  18
ATOM     18  N   UNL     1      28.887 -22.780 -16.946  0.00  0.00    +0.380 N 
ATOM     19  H   UNL     1      29.386 -22.349 -17.724  0.00  0.00    -0.089 HD
ATOM     20  H   UNL     1      28.073 -22.213 -16.708  0.00  0.00    -0.089 HD
ATOM     21  H   UNL     1      28.584 -23.716 -17.212  0.00  0.00    -0.089 HD
ENDBRANCH  17  18
ENDBRANCH  16  17
ENDBRANCH  15  16
ENDBRANCH  14  15
ENDBRANCH  12  14
ENDBRANCH   9  12
ENDBRANCH   3  10
BRANCH   7  22
ATOM     22  O   UNL     1      36.448 -23.688 -15.937  0.00  0.00    -0.430 OA
BRANCH  22  23
ATOM     23  C   UNL     1      35.896 -22.373 -16.056  0.00  0.00    +0.237 C 
BRANCH  23  24
ATOM     24  C   UNL     1      35.663 -22.069 -17.508  0.00  0.00    +0.021 C 
ATOM     25  C   UNL     1      36.662 -21.449 -18.250  0.00  0.00    -0.001 C 
ATOM     26  C   UNL     1      34.451 -22.411 -18.096  0.00  0.00    -0.001 C 
ATOM     27  C   UNL     1      36.445 -21.167 -19.599  0.00  0.00    -0.000 C 
ATOM     28  C   UNL     1      34.234 -22.129 -19.445  0.00  0.00    -0.000 C 
ATOM     29  C   UNL     1      35.232 -21.507 -20.197  0.00  0.00    -0.000 C 
ENDBRANCH  23  24
ENDBRANCH  22  23
ENDBRANCH   7  22
TORSDOF 10
ENDMDL
MODEL 4
REMARK VINA RESULT:      -8.1      1.998      4.503
REMARK  Name = 444238
REMARK  10 active torsions:
REMARK  status: ('A' for Active; 'I' for Inactive)
REMARK    1  A    between atoms: C_3  and  C_10
REMARK    2  A    between atoms: C_7  and  O_22
REMARK    3  A    between atoms: N_9  and  N_12
REMARK    4  A    between atoms: N_12  and  C_14
REMARK    5  A    between atoms: C_14  and  C_15
REMARK    6  A    between atoms: C_15  and  C_16
REMARK    7  A    between atoms: C_16  and  C_17
REMARK    8  A    between atoms: C_17  and  N_18
REMARK    9  A    between atoms: O_22  and  C_23
REMARK   10  A    between atoms: C_23  and  C_24
REMARK                            x       y       z     vdW  Elec       q    Type
REMARK                         _______ _______ _______ _____ _____    ______ ____
ROOT
ATOM      1  O   UNL     1      31.617 -23.191 -17.724  0.00  0.00    -0.226 OA
ATOM      2  N   UNL     1      32.659 -23.587 -15.696  0.00  0.00    -0.239 N 
ATOM      3  C   UNL     1      33.771 -23.322 -14.795  0.00  0.00    +0.156 C 
ATOM      4  C   UNL     1      33.218 -23.622 -13.406  0.00  0.00    +0.031 C 
ATOM      5  C   UNL     1      32.149 -24.682 -13.669  0.00  0.00    +0.024 C 
ATOM      6  C   UNL     1      31.566 -24.267 -15.011  0.00  0.00    +0.097 C 
ATOM      7  C   UNL     1      32.603 -23.102 -16.995  0.00  0.00    +0.406 C 
ENDROOT
BRANCH   3  10
ATOM      8  O   UNL     1      34.691 -25.474 -15.258  0.00  0.00    -0.272 OA
ATOM      9  N   UNL     1      36.065 -23.601 -15.418  0.00  0.00    -0.248 N 
ATOM     10  C   UNL     1      34.876 -24.262 -15.171  0.00  0.00    +0.254 C 
ATOM     11  H   UNL     1      36.122 -22.624 -15.321  0.00  0.00    +0.169 HD
BRANCH   9  12
ATOM     12  N   UNL     1      37.173 -24.336 -15.805  0.00  0.00    -0.230 NA
ATOM     13  H   UNL     1      37.413 -24.104 -16.768  0.00  0.00    +0.145 HD
BRANCH  12  14
ATOM     14  C   UNL     1      38.306 -24.032 -14.941  0.00  0.00    +0.087 C 
BRANCH  14  15
ATOM     15  C   UNL     1      38.972 -25.323 -14.464  0.00  0.00    +0.017 C 
BRANCH  15  16
ATOM     16  C   UNL     1      38.657 -25.593 -12.989  0.00  0.00    -0.022 C 
BRANCH  16  17
ATOM     17  C   UNL     1      37.241 -26.120 -12.751  0.00  0.00    -0.086 C 
BRANCH  17  18
ATOM     18  N   UNL     1      36.799 -27.018 -13.811  0.00  0.00    +0.380 N 
ATOM     19  H   UNL     1      35.916 -27.452 -13.542  0.00  0.00    -0.089 HD
ATOM     20  H   UNL     1      37.502 -27.742 -13.959  0.00  0.00    -0.089 HD
ATOM     21  H   UNL     1      36.669 -26.489 -14.673  0.00  0.00    -0.089 HD
ENDBRANCH  17  18
ENDBRANCH  16  17
ENDBRANCH  15  16
ENDBRANCH  14  15
ENDBRANCH  12  14
ENDBRANCH   9  12
ENDBRANCH   3  10
BRANCH   7  22
ATOM     22  O   UNL     1      33.777 -22.510 -17.373  0.00  0.00    -0.430 OA
BRANCH  22  23
ATOM     23  C   UNL     1      34.257 -22.846 -18.679  0.00  0.00    +0.237 C 
BRANCH  23  24
ATOM     24  C   UNL     1      34.324 -21.599 -19.512  0.00  0.00    +0.021 C 
ATOM     25  C   UNL     1      35.562 -21.092 -19.894  0.00  0.00    -0.001 C 
ATOM     26  C   UNL     1      33.149 -20.963 -19.894  0.00  0.00    -0.001 C 
ATOM     27  C   UNL     1      35.624 -19.934 -20.668  0.00  0.00    -0.000 C 
ATOM     28  C   UNL     1      33.211 -19.804 -20.669  0.00  0.00    -0.000 C 
ATOM     29  C   UNL     1      34.449 -19.290 -21.056  0.00  0.00    -0.000 C 
ENDBRANCH  23  24
ENDBRANCH  22  23
ENDBRANCH   7  22
TORSDOF 10
ENDMDL
MODEL 5
REMARK VINA RESULT:      -8.1      7.520     11.124
REMARK  Name = 444238
REMARK  10 active torsions:
REMARK  status: ('A' for Active; 'I' for Inactive)
REMARK    1  A    between atoms: C_3  and  C_10
REMARK    2  A    between atoms: C_7  and  O_22
REMARK    3  A    between atoms: N_9  and  N_12
REMARK    4  A    between atoms: N_12  and  C_14
REMARK    5  A    between atoms: C_14  and  C_15
REMARK    6  A    between atoms: C_15  and  C_16
REMARK    7  A    between atoms: C_16  and  C_17
REMARK    8  A    between atoms: C_17  and  N_18
REMARK    9  A    between atoms: O_22  and  C_23
REMARK   10  A    between atoms: C_23  and  C_24
REMARK                            x       y       z     vdW  Elec       q    Type
REMARK                         _______ _______ _______ _____ _____    ______ ____
ROOT
ATOM      1  O   UNL     1      34.192 -17.869 -24.676  0.00  0.00    -0.226 OA
ATOM      2  N   UNL     1      33.896 -15.593 -24.380  0.00  0.00    -0.239 N 
ATOM      3  C   UNL     1      34.130 -14.401 -23.579  0.00  0.00    +0.156 C 
ATOM      4  C   UNL     1      34.035 -13.248 -24.571  0.00  0.00    +0.031 C 
ATOM      5  C   UNL     1      33.074 -13.773 -25.637  0.00  0.00    +0.024 C 
ATOM      6  C   UNL     1      33.411 -15.254 -25.713  0.00  0.00    +0.097 C 
ATOM      7  C   UNL     1      34.249 -16.869 -23.964  0.00  0.00    +0.406 C 
ENDROOT
BRANCH   3  10
ATOM      8  O   UNL     1      32.660 -15.348 -21.956  0.00  0.00    -0.272 OA
ATOM      9  N   UNL     1      32.576 -13.055 -22.351  0.00  0.00    -0.248 N 
ATOM     10  C   UNL     1      33.043 -14.342 -22.548  0.00  0.00    +0.254 C 
ATOM     11  H   UNL     1      32.943 -12.306 -22.875  0.00  0.00    +0.169 HD
BRANCH   9  12
ATOM     12  N   UNL     1      31.587 -12.837 -21.408  0.00  0.00    -0.230 NA
ATOM     13  H   UNL     1      31.924 -13.133 -20.492  0.00  0.00    +0.145 HD
BRANCH  12  14
ATOM     14  C   UNL     1      31.239 -11.423 -21.359  0.00  0.00    +0.087 C 
BRANCH  14  15
ATOM     15  C   UNL     1      30.911 -11.006 -19.925  0.00  0.00    +0.017 C 
BRANCH  15  16
ATOM     16  C   UNL     1      31.922  -9.978 -19.406  0.00  0.00    -0.022 C 
BRANCH  16  17
ATOM     17  C   UNL     1      32.182  -8.828 -20.382  0.00  0.00    -0.086 C 
BRANCH  17  18
ATOM     18  N   UNL     1      32.954  -7.750 -19.776  0.00  0.00    +0.380 N 
ATOM     19  H   UNL     1      32.379  -7.267 -19.086  0.00  0.00    -0.089 HD
ATOM     20  H   UNL     1      33.244  -7.092 -20.499  0.00  0.00    -0.089 HD
ATOM     21  H   UNL     1      33.779  -8.139 -19.318  0.00  0.00    -0.089 HD
ENDBRANCH  17  18
ENDBRANCH  16  17
ENDBRANCH  15  16
ENDBRANCH  14  15
ENDBRANCH  12  14
ENDBRANCH   9  12
ENDBRANCH   3  10
BRANCH   7  22
ATOM     22  O   UNL     1      34.670 -16.886 -22.661  0.00  0.00    -0.430 OA
BRANCH  22  23
ATOM     23  C   UNL     1      35.704 -17.825 -22.349  0.00  0.00    +0.237 C 
BRANCH  23  24
ATOM     24  C   UNL     1      35.136 -18.909 -21.480  0.00  0.00    +0.021 C 
ATOM     25  C   UNL     1      35.993 -19.787 -20.826  0.00  0.00    -0.001 C 
ATOM     26  C   UNL     1      33.758 -19.026 -21.338  0.00  0.00    -0.001 C 
ATOM     27  C   UNL     1      35.464 -20.794 -20.019  0.00  0.00    -0.000 C 
ATOM     28  C   UNL     1      33.229 -20.033 -20.531  0.00  0.00    -0.000 C 
ATOM     29  C   UNL     1      34.083 -20.918 -19.871  0.00  0.00    -0.000 C 
ENDBRANCH  23  24
ENDBRANCH  22  23
ENDBRANCH   7  22
TORSDOF 10
ENDMDL
MODEL 6
REMARK VINA RESULT:      -8.1      2.231      4.841
REMARK  Name = 444238
REMARK  10 active torsions:
REMARK  status: ('A' for Active; 'I' for Inactive)
REMARK    1  A    between atoms: C_3  and  C_10
REMARK    2  A    between atoms: C_7  and  O_22
REMARK    3  A    between atoms: N_9  and  N_12
REMARK    4  A    between atoms: N_12  and  C_14
REMARK    5  A    between atoms: C_14  and  C_15
REMARK    6  A    between atoms: C_15  and  C_16
REMARK    7  A    between atoms: C_16  and  C_17
REMARK    8  A    between atoms: C_17  and  N_18
REMARK    9  A    between atoms: O_22  and  C_23
REMARK   10  A    between atoms: C_23  and  C_24
REMARK                            x       y       z     vdW  Elec       q    Type
REMARK                         _______ _______ _______ _____ _____    ______ ____
ROOT
ATOM      1  O   UNL     1      32.093 -23.730 -15.987  0.00  0.00    -0.226 OA
ATOM      2  N   UNL     1      34.028 -23.646 -14.720  0.00  0.00    -0.239 N 
ATOM      3  C   UNL     1      35.376 -23.130 -14.540  0.00  0.00    +0.156 C 
ATOM      4  C   UNL     1      35.613 -23.194 -13.035  0.00  0.00    +0.031 C 
ATOM      5  C   UNL     1      34.735 -24.361 -12.586  0.00  0.00    +0.024 C 
ATOM      6  C   UNL     1      33.522 -24.258 -13.497  0.00  0.00    +0.097 C 
ATOM      7  C   UNL     1      33.278 -23.428 -15.868  0.00  0.00    +0.406 C 
ENDROOT
BRANCH   3  10
ATOM      8  O   UNL     1      37.205 -23.603 -15.997  0.00  0.00    -0.272 OA
ATOM      9  N   UNL     1      36.020 -25.376 -15.061  0.00  0.00    -0.248 N 
ATOM     10  C   UNL     1      36.300 -24.041 -15.290  0.00  0.00    +0.254 C 
ATOM     11  H   UNL     1      35.271 -25.635 -14.478  0.00  0.00    +0.169 HD
BRANCH   9  12
ATOM     12  N   UNL     1      36.808 -26.340 -15.665  0.00  0.00    -0.230 NA
ATOM     13  H   UNL     1      37.468 -25.888 -16.299  0.00  0.00    +0.145 HD
BRANCH  12  14
ATOM     14  C   UNL     1      37.545 -27.093 -14.659  0.00  0.00    +0.087 C 
BRANCH  14  15
ATOM     15  C   UNL     1      37.679 -26.275 -13.375  0.00  0.00    +0.017 C 
BRANCH  15  16
ATOM     16  C   UNL     1      39.029 -25.552 -13.320  0.00  0.00    -0.022 C 
BRANCH  16  17
ATOM     17  C   UNL     1      39.947 -25.879 -14.499  0.00  0.00    -0.086 C 
BRANCH  17  18
ATOM     18  N   UNL     1      39.847 -24.895 -15.570  0.00  0.00    +0.380 N 
ATOM     19  H   UNL     1      40.783 -24.627 -15.874  0.00  0.00    -0.089 HD
ATOM     20  H   UNL     1      39.351 -24.071 -15.229  0.00  0.00    -0.089 HD
ATOM     21  H   UNL     1      39.337 -25.298 -16.356  0.00  0.00    -0.089 HD
ENDBRANCH  17  18
ENDBRANCH  16  17
ENDBRANCH  15  16
ENDBRANCH  14  15
ENDBRANCH  12  14
ENDBRANCH   9  12
ENDBRANCH   3  10
BRANCH   7  22
ATOM     22  O   UNL     1      34.016 -22.835 -16.857  0.00  0.00    -0.430 OA
BRANCH  22  23
ATOM     23  C   UNL     1      33.514 -22.987 -18.189  0.00  0.00    +0.237 C 
BRANCH  23  24
ATOM     24  C   UNL     1      34.135 -21.941 -19.068  0.00  0.00    +0.021 C 
ATOM     25  C   UNL     1      33.320 -21.082 -19.797  0.00  0.00    -0.001 C 
ATOM     26  C   UNL     1      35.520 -21.841 -19.147  0.00  0.00    -0.001 C 
ATOM     27  C   UNL     1      33.898 -20.110 -20.614  0.00  0.00    -0.000 C 
ATOM     28  C   UNL     1      36.097 -20.869 -19.964  0.00  0.00    -0.000 C 
ATOM     29  C   UNL     1      35.286 -20.003 -20.698  0.00  0.00    -0.000 C 
ENDBRANCH  23  24
ENDBRANCH  22  23
ENDBRANCH   7  22
TORSDOF 10
ENDMDL
MODEL 7
REMARK VINA RESULT:      -8.0     10.964     14.682
REMARK  Name = 444238
REMARK  10 active torsions:
REMARK  status: ('A' for Active; 'I' for Inactive)
REMARK    1  A    between atoms: C_3  and  C_10
REMARK    2  A    between atoms: C_7  and  O_22
REMARK    3  A    between atoms: N_9  and  N_12
REMARK    4  A    between atoms: N_12  and  C_14
REMARK    5  A    between atoms: C_14  and  C_15
REMARK    6  A    between atoms: C_15  and  C_16
REMARK    7  A    between atoms: C_16  and  C_17
REMARK    8  A    between atoms: C_17  and  N_18
REMARK    9  A    between atoms: O_22  and  C_23
REMARK   10  A    between atoms: C_23  and  C_24
REMARK                            x       y       z     vdW  Elec       q    Type
REMARK                         _______ _______ _______ _____ _____    ______ ____
ROOT
ATOM      1  O   UNL     1      31.747  -9.278 -19.391  0.00  0.00    -0.226 OA
ATOM      2  N   UNL     1      32.042  -8.110 -21.366  0.00  0.00    -0.239 N 
ATOM      3  C   UNL     1      32.132  -8.123 -22.819  0.00  0.00    +0.156 C 
ATOM      4  C   UNL     1      31.728  -6.715 -23.240  0.00  0.00    +0.031 C 
ATOM      5  C   UNL     1      32.141  -5.853 -22.048  0.00  0.00    +0.024 C 
ATOM      6  C   UNL     1      31.872  -6.755 -20.853  0.00  0.00    +0.097 C 
ATOM      7  C   UNL     1      31.967  -9.265 -20.599  0.00  0.00    +0.406 C 
ENDROOT
BRANCH   3  10
ATOM      8  O   UNL     1      34.463  -7.625 -22.929  0.00  0.00    -0.272 OA
ATOM      9  N   UNL     1      33.707  -9.671 -23.744  0.00  0.00    -0.248 N 
ATOM     10  C   UNL     1      33.559  -8.422 -23.168  0.00  0.00    +0.254 C 
ATOM     11  H   UNL     1      32.922 -10.245 -23.900  0.00  0.00    +0.169 HD
BRANCH   9  12
ATOM     12  N   UNL     1      34.975 -10.101 -24.096  0.00  0.00    -0.230 NA
ATOM     13  H   UNL     1      35.311 -10.766 -23.400  0.00  0.00    +0.145 HD
BRANCH  12  14
ATOM     14  C   UNL     1      34.944 -10.747 -25.402  0.00  0.00    +0.087 C 
BRANCH  14  15
ATOM     15  C   UNL     1      33.874 -11.839 -25.430  0.00  0.00    +0.017 C 
BRANCH  15  16
ATOM     16  C   UNL     1      33.586 -12.292 -26.865  0.00  0.00    -0.022 C 
BRANCH  16  17
ATOM     17  C   UNL     1      33.465 -13.809 -27.016  0.00  0.00    -0.086 C 
BRANCH  17  18
ATOM     18  N   UNL     1      32.267 -14.337 -26.374  0.00  0.00    +0.380 N 
ATOM     19  H   UNL     1      31.517 -14.406 -27.061  0.00  0.00    -0.089 HD
ATOM     20  H   UNL     1      31.983 -13.712 -25.620  0.00  0.00    -0.089 HD
ATOM     21  H   UNL     1      32.465 -15.262 -25.993  0.00  0.00    -0.089 HD
ENDBRANCH  17  18
ENDBRANCH  16  17
ENDBRANCH  15  16
ENDBRANCH  14  15
ENDBRANCH  12  14
ENDBRANCH   9  12
ENDBRANCH   3  10
BRANCH   7  22
ATOM     22  O   UNL     1      32.165 -10.392 -21.350  0.00  0.00    -0.430 OA
BRANCH  22  23
ATOM     23  C   UNL     1      31.267 -11.478 -21.099  0.00  0.00    +0.237 C 
BRANCH  23  24
ATOM     24  C   UNL     1      31.991 -12.774 -21.323  0.00  0.00    +0.021 C 
ATOM     25  C   UNL     1      32.286 -13.181 -22.619  0.00  0.00    -0.001 C 
ATOM     26  C   UNL     1      32.358 -13.555 -20.234  0.00  0.00    -0.001 C 
ATOM     27  C   UNL     1      32.959 -14.385 -22.828  0.00  0.00    -0.000 C 
ATOM     28  C   UNL     1      33.031 -14.759 -20.442  0.00  0.00    -0.000 C 
ATOM     29  C   UNL     1      33.331 -15.175 -21.740  0.00  0.00    -0.000 C 
ENDBRANCH  23  24
ENDBRANCH  22  23
ENDBRANCH   7  22
TORSDOF 10
ENDMDL
MODEL 8
REMARK VINA RESULT:      -7.9      2.021      5.899
REMARK  Name = 444238
REMARK  10 active torsions:
REMARK  status: ('A' for Active; 'I' for Inactive)
REMARK    1  A    between atoms: C_3  and  C_10
REMARK    2  A    between atoms: C_7  and  O_22
REMARK    3  A    between atoms: N_9  and  N_12
REMARK    4  A    between atoms: N_12  and  C_14
REMARK    5  A    between atoms: C_14  and  C_15
REMARK    6  A    between atoms: C_15  and  C_16
REMARK    7  A    between atoms: C_16  and  C_17
REMARK    8  A    between atoms: C_17  and  N_18
REMARK    9  A    between atoms: O_22  and  C_23
REMARK   10  A    between atoms: C_23  and  C_24
REMARK                            x       y       z     vdW  Elec       q    Type
REMARK                         _______ _______ _______ _____ _____    ______ ____
ROOT
ATOM      1  O   UNL     1      34.923 -24.893 -12.042  0.00  0.00    -0.226 OA
ATOM      2  N   UNL     1      35.768 -23.826 -13.913  0.00  0.00    -0.239 N 
ATOM      3  C   UNL     1      35.565 -22.896 -15.014  0.00  0.00    +0.156 C 
ATOM      4  C   UNL     1      36.965 -22.402 -15.360  0.00  0.00    +0.031 C 
ATOM      5  C   UNL     1      37.865 -23.572 -14.964  0.00  0.00    +0.024 C 
ATOM      6  C   UNL     1      37.181 -24.139 -13.730  0.00  0.00    +0.097 C 
ATOM      7  C   UNL     1      34.749 -24.225 -13.058  0.00  0.00    +0.406 C 
ENDROOT
BRANCH   3  10
ATOM      8  O   UNL     1      34.945 -24.903 -16.146  0.00  0.00    -0.272 OA
ATOM      9  N   UNL     1      34.406 -22.852 -17.108  0.00  0.00    -0.248 N 
ATOM     10  C   UNL     1      34.954 -23.674 -16.140  0.00  0.00    +0.254 C 
ATOM     11  H   UNL     1      34.462 -21.873 -17.021  0.00  0.00    +0.169 HD
BRANCH   9  12
ATOM     12  N   UNL     1      33.779 -23.427 -18.200  0.00  0.00    -0.230 NA
ATOM     13  H   UNL     1      32.774 -23.461 -18.032  0.00  0.00    +0.145 HD
BRANCH  12  14
ATOM     14  C   UNL     1      34.040 -22.646 -19.402  0.00  0.00    +0.087 C 
BRANCH  14  15
ATOM     15  C   UNL     1      33.230 -21.350 -19.379  0.00  0.00    +0.017 C 
BRANCH  15  16
ATOM     16  C   UNL     1      33.740 -20.363 -20.436  0.00  0.00    -0.022 C 
BRANCH  16  17
ATOM     17  C   UNL     1      35.265 -20.323 -20.551  0.00  0.00    -0.086 C 
BRANCH  17  18
ATOM     18  N   UNL     1      35.776 -18.964 -20.678  0.00  0.00    +0.380 N 
ATOM     19  H   UNL     1      36.629 -18.869 -20.127  0.00  0.00    -0.089 HD
ATOM     20  H   UNL     1      35.076 -18.305 -20.337  0.00  0.00    -0.089 HD
ATOM     21  H   UNL     1      35.980 -18.768 -21.657  0.00  0.00    -0.089 HD
ENDBRANCH  17  18
ENDBRANCH  16  17
ENDBRANCH  15  16
ENDBRANCH  14  15
ENDBRANCH  12  14
ENDBRANCH   9  12
ENDBRANCH   3  10
BRANCH   7  22
ATOM     22  O   UNL     1      33.524 -23.786 -13.481  0.00  0.00    -0.430 OA
BRANCH  22  23
ATOM     23  C   UNL     1      32.485 -24.770 -13.522  0.00  0.00    +0.237 C 
BRANCH  23  24
ATOM     24  C   UNL     1      31.409 -24.307 -14.461  0.00  0.00    +0.021 C 
ATOM     25  C   UNL     1      30.258 -25.071 -14.618  0.00  0.00    -0.001 C 
ATOM     26  C   UNL     1      31.574 -23.120 -15.166  0.00  0.00    -0.001 C 
ATOM     27  C   UNL     1      29.259 -24.640 -15.490  0.00  0.00    -0.000 C 
ATOM     28  C   UNL     1      30.575 -22.690 -16.038  0.00  0.00    -0.000 C 
ATOM     29  C   UNL     1      29.416 -23.451 -16.201  0.00  0.00    -0.000 C 
ENDBRANCH  23  24
ENDBRANCH  22  23
ENDBRANCH   7  22
TORSDOF 10
ENDMDL
MODEL 9
REMARK VINA RESULT:      -7.9      2.180      5.676
REMARK  Name = 444238
REMARK  10 active torsions:
REMARK  status: ('A' for Active; 'I' for Inactive)
REMARK    1  A    between atoms: C_3  and  C_10
REMARK    2  A    between atoms: C_7  and  O_22
REMARK    3  A    between atoms: N_9  and  N_12
REMARK    4  A    between atoms: N_12  and  C_14
REMARK    5  A    between atoms: C_14  and  C_15
REMARK    6  A    between atoms: C_15  and  C_16
REMARK    7  A    between atoms: C_16  and  C_17
REMARK    8  A    between atoms: C_17  and  N_18
REMARK    9  A    between atoms: O_22  and  C_23
REMARK   10  A    between atoms: C_23  and  C_24
REMARK                            x       y       z     vdW  Elec       q    Type
REMARK                         _______ _______ _______ _____ _____    ______ ____
ROOT
ATOM      1  O   UNL     1      35.978 -27.063 -15.648  0.00  0.00    -0.226 OA
ATOM      2  N   UNL     1      37.309 -25.448 -14.661  0.00  0.00    -0.239 N 
ATOM      3  C   UNL     1      37.449 -24.095 -14.144  0.00  0.00    +0.156 C 
ATOM      4  C   UNL     1      38.579 -24.189 -13.125  0.00  0.00    +0.031 C 
ATOM      5  C   UNL     1      39.438 -25.338 -13.651  0.00  0.00    +0.024 C 
ATOM      6  C   UNL     1      38.418 -26.298 -14.242  0.00  0.00    +0.097 C 
ATOM      7  C   UNL     1      36.177 -25.893 -15.330  0.00  0.00    +0.406 C 
ENDROOT
BRANCH   3  10
ATOM      8  O   UNL     1      38.907 -23.301 -15.857  0.00  0.00    -0.272 OA
ATOM      9  N   UNL     1      36.786 -22.361 -15.656  0.00  0.00    -0.248 N 
ATOM     10  C   UNL     1      37.814 -23.217 -15.303  0.00  0.00    +0.254 C 
ATOM     11  H   UNL     1      35.941 -22.362 -15.152  0.00  0.00    +0.169 HD
BRANCH   9  12
ATOM     12  N   UNL     1      36.965 -21.505 -16.729  0.00  0.00    -0.230 NA
ATOM     13  H   UNL     1      37.947 -21.508 -17.003  0.00  0.00    +0.145 HD
BRANCH  12  14
ATOM     14  C   UNL     1      36.149 -21.933 -17.858  0.00  0.00    +0.087 C 
BRANCH  14  15
ATOM     15  C   UNL     1      36.576 -21.202 -19.130  0.00  0.00    +0.017 C 
BRANCH  15  16
ATOM     16  C   UNL     1      35.368 -20.890 -20.019  0.00  0.00    -0.022 C 
BRANCH  16  17
ATOM     17  C   UNL     1      34.081 -21.584 -19.569  0.00  0.00    -0.086 C 
BRANCH  17  18
ATOM     18  N   UNL     1      32.904 -20.745 -19.755  0.00  0.00    +0.380 N 
ATOM     19  H   UNL     1      33.140 -19.959 -20.361  0.00  0.00    -0.089 HD
ATOM     20  H   UNL     1      32.589 -20.395 -18.851  0.00  0.00    -0.089 HD
ATOM     21  H   UNL     1      32.160 -21.294 -20.186  0.00  0.00    -0.089 HD
ENDBRANCH  17  18
ENDBRANCH  16  17
ENDBRANCH  15  16
ENDBRANCH  14  15
ENDBRANCH  12  14
ENDBRANCH   9  12
ENDBRANCH   3  10
BRANCH   7  22
ATOM     22  O   UNL     1      35.304 -24.873 -15.594  0.00  0.00    -0.430 OA
BRANCH  22  23
ATOM     23  C   UNL     1      34.422 -24.511 -14.526  0.00  0.00    +0.237 C 
BRANCH  23  24
ATOM     24  C   UNL     1      33.140 -23.988 -15.105  0.00  0.00    +0.021 C 
ATOM     25  C   UNL     1      31.958 -24.110 -14.382  0.00  0.00    -0.001 C 
ATOM     26  C   UNL     1      33.144 -23.388 -16.359  0.00  0.00    -0.001 C 
ATOM     27  C   UNL     1      30.767 -23.625 -14.920  0.00  0.00    -0.000 C 
ATOM     28  C   UNL     1      31.953 -22.903 -16.897  0.00  0.00    -0.000 C 
ATOM     29  C   UNL     1      30.763 -23.022 -16.177  0.00  0.00    -0.000 C 
ENDBRANCH  23  24
ENDBRANCH  22  23
ENDBRANCH   7  22
TORSDOF 10
ENDMDL
