MODEL 1
REMARK VINA RESULT:      -6.4      0.000      0.000
REMARK  Name = 4538
REMARK  5 active torsions:
REMARK  status: ('A' for Active; 'I' for Inactive)
REMARK    1  A    between atoms: C_1  and  C_2
REMARK    2  A    between atoms: C_1  and  O_10
REMARK    3  A    between atoms: C_1  and  C_12
REMARK    4  A    between atoms: C_5  and  O_8
REMARK    5  A    between atoms: C_12  and  N_13
REMARK                            x       y       z     vdW  Elec       q    Type
REMARK                         _______ _______ _______ _____ _____    ______ ____
ROOT
ATOM      1  C   UNL     1      34.408 -18.692 -21.606  0.00  0.00    +0.111 C 
ENDROOT
BRANCH   1   2
ATOM      2  C   UNL     1      34.582 -19.872 -20.710  0.00  0.00    +0.005 C 
ATOM      3  C   UNL     1      33.465 -20.499 -20.159  0.00  0.00    +0.035 C 
ATOM      4  C   UNL     1      35.862 -20.347 -20.423  0.00  0.00    -0.002 C 
ATOM      5  C   UNL     1      33.627 -21.602 -19.320  0.00  0.00    +0.133 C 
ATOM      6  C   UNL     1      36.024 -21.450 -19.585  0.00  0.00    +0.003 C 
ATOM      7  C   UNL     1      34.907 -22.078 -19.034  0.00  0.00    +0.037 C 
BRANCH   5   8
ATOM      8  O   UNL     1      32.538 -22.214 -18.782  0.00  0.00    -0.506 OA
ATOM      9  H   UNL     1      31.716 -21.764 -18.749  0.00  0.00    +0.292 HD
ENDBRANCH   5   8
ENDBRANCH   1   2
BRANCH   1  10
ATOM     10  O   UNL     1      35.216 -17.612 -21.119  0.00  0.00    -0.382 OA
ATOM     11  H   UNL     1      36.131 -17.732 -21.419  0.00  0.00    +0.211 HD
ENDBRANCH   1  10
BRANCH   1  12
ATOM     12  C   UNL     1      34.795 -19.006 -23.065  0.00  0.00    -0.052 C 
BRANCH  12  13
ATOM     13  N   UNL     1      35.720 -18.009 -23.602  0.00  0.00    +0.382 N 
ATOM     14  H   UNL     1      36.650 -18.165 -23.216  0.00  0.00    -0.089 HD
ATOM     15  H   UNL     1      35.398 -17.076 -23.346  0.00  0.00    -0.089 HD
ATOM     16  H   UNL     1      35.755 -18.090 -24.617  0.00  0.00    -0.089 HD
ENDBRANCH  12  13
ENDBRANCH   1  12
TORSDOF 5
ENDMDL
MODEL 2
REMARK VINA RESULT:      -6.1      1.523      2.128
REMARK  Name = 4538
REMARK  5 active torsions:
REMARK  status: ('A' for Active; 'I' for Inactive)
REMARK    1  A    between atoms: C_1  and  C_2
REMARK    2  A    between atoms: C_1  and  O_10
REMARK    3  A    between atoms: C_1  and  C_12
REMARK    4  A    between atoms: C_5  and  O_8
REMARK    5  A    between atoms: C_12  and  N_13
REMARK                            x       y       z     vdW  Elec       q    Type
REMARK                         _______ _______ _______ _____ _____    ______ ____
ROOT
ATOM      1  C   UNL     1      34.525 -17.910 -21.842  0.00  0.00    +0.111 C 
ENDROOT
BRANCH   1   2
ATOM      2  C   UNL     1      34.453 -19.169 -21.047  0.00  0.00    +0.005 C 
ATOM      3  C   UNL     1      35.625 -19.803 -20.635  0.00  0.00    +0.035 C 
ATOM      4  C   UNL     1      33.212 -19.714 -20.715  0.00  0.00    -0.002 C 
ATOM      5  C   UNL     1      35.558 -20.981 -19.892  0.00  0.00    +0.133 C 
ATOM      6  C   UNL     1      33.145 -20.892 -19.970  0.00  0.00    +0.003 C 
ATOM      7  C   UNL     1      34.317 -21.526 -19.559  0.00  0.00    +0.037 C 
BRANCH   5   8
ATOM      8  O   UNL     1      36.702 -21.599 -19.491  0.00  0.00    -0.506 OA
ATOM      9  H   UNL     1      36.668 -22.263 -18.830  0.00  0.00    +0.292 HD
ENDBRANCH   5   8
ENDBRANCH   1   2
BRANCH   1  10
ATOM     10  O   UNL     1      35.084 -16.872 -21.026  0.00  0.00    -0.382 OA
ATOM     11  H   UNL     1      35.893 -17.197 -20.599  0.00  0.00    +0.211 HD
ENDBRANCH   1  10
BRANCH   1  12
ATOM     12  C   UNL     1      35.374 -18.074 -23.118  0.00  0.00    -0.052 C 
BRANCH  12  13
ATOM     13  N   UNL     1      35.560 -16.799 -23.807  0.00  0.00    +0.382 N 
ATOM     14  H   UNL     1      36.441 -16.378 -23.514  0.00  0.00    -0.089 HD
ATOM     15  H   UNL     1      34.790 -16.172 -23.573  0.00  0.00    -0.089 HD
ATOM     16  H   UNL     1      35.576 -16.956 -24.814  0.00  0.00    -0.089 HD
ENDBRANCH  12  13
ENDBRANCH   1  12
TORSDOF 5
ENDMDL
MODEL 3
REMARK VINA RESULT:      -6.0      2.725      5.095
REMARK  Name = 4538
REMARK  5 active torsions:
REMARK  status: ('A' for Active; 'I' for Inactive)
REMARK    1  A    between atoms: C_1  and  C_2
REMARK    2  A    between atoms: C_1  and  O_10
REMARK    3  A    between atoms: C_1  and  C_12
REMARK    4  A    between atoms: C_5  and  O_8
REMARK    5  A    between atoms: C_12  and  N_13
REMARK                            x       y       z     vdW  Elec       q    Type
REMARK                         _______ _______ _______ _____ _____    ______ ____
ROOT
ATOM      1  C   UNL     1      34.481 -19.818 -21.288  0.00  0.00    +0.111 C 
ENDROOT
BRANCH   1   2
ATOM      2  C   UNL     1      34.626 -18.592 -22.124  0.00  0.00    +0.005 C 
ATOM      3  C   UNL     1      34.599 -18.688 -23.515  0.00  0.00    +0.035 C 
ATOM      4  C   UNL     1      34.789 -17.348 -21.514  0.00  0.00    -0.002 C 
ATOM      5  C   UNL     1      34.735 -17.542 -24.297  0.00  0.00    +0.133 C 
ATOM      6  C   UNL     1      34.924 -16.200 -22.296  0.00  0.00    +0.003 C 
ATOM      7  C   UNL     1      34.897 -16.297 -23.687  0.00  0.00    +0.037 C 
BRANCH   5   8
ATOM      8  O   UNL     1      34.709 -17.636 -25.654  0.00  0.00    -0.506 OA
ATOM      9  H   UNL     1      33.921 -17.442 -26.122  0.00  0.00    +0.292 HD
ENDBRANCH   5   8
ENDBRANCH   1   2
BRANCH   1  10
ATOM     10  O   UNL     1      35.468 -19.795 -20.248  0.00  0.00    -0.382 OA
ATOM     11  H   UNL     1      35.423 -18.947 -19.778  0.00  0.00    +0.211 HD
ENDBRANCH   1  10
BRANCH   1  12
ATOM     12  C   UNL     1      33.078 -19.935 -20.662  0.00  0.00    -0.052 C 
BRANCH  12  13
ATOM     13  N   UNL     1      32.969 -21.111 -19.801  0.00  0.00    +0.382 N 
ATOM     14  H   UNL     1      33.099 -20.834 -18.828  0.00  0.00    -0.089 HD
ATOM     15  H   UNL     1      33.687 -21.788 -20.060  0.00  0.00    -0.089 HD
ATOM     16  H   UNL     1      32.048 -21.532 -19.914  0.00  0.00    -0.089 HD
ENDBRANCH  12  13
ENDBRANCH   1  12
TORSDOF 5
ENDMDL
MODEL 4
REMARK VINA RESULT:      -6.0      3.917      5.010
REMARK  Name = 4538
REMARK  5 active torsions:
REMARK  status: ('A' for Active; 'I' for Inactive)
REMARK    1  A    between atoms: C_1  and  C_2
REMARK    2  A    between atoms: C_1  and  O_10
REMARK    3  A    between atoms: C_1  and  C_12
REMARK    4  A    between atoms: C_5  and  O_8
REMARK    5  A    between atoms: C_12  and  N_13
REMARK                            x       y       z     vdW  Elec       q    Type
REMARK                         _______ _______ _______ _____ _____    ______ ____
ROOT
ATOM      1  C   UNL     1      34.349 -16.270 -25.107  0.00  0.00    +0.111 C 
ENDROOT
BRANCH   1   2
ATOM      2  C   UNL     1      34.693 -16.796 -23.755  0.00  0.00    +0.005 C 
ATOM      3  C   UNL     1      34.617 -15.960 -22.641  0.00  0.00    +0.035 C 
ATOM      4  C   UNL     1      35.093 -18.124 -23.604  0.00  0.00    -0.002 C 
ATOM      5  C   UNL     1      34.940 -16.452 -21.376  0.00  0.00    +0.133 C 
ATOM      6  C   UNL     1      35.415 -18.616 -22.339  0.00  0.00    +0.003 C 
ATOM      7  C   UNL     1      35.339 -17.780 -21.225  0.00  0.00    +0.037 C 
BRANCH   5   8
ATOM      8  O   UNL     1      34.866 -15.636 -20.289  0.00  0.00    -0.506 OA
ATOM      9  H   UNL     1      34.030 -15.361 -19.966  0.00  0.00    +0.292 HD
ENDBRANCH   5   8
ENDBRANCH   1   2
BRANCH   1  10
ATOM     10  O   UNL     1      33.720 -17.310 -25.867  0.00  0.00    -0.382 OA
ATOM     11  H   UNL     1      33.993 -17.242 -26.796  0.00  0.00    +0.211 HD
ENDBRANCH   1  10
BRANCH   1  12
ATOM     12  C   UNL     1      33.411 -15.048 -25.036  0.00  0.00    -0.052 C 
BRANCH  12  13
ATOM     13  N   UNL     1      32.625 -14.902 -26.259  0.00  0.00    +0.382 N 
ATOM     14  H   UNL     1      31.660 -15.178 -26.079  0.00  0.00    -0.089 HD
ATOM     15  H   UNL     1      33.019 -15.498 -26.988  0.00  0.00    -0.089 HD
ATOM     16  H   UNL     1      32.649 -13.930 -26.565  0.00  0.00    -0.089 HD
ENDBRANCH  12  13
ENDBRANCH   1  12
TORSDOF 5
ENDMDL
MODEL 5
REMARK VINA RESULT:      -5.9      2.749      5.258
REMARK  Name = 4538
REMARK  5 active torsions:
REMARK  status: ('A' for Active; 'I' for Inactive)
REMARK    1  A    between atoms: C_1  and  C_2
REMARK    2  A    between atoms: C_1  and  O_10
REMARK    3  A    between atoms: C_1  and  C_12
REMARK    4  A    between atoms: C_5  and  O_8
REMARK    5  A    between atoms: C_12  and  N_13
REMARK                            x       y       z     vdW  Elec       q    Type
REMARK                         _______ _______ _______ _____ _____    ______ ____
ROOT
ATOM      1  C   UNL     1      35.038 -19.525 -21.492  0.00  0.00    +0.111 C 
ENDROOT
BRANCH   1   2
ATOM      2  C   UNL     1      34.912 -18.585 -22.643  0.00  0.00    +0.005 C 
ATOM      3  C   UNL     1      34.993 -17.209 -22.433  0.00  0.00    +0.035 C 
ATOM      4  C   UNL     1      34.713 -19.084 -23.931  0.00  0.00    -0.002 C 
ATOM      5  C   UNL     1      34.875 -16.331 -23.510  0.00  0.00    +0.133 C 
ATOM      6  C   UNL     1      34.596 -18.205 -25.008  0.00  0.00    +0.003 C 
ATOM      7  C   UNL     1      34.677 -16.828 -24.798  0.00  0.00    +0.037 C 
BRANCH   5   8
ATOM      8  O   UNL     1      34.953 -14.988 -23.304  0.00  0.00    -0.506 OA
ATOM      9  H   UNL     1      35.760 -14.537 -23.460  0.00  0.00    +0.292 HD
ENDBRANCH   5   8
ENDBRANCH   1   2
BRANCH   1  10
ATOM     10  O   UNL     1      35.902 -18.944 -20.507  0.00  0.00    -0.382 OA
ATOM     11  H   UNL     1      36.518 -19.619 -20.179  0.00  0.00    +0.211 HD
ENDBRANCH   1  10
BRANCH   1  12
ATOM     12  C   UNL     1      33.673 -19.848 -20.852  0.00  0.00    -0.052 C 
BRANCH  12  13
ATOM     13  N   UNL     1      33.790 -20.891 -19.834  0.00  0.00    +0.382 N 
ATOM     14  H   UNL     1      34.409 -20.571 -19.090  0.00  0.00    -0.089 HD
ATOM     15  H   UNL     1      34.176 -21.735 -20.257  0.00  0.00    -0.089 HD
ATOM     16  H   UNL     1      32.869 -21.094 -19.448  0.00  0.00    -0.089 HD
ENDBRANCH  12  13
ENDBRANCH   1  12
TORSDOF 5
ENDMDL
MODEL 6
REMARK VINA RESULT:      -5.8      3.382      6.112
REMARK  Name = 4538
REMARK  5 active torsions:
REMARK  status: ('A' for Active; 'I' for Inactive)
REMARK    1  A    between atoms: C_1  and  C_2
REMARK    2  A    between atoms: C_1  and  O_10
REMARK    3  A    between atoms: C_1  and  C_12
REMARK    4  A    between atoms: C_5  and  O_8
REMARK    5  A    between atoms: C_12  and  N_13
REMARK                            x       y       z     vdW  Elec       q    Type
REMARK                         _______ _______ _______ _____ _____    ______ ____
ROOT
ATOM      1  C   UNL     1      35.453 -18.446 -23.123  0.00  0.00    +0.111 C 
ENDROOT
BRANCH   1   2
ATOM      2  C   UNL     1      34.853 -17.152 -23.559  0.00  0.00    +0.005 C 
ATOM      3  C   UNL     1      34.400 -16.999 -24.868  0.00  0.00    +0.035 C 
ATOM      4  C   UNL     1      34.746 -16.095 -22.655  0.00  0.00    -0.002 C 
ATOM      5  C   UNL     1      33.839 -15.788 -25.276  0.00  0.00    +0.133 C 
ATOM      6  C   UNL     1      34.184 -14.884 -23.062  0.00  0.00    +0.003 C 
ATOM      7  C   UNL     1      33.731 -14.731 -24.372  0.00  0.00    +0.037 C 
BRANCH   5   8
ATOM      8  O   UNL     1      33.397 -15.639 -26.554  0.00  0.00    -0.506 OA
ATOM      9  H   UNL     1      33.902 -15.144 -27.169  0.00  0.00    +0.292 HD
ENDBRANCH   5   8
ENDBRANCH   1   2
BRANCH   1  10
ATOM     10  O   UNL     1      36.801 -18.215 -22.691  0.00  0.00    -0.382 OA
ATOM     11  H   UNL     1      36.807 -17.527 -22.006  0.00  0.00    +0.211 HD
ENDBRANCH   1  10
BRANCH   1  12
ATOM     12  C   UNL     1      34.654 -19.105 -21.982  0.00  0.00    -0.052 C 
BRANCH  12  13
ATOM     13  N   UNL     1      35.428 -19.156 -20.743  0.00  0.00    +0.382 N 
ATOM     14  H   UNL     1      35.775 -18.224 -20.521  0.00  0.00    -0.089 HD
ATOM     15  H   UNL     1      36.215 -19.794 -20.862  0.00  0.00    -0.089 HD
ATOM     16  H   UNL     1      34.833 -19.488 -19.984  0.00  0.00    -0.089 HD
ENDBRANCH  12  13
ENDBRANCH   1  12
TORSDOF 5
ENDMDL
MODEL 7
REMARK VINA RESULT:      -5.8      7.387      8.358
REMARK  Name = 4538
REMARK  5 active torsions:
REMARK  status: ('A' for Active; 'I' for Inactive)
REMARK    1  A    between atoms: C_1  and  C_2
REMARK    2  A    between atoms: C_1  and  O_10
REMARK    3  A    between atoms: C_1  and  C_12
REMARK    4  A    between atoms: C_5  and  O_8
REMARK    5  A    between atoms: C_12  and  N_13
REMARK                            x       y       z     vdW  Elec       q    Type
REMARK                         _______ _______ _______ _____ _____    ______ ____
ROOT
ATOM      1  C   UNL     1      28.440 -23.162 -16.899  0.00  0.00    +0.111 C 
ENDROOT
BRANCH   1   2
ATOM      2  C   UNL     1      29.643 -23.405 -16.051  0.00  0.00    +0.005 C 
ATOM      3  C   UNL     1      29.516 -24.080 -14.838  0.00  0.00    +0.035 C 
ATOM      4  C   UNL     1      30.894 -22.955 -16.472  0.00  0.00    -0.002 C 
ATOM      5  C   UNL     1      30.640 -24.307 -14.044  0.00  0.00    +0.133 C 
ATOM      6  C   UNL     1      32.019 -23.183 -15.678  0.00  0.00    +0.003 C 
ATOM      7  C   UNL     1      31.892 -23.858 -14.465  0.00  0.00    +0.037 C 
BRANCH   5   8
ATOM      8  O   UNL     1      30.516 -24.966 -12.860  0.00  0.00    -0.506 OA
ATOM      9  H   UNL     1      30.326 -24.489 -12.076  0.00  0.00    +0.292 HD
ENDBRANCH   5   8
ENDBRANCH   1   2
BRANCH   1  10
ATOM     10  O   UNL     1      27.905 -24.422 -17.325  0.00  0.00    -0.382 OA
ATOM     11  H   UNL     1      27.610 -24.926 -16.550  0.00  0.00    +0.211 HD
ENDBRANCH   1  10
BRANCH   1  12
ATOM     12  C   UNL     1      27.351 -22.367 -16.152  0.00  0.00    -0.052 C 
BRANCH  12  13
ATOM     13  N   UNL     1      26.476 -21.653 -17.080  0.00  0.00    +0.382 N 
ATOM     14  H   UNL     1      26.433 -22.158 -17.965  0.00  0.00    -0.089 HD
ATOM     15  H   UNL     1      26.845 -20.715 -17.241  0.00  0.00    -0.089 HD
ATOM     16  H   UNL     1      25.540 -21.585 -16.682  0.00  0.00    -0.089 HD
ENDBRANCH  12  13
ENDBRANCH   1  12
TORSDOF 5
ENDMDL
MODEL 8
REMARK VINA RESULT:      -5.8      7.012      8.310
REMARK  Name = 4538
REMARK  5 active torsions:
REMARK  status: ('A' for Active; 'I' for Inactive)
REMARK    1  A    between atoms: C_1  and  C_2
REMARK    2  A    between atoms: C_1  and  O_10
REMARK    3  A    between atoms: C_1  and  C_12
REMARK    4  A    between atoms: C_5  and  O_8
REMARK    5  A    between atoms: C_12  and  N_13
REMARK                            x       y       z     vdW  Elec       q    Type
REMARK                         _______ _______ _______ _____ _____    ______ ____
ROOT
ATOM      1  C   UNL     1      32.744 -23.820 -13.984  0.00  0.00    +0.111 C 
ENDROOT
BRANCH   1   2
ATOM      2  C   UNL     1      31.392 -23.959 -14.599  0.00  0.00    +0.005 C 
ATOM      3  C   UNL     1      30.967 -23.047 -15.564  0.00  0.00    +0.035 C 
ATOM      4  C   UNL     1      30.553 -25.003 -14.208  0.00  0.00    -0.002 C 
ATOM      5  C   UNL     1      29.703 -23.177 -16.138  0.00  0.00    +0.133 C 
ATOM      6  C   UNL     1      29.289 -25.133 -14.783  0.00  0.00    +0.003 C 
ATOM      7  C   UNL     1      28.864 -24.221 -15.748  0.00  0.00    +0.037 C 
BRANCH   5   8
ATOM      8  O   UNL     1      29.288 -22.286 -17.080  0.00  0.00    -0.506 OA
ATOM      9  H   UNL     1      29.387 -21.366 -16.930  0.00  0.00    +0.292 HD
ENDBRANCH   5   8
ENDBRANCH   1   2
BRANCH   1  10
ATOM     10  O   UNL     1      32.975 -24.930 -13.107  0.00  0.00    -0.382 OA
ATOM     11  H   UNL     1      32.417 -25.677 -13.375  0.00  0.00    +0.211 HD
ENDBRANCH   1  10
BRANCH   1  12
ATOM     12  C   UNL     1      33.863 -23.760 -15.043  0.00  0.00    -0.052 C 
BRANCH  12  13
ATOM     13  N   UNL     1      34.776 -22.645 -14.798  0.00  0.00    +0.382 N 
ATOM     14  H   UNL     1      34.273 -21.890 -14.333  0.00  0.00    -0.089 HD
ATOM     15  H   UNL     1      35.149 -22.310 -15.686  0.00  0.00    -0.089 HD
ATOM     16  H   UNL     1      35.543 -22.958 -14.203  0.00  0.00    -0.089 HD
ENDBRANCH  12  13
ENDBRANCH   1  12
TORSDOF 5
ENDMDL
MODEL 9
REMARK VINA RESULT:      -5.7      4.677      5.721
REMARK  Name = 4538
REMARK  5 active torsions:
REMARK  status: ('A' for Active; 'I' for Inactive)
REMARK    1  A    between atoms: C_1  and  C_2
REMARK    2  A    between atoms: C_1  and  O_10
REMARK    3  A    between atoms: C_1  and  C_12
REMARK    4  A    between atoms: C_5  and  O_8
REMARK    5  A    between atoms: C_12  and  N_13
REMARK                            x       y       z     vdW  Elec       q    Type
REMARK                         _______ _______ _______ _____ _____    ______ ____
ROOT
ATOM      1  C   UNL     1      34.135 -14.337 -22.229  0.00  0.00    +0.111 C 
ENDROOT
BRANCH   1   2
ATOM      2  C   UNL     1      34.504 -15.702 -22.700  0.00  0.00    +0.005 C 
ATOM      3  C   UNL     1      34.400 -16.026 -24.052  0.00  0.00    +0.035 C 
ATOM      4  C   UNL     1      34.953 -16.657 -21.787  0.00  0.00    -0.002 C 
ATOM      5  C   UNL     1      34.745 -17.303 -24.493  0.00  0.00    +0.133 C 
ATOM      6  C   UNL     1      35.299 -17.935 -22.228  0.00  0.00    +0.003 C 
ATOM      7  C   UNL     1      35.195 -18.258 -23.581  0.00  0.00    +0.037 C 
BRANCH   5   8
ATOM      8  O   UNL     1      34.644 -17.619 -25.813  0.00  0.00    -0.506 OA
ATOM      9  H   UNL     1      34.059 -17.138 -26.366  0.00  0.00    +0.292 HD
ENDBRANCH   5   8
ENDBRANCH   1   2
BRANCH   1  10
ATOM     10  O   UNL     1      34.373 -13.397 -23.285  0.00  0.00    -0.382 OA
ATOM     11  H   UNL     1      33.547 -13.238 -23.769  0.00  0.00    +0.211 HD
ENDBRANCH   1  10
BRANCH   1  12
ATOM     12  C   UNL     1      32.659 -14.251 -21.788  0.00  0.00    -0.052 C 
BRANCH  12  13
ATOM     13  N   UNL     1      31.932 -13.232 -22.542  0.00  0.00    +0.382 N 
ATOM     14  H   UNL     1      32.234 -13.249 -23.516  0.00  0.00    -0.089 HD
ATOM     15  H   UNL     1      32.123 -12.313 -22.142  0.00  0.00    -0.089 HD
ATOM     16  H   UNL     1      30.932 -13.422 -22.493  0.00  0.00    -0.089 HD
ENDBRANCH  12  13
ENDBRANCH   1  12
TORSDOF 5
ENDMDL
