MODEL 1
REMARK VINA RESULT:      -6.7      0.000      0.000
REMARK  Name = 46937089
REMARK  7 active torsions:
REMARK  status: ('A' for Active; 'I' for Inactive)
REMARK    1  A    between atoms: N_2  and  C_10
REMARK    2  A    between atoms: C_3  and  O_5
REMARK    3  A    between atoms: O_5  and  C_6
REMARK    4  A    between atoms: C_10  and  C_12
REMARK    5  A    between atoms: C_10  and  C_14
REMARK    6  A    between atoms: C_14  and  C_16
REMARK    7  A    between atoms: C_16  and  O_17
REMARK                            x       y       z     vdW  Elec       q    Type
REMARK                         _______ _______ _______ _____ _____    ______ ____
ROOT
ATOM      1  O   UNL     1      34.347 -14.221 -23.850  0.00  0.00    -0.226 OA
ATOM      2  N   UNL     1      34.068 -16.369 -23.017  0.00  0.00    -0.265 N 
ATOM      3  C   UNL     1      33.739 -15.035 -23.163  0.00  0.00    +0.402 C 
ATOM      4  H   UNL     1      33.500 -16.925 -22.436  0.00  0.00    +0.153 HD
ENDROOT
BRANCH   3   5
ATOM      5  O   UNL     1      32.625 -14.750 -22.425  0.00  0.00    -0.442 OA
BRANCH   5   6
ATOM      6  C   UNL     1      32.844 -14.500 -21.033  0.00  0.00    +0.138 C 
ATOM      7  C   UNL     1      32.266 -13.128 -20.688  0.00  0.00    +0.044 C 
ATOM      8  C   UNL     1      32.129 -15.597 -20.248  0.00  0.00    +0.044 C 
ATOM      9  C   UNL     1      34.348 -14.539 -20.762  0.00  0.00    +0.044 C 
ENDBRANCH   5   6
ENDBRANCH   3   5
BRANCH   2  10
ATOM     10  C   UNL     1      35.194 -16.994 -23.665  0.00  0.00    +0.143 C 
BRANCH  10  12
ATOM     11  O   UNL     1      34.674 -16.794 -26.015  0.00  0.00    -0.294 OA
ATOM     12  C   UNL     1      34.712 -17.507 -25.013  0.00  0.00    +0.169 C 
ATOM     13  C   UNL     1      34.227 -18.933 -25.057  0.00  0.00    +0.074 C 
ENDBRANCH  10  12
BRANCH  10  14
ATOM     14  C   UNL     1      35.771 -18.137 -22.835  0.00  0.00    +0.137 C 
BRANCH  14  16
ATOM     15  O   UNL     1      35.556 -17.693 -20.449  0.00  0.00    -0.250 OA
ATOM     16  C   UNL     1      35.141 -18.240 -21.462  0.00  0.00    +0.319 C 
BRANCH  16  17
ATOM     17  O   UNL     1      34.038 -19.044 -21.542  0.00  0.00    -0.444 OA
ATOM     18  C   UNL     1      34.015 -20.150 -20.633  0.00  0.00    +0.256 C 
ENDBRANCH  16  17
ENDBRANCH  14  16
ENDBRANCH  10  14
ENDBRANCH   2  10
TORSDOF 7
ENDMDL
MODEL 2
REMARK VINA RESULT:      -6.6      1.879      4.993
REMARK  Name = 46937089
REMARK  7 active torsions:
REMARK  status: ('A' for Active; 'I' for Inactive)
REMARK    1  A    between atoms: N_2  and  C_10
REMARK    2  A    between atoms: C_3  and  O_5
REMARK    3  A    between atoms: O_5  and  C_6
REMARK    4  A    between atoms: C_10  and  C_12
REMARK    5  A    between atoms: C_10  and  C_14
REMARK    6  A    between atoms: C_14  and  C_16
REMARK    7  A    between atoms: C_16  and  O_17
REMARK                            x       y       z     vdW  Elec       q    Type
REMARK                         _______ _______ _______ _____ _____    ______ ____
ROOT
ATOM      1  O   UNL     1      33.326 -16.279 -21.115  0.00  0.00    -0.226 OA
ATOM      2  N   UNL     1      34.535 -16.289 -23.096  0.00  0.00    -0.265 N 
ATOM      3  C   UNL     1      34.278 -16.659 -21.790  0.00  0.00    +0.402 C 
ATOM      4  H   UNL     1      35.334 -16.663 -23.534  0.00  0.00    +0.153 HD
ENDROOT
BRANCH   3   5
ATOM      5  O   UNL     1      35.245 -17.519 -21.353  0.00  0.00    -0.442 OA
BRANCH   5   6
ATOM      6  C   UNL     1      34.971 -18.912 -21.535  0.00  0.00    +0.138 C 
ATOM      7  C   UNL     1      34.989 -19.219 -23.032  0.00  0.00    +0.044 C 
ATOM      8  C   UNL     1      36.065 -19.696 -20.813  0.00  0.00    +0.044 C 
ATOM      9  C   UNL     1      33.601 -19.222 -20.933  0.00  0.00    +0.044 C 
ENDBRANCH   5   6
ENDBRANCH   3   5
BRANCH   2  10
ATOM     10  C   UNL     1      33.704 -15.389 -23.854  0.00  0.00    +0.143 C 
BRANCH  10  12
ATOM     11  O   UNL     1      34.647 -16.615 -25.710  0.00  0.00    -0.294 OA
ATOM     12  C   UNL     1      33.835 -15.777 -25.319  0.00  0.00    +0.169 C 
ATOM     13  C   UNL     1      32.949 -15.043 -26.293  0.00  0.00    +0.074 C 
ENDBRANCH  10  12
BRANCH  10  14
ATOM     14  C   UNL     1      34.105 -13.931 -23.652  0.00  0.00    +0.137 C 
BRANCH  14  16
ATOM     15  O   UNL     1      32.102 -13.505 -22.332  0.00  0.00    -0.250 OA
ATOM     16  C   UNL     1      32.989 -13.091 -23.068  0.00  0.00    +0.319 C 
BRANCH  16  17
ATOM     17  O   UNL     1      33.135 -11.802 -23.499  0.00  0.00    -0.444 OA
ATOM     18  C   UNL     1      33.918 -11.635 -24.685  0.00  0.00    +0.256 C 
ENDBRANCH  16  17
ENDBRANCH  14  16
ENDBRANCH  10  14
ENDBRANCH   2  10
TORSDOF 7
ENDMDL
MODEL 3
REMARK VINA RESULT:      -6.6      2.017      5.291
REMARK  Name = 46937089
REMARK  7 active torsions:
REMARK  status: ('A' for Active; 'I' for Inactive)
REMARK    1  A    between atoms: N_2  and  C_10
REMARK    2  A    between atoms: C_3  and  O_5
REMARK    3  A    between atoms: O_5  and  C_6
REMARK    4  A    between atoms: C_10  and  C_12
REMARK    5  A    between atoms: C_10  and  C_14
REMARK    6  A    between atoms: C_14  and  C_16
REMARK    7  A    between atoms: C_16  and  O_17
REMARK                            x       y       z     vdW  Elec       q    Type
REMARK                         _______ _______ _______ _____ _____    ______ ____
ROOT
ATOM      1  O   UNL     1      35.680 -16.167 -22.925  0.00  0.00    -0.226 OA
ATOM      2  N   UNL     1      33.478 -15.437 -22.854  0.00  0.00    -0.265 N 
ATOM      3  C   UNL     1      34.530 -16.264 -22.510  0.00  0.00    +0.402 C 
ATOM      4  H   UNL     1      32.597 -15.616 -22.452  0.00  0.00    +0.153 HD
ENDROOT
BRANCH   3   5
ATOM      5  O   UNL     1      34.101 -17.218 -21.630  0.00  0.00    -0.442 OA
BRANCH   5   6
ATOM      6  C   UNL     1      34.618 -18.537 -21.836  0.00  0.00    +0.138 C 
ATOM      7  C   UNL     1      36.027 -18.604 -21.248  0.00  0.00    +0.044 C 
ATOM      8  C   UNL     1      33.689 -19.514 -21.119  0.00  0.00    +0.044 C 
ATOM      9  C   UNL     1      34.641 -18.821 -23.338  0.00  0.00    +0.044 C 
ENDBRANCH   5   6
ENDBRANCH   3   5
BRANCH   2  10
ATOM     10  C   UNL     1      33.595 -14.327 -23.765  0.00  0.00    +0.143 C 
BRANCH  10  12
ATOM     11  O   UNL     1      33.298 -11.950 -23.447  0.00  0.00    -0.294 OA
ATOM     12  C   UNL     1      33.079 -13.092 -23.042  0.00  0.00    +0.169 C 
ATOM     13  C   UNL     1      32.321 -13.328 -21.761  0.00  0.00    +0.074 C 
ENDBRANCH  10  12
BRANCH  10  14
ATOM     14  C   UNL     1      32.809 -14.557 -25.053  0.00  0.00    +0.137 C 
BRANCH  14  16
ATOM     15  O   UNL     1      34.141 -16.413 -25.900  0.00  0.00    -0.250 OA
ATOM     16  C   UNL     1      33.596 -15.334 -26.087  0.00  0.00    +0.319 C 
BRANCH  16  17
ATOM     17  O   UNL     1      33.596 -14.630 -27.259  0.00  0.00    -0.444 OA
ATOM     18  C   UNL     1      33.266 -13.242 -27.144  0.00  0.00    +0.256 C 
ENDBRANCH  16  17
ENDBRANCH  14  16
ENDBRANCH  10  14
ENDBRANCH   2  10
TORSDOF 7
ENDMDL
MODEL 4
REMARK VINA RESULT:      -6.6     10.064     11.761
REMARK  Name = 46937089
REMARK  7 active torsions:
REMARK  status: ('A' for Active; 'I' for Inactive)
REMARK    1  A    between atoms: N_2  and  C_10
REMARK    2  A    between atoms: C_3  and  O_5
REMARK    3  A    between atoms: O_5  and  C_6
REMARK    4  A    between atoms: C_10  and  C_12
REMARK    5  A    between atoms: C_10  and  C_14
REMARK    6  A    between atoms: C_14  and  C_16
REMARK    7  A    between atoms: C_16  and  O_17
REMARK                            x       y       z     vdW  Elec       q    Type
REMARK                         _______ _______ _______ _____ _____    ______ ____
ROOT
ATOM      1  O   UNL     1      33.380 -23.665 -12.735  0.00  0.00    -0.226 OA
ATOM      2  N   UNL     1      34.474 -24.777 -14.453  0.00  0.00    -0.265 N 
ATOM      3  C   UNL     1      33.384 -24.466 -13.664  0.00  0.00    +0.402 C 
ATOM      4  H   UNL     1      34.352 -25.438 -15.172  0.00  0.00    +0.153 HD
ENDROOT
BRANCH   3   5
ATOM      5  O   UNL     1      32.296 -25.185 -14.072  0.00  0.00    -0.442 OA
BRANCH   5   6
ATOM      6  C   UNL     1      31.204 -24.423 -14.596  0.00  0.00    +0.138 C 
ATOM      7  C   UNL     1      31.714 -23.584 -15.767  0.00  0.00    +0.044 C 
ATOM      8  C   UNL     1      30.137 -25.409 -15.067  0.00  0.00    +0.044 C 
ATOM      9  C   UNL     1      30.656 -23.529 -13.484  0.00  0.00    +0.044 C 
ENDBRANCH   5   6
ENDBRANCH   3   5
BRANCH   2  10
ATOM     10  C   UNL     1      35.780 -24.191 -14.285  0.00  0.00    +0.143 C 
BRANCH  10  12
ATOM     11  O   UNL     1      35.405 -23.541 -16.582  0.00  0.00    -0.294 OA
ATOM     12  C   UNL     1      36.150 -23.525 -15.602  0.00  0.00    +0.169 C 
ATOM     13  C   UNL     1      37.509 -22.878 -15.672  0.00  0.00    +0.074 C 
ENDBRANCH  10  12
BRANCH  10  14
ATOM     14  C   UNL     1      36.830 -25.230 -13.901  0.00  0.00    +0.137 C 
BRANCH  14  16
ATOM     15  O   UNL     1      36.087 -26.702 -15.694  0.00  0.00    -0.250 OA
ATOM     16  C   UNL     1      36.969 -26.330 -14.932  0.00  0.00    +0.319 C 
BRANCH  16  17
ATOM     17  O   UNL     1      38.237 -26.837 -14.867  0.00  0.00    -0.444 OA
ATOM     18  C   UNL     1      39.250 -25.909 -14.465  0.00  0.00    +0.256 C 
ENDBRANCH  16  17
ENDBRANCH  14  16
ENDBRANCH  10  14
ENDBRANCH   2  10
TORSDOF 7
ENDMDL
MODEL 5
REMARK VINA RESULT:      -6.4      1.538      2.219
REMARK  Name = 46937089
REMARK  7 active torsions:
REMARK  status: ('A' for Active; 'I' for Inactive)
REMARK    1  A    between atoms: N_2  and  C_10
REMARK    2  A    between atoms: C_3  and  O_5
REMARK    3  A    between atoms: O_5  and  C_6
REMARK    4  A    between atoms: C_10  and  C_12
REMARK    5  A    between atoms: C_10  and  C_14
REMARK    6  A    between atoms: C_14  and  C_16
REMARK    7  A    between atoms: C_16  and  O_17
REMARK                            x       y       z     vdW  Elec       q    Type
REMARK                         _______ _______ _______ _____ _____    ______ ____
ROOT
ATOM      1  O   UNL     1      35.159 -16.272 -20.105  0.00  0.00    -0.226 OA
ATOM      2  N   UNL     1      34.702 -16.527 -22.366  0.00  0.00    -0.265 N 
ATOM      3  C   UNL     1      34.757 -15.828 -21.176  0.00  0.00    +0.402 C 
ATOM      4  H   UNL     1      34.358 -16.060 -23.161  0.00  0.00    +0.153 HD
ENDROOT
BRANCH   3   5
ATOM      5  O   UNL     1      34.295 -14.556 -21.363  0.00  0.00    -0.442 OA
BRANCH   5   6
ATOM      6  C   UNL     1      32.872 -14.407 -21.404  0.00  0.00    +0.138 C 
ATOM      7  C   UNL     1      32.233 -15.696 -20.888  0.00  0.00    +0.044 C 
ATOM      8  C   UNL     1      32.505 -13.228 -20.505  0.00  0.00    +0.044 C 
ATOM      9  C   UNL     1      32.452 -14.133 -22.848  0.00  0.00    +0.044 C 
ENDBRANCH   5   6
ENDBRANCH   3   5
BRANCH   2  10
ATOM     10  C   UNL     1      35.117 -17.899 -22.511  0.00  0.00    +0.143 C 
BRANCH  10  12
ATOM     11  O   UNL     1      34.932 -19.446 -24.357  0.00  0.00    -0.294 OA
ATOM     12  C   UNL     1      34.925 -18.278 -23.972  0.00  0.00    +0.169 C 
ATOM     13  C   UNL     1      34.776 -17.140 -24.949  0.00  0.00    +0.074 C 
ENDBRANCH  10  12
BRANCH  10  14
ATOM     14  C   UNL     1      34.320 -18.837 -21.609  0.00  0.00    +0.137 C 
BRANCH  14  16
ATOM     15  O   UNL     1      36.379 -19.432 -20.450  0.00  0.00    -0.250 OA
ATOM     16  C   UNL     1      35.203 -19.664 -20.698  0.00  0.00    +0.319 C 
BRANCH  16  17
ATOM     17  O   UNL     1      34.472 -20.708 -20.204  0.00  0.00    -0.444 OA
ATOM     18  C   UNL     1      33.056 -20.504 -20.169  0.00  0.00    +0.256 C 
ENDBRANCH  16  17
ENDBRANCH  14  16
ENDBRANCH  10  14
ENDBRANCH   2  10
TORSDOF 7
ENDMDL
MODEL 6
REMARK VINA RESULT:      -6.3      7.526     11.164
REMARK  Name = 46937089
REMARK  7 active torsions:
REMARK  status: ('A' for Active; 'I' for Inactive)
REMARK    1  A    between atoms: N_2  and  C_10
REMARK    2  A    between atoms: C_3  and  O_5
REMARK    3  A    between atoms: O_5  and  C_6
REMARK    4  A    between atoms: C_10  and  C_12
REMARK    5  A    between atoms: C_10  and  C_14
REMARK    6  A    between atoms: C_14  and  C_16
REMARK    7  A    between atoms: C_16  and  O_17
REMARK                            x       y       z     vdW  Elec       q    Type
REMARK                         _______ _______ _______ _____ _____    ______ ____
ROOT
ATOM      1  O   UNL     1      36.394 -22.764 -15.213  0.00  0.00    -0.226 OA
ATOM      2  N   UNL     1      34.601 -24.188 -15.590  0.00  0.00    -0.265 N 
ATOM      3  C   UNL     1      35.934 -23.888 -15.384  0.00  0.00    +0.402 C 
ATOM      4  H   UNL     1      34.354 -25.133 -15.714  0.00  0.00    +0.153 HD
ENDROOT
BRANCH   3   5
ATOM      5  O   UNL     1      36.675 -25.036 -15.395  0.00  0.00    -0.442 OA
BRANCH   5   6
ATOM      6  C   UNL     1      37.229 -25.435 -14.136  0.00  0.00    +0.138 C 
ATOM      7  C   UNL     1      38.657 -24.899 -14.043  0.00  0.00    +0.044 C 
ATOM      8  C   UNL     1      36.357 -24.834 -13.036  0.00  0.00    +0.044 C 
ATOM      9  C   UNL     1      37.215 -26.961 -14.060  0.00  0.00    +0.044 C 
ENDBRANCH   5   6
ENDBRANCH   3   5
BRANCH   2  10
ATOM     10  C   UNL     1      33.553 -23.200 -15.635  0.00  0.00    +0.143 C 
BRANCH  10  12
ATOM     11  O   UNL     1      33.012 -24.090 -13.456  0.00  0.00    -0.294 OA
ATOM     12  C   UNL     1      32.647 -23.447 -14.439  0.00  0.00    +0.169 C 
ATOM     13  C   UNL     1      31.242 -22.908 -14.535  0.00  0.00    +0.074 C 
ENDBRANCH  10  12
BRANCH  10  14
ATOM     14  C   UNL     1      32.754 -23.271 -16.933  0.00  0.00    +0.137 C 
BRANCH  14  16
ATOM     15  O   UNL     1      34.710 -22.918 -18.343  0.00  0.00    -0.250 OA
ATOM     16  C   UNL     1      33.520 -22.732 -18.123  0.00  0.00    +0.319 C 
BRANCH  16  17
ATOM     17  O   UNL     1      32.666 -22.006 -18.905  0.00  0.00    -0.444 OA
ATOM     18  C   UNL     1      33.284 -21.029 -19.749  0.00  0.00    +0.256 C 
ENDBRANCH  16  17
ENDBRANCH  14  16
ENDBRANCH  10  14
ENDBRANCH   2  10
TORSDOF 7
ENDMDL
MODEL 7
REMARK VINA RESULT:      -6.3     10.249     12.019
REMARK  Name = 46937089
REMARK  7 active torsions:
REMARK  status: ('A' for Active; 'I' for Inactive)
REMARK    1  A    between atoms: N_2  and  C_10
REMARK    2  A    between atoms: C_3  and  O_5
REMARK    3  A    between atoms: O_5  and  C_6
REMARK    4  A    between atoms: C_10  and  C_12
REMARK    5  A    between atoms: C_10  and  C_14
REMARK    6  A    between atoms: C_14  and  C_16
REMARK    7  A    between atoms: C_16  and  O_17
REMARK                            x       y       z     vdW  Elec       q    Type
REMARK                         _______ _______ _______ _____ _____    ______ ____
ROOT
ATOM      1  O   UNL     1      32.813 -23.510 -12.809  0.00  0.00    -0.226 OA
ATOM      2  N   UNL     1      34.098 -24.741 -14.299  0.00  0.00    -0.265 N 
ATOM      3  C   UNL     1      32.915 -24.336 -13.711  0.00  0.00    +0.402 C 
ATOM      4  H   UNL     1      34.051 -25.412 -15.017  0.00  0.00    +0.153 HD
ENDROOT
BRANCH   3   5
ATOM      5  O   UNL     1      31.864 -24.992 -14.285  0.00  0.00    -0.442 OA
BRANCH   5   6
ATOM      6  C   UNL     1      31.006 -24.197 -15.111  0.00  0.00    +0.138 C 
ATOM      7  C   UNL     1      29.957 -25.111 -15.743  0.00  0.00    +0.044 C 
ATOM      8  C   UNL     1      30.342 -23.153 -14.218  0.00  0.00    +0.044 C 
ATOM      9  C   UNL     1      31.857 -23.522 -16.187  0.00  0.00    +0.044 C 
ENDBRANCH   5   6
ENDBRANCH   3   5
BRANCH   2  10
ATOM     10  C   UNL     1      35.395 -24.238 -13.923  0.00  0.00    +0.143 C 
BRANCH  10  12
ATOM     11  O   UNL     1      37.207 -24.524 -15.495  0.00  0.00    -0.294 OA
ATOM     12  C   UNL     1      36.158 -23.949 -15.207  0.00  0.00    +0.169 C 
ATOM     13  C   UNL     1      35.593 -22.875 -16.100  0.00  0.00    +0.074 C 
ENDBRANCH  10  12
BRANCH  10  14
ATOM     14  C   UNL     1      36.166 -25.231 -13.058  0.00  0.00    +0.137 C 
BRANCH  14  16
ATOM     15  O   UNL     1      35.247 -25.031 -10.811  0.00  0.00    -0.250 OA
ATOM     16  C   UNL     1      36.171 -24.850 -11.592  0.00  0.00    +0.319 C 
BRANCH  16  17
ATOM     17  O   UNL     1      37.373 -24.273 -11.291  0.00  0.00    -0.444 OA
ATOM     18  C   UNL     1      37.503 -22.896 -11.659  0.00  0.00    +0.256 C 
ENDBRANCH  16  17
ENDBRANCH  14  16
ENDBRANCH  10  14
ENDBRANCH   2  10
TORSDOF 7
ENDMDL
MODEL 8
REMARK VINA RESULT:      -6.2      8.715     11.872
REMARK  Name = 46937089
REMARK  7 active torsions:
REMARK  status: ('A' for Active; 'I' for Inactive)
REMARK    1  A    between atoms: N_2  and  C_10
REMARK    2  A    between atoms: C_3  and  O_5
REMARK    3  A    between atoms: O_5  and  C_6
REMARK    4  A    between atoms: C_10  and  C_12
REMARK    5  A    between atoms: C_10  and  C_14
REMARK    6  A    between atoms: C_14  and  C_16
REMARK    7  A    between atoms: C_16  and  O_17
REMARK                            x       y       z     vdW  Elec       q    Type
REMARK                         _______ _______ _______ _____ _____    ______ ____
ROOT
ATOM      1  O   UNL     1      36.021 -26.295 -15.590  0.00  0.00    -0.226 OA
ATOM      2  N   UNL     1      35.616 -24.022 -15.356  0.00  0.00    -0.265 N 
ATOM      3  C   UNL     1      36.398 -25.160 -15.315  0.00  0.00    +0.402 C 
ATOM      4  H   UNL     1      36.034 -23.164 -15.112  0.00  0.00    +0.153 HD
ENDROOT
BRANCH   3   5
ATOM      5  O   UNL     1      37.665 -24.838 -14.920  0.00  0.00    -0.442 OA
BRANCH   5   6
ATOM      6  C   UNL     1      38.005 -25.177 -13.571  0.00  0.00    +0.138 C 
ATOM      7  C   UNL     1      37.134 -26.353 -13.131  0.00  0.00    +0.044 C 
ATOM      8  C   UNL     1      39.482 -25.565 -13.550  0.00  0.00    +0.044 C 
ATOM      9  C   UNL     1      37.757 -23.956 -12.685  0.00  0.00    +0.044 C 
ENDBRANCH   5   6
ENDBRANCH   3   5
BRANCH   2  10
ATOM     10  C   UNL     1      34.226 -24.016 -15.735  0.00  0.00    +0.143 C 
BRANCH  10  12
ATOM     11  O   UNL     1      35.086 -22.708 -17.576  0.00  0.00    -0.294 OA
ATOM     12  C   UNL     1      34.105 -23.181 -17.001  0.00  0.00    +0.169 C 
ATOM     13  C   UNL     1      32.709 -22.909 -17.500  0.00  0.00    +0.074 C 
ENDBRANCH  10  12
BRANCH  10  14
ATOM     14  C   UNL     1      33.334 -23.446 -14.635  0.00  0.00    +0.137 C 
BRANCH  14  16
ATOM     15  O   UNL     1      34.236 -24.335 -12.554  0.00  0.00    -0.250 OA
ATOM     16  C   UNL     1      33.336 -24.295 -13.382  0.00  0.00    +0.319 C 
BRANCH  16  17
ATOM     17  O   UNL     1      32.170 -25.007 -13.331  0.00  0.00    -0.444 OA
ATOM     18  C   UNL     1      30.976 -24.249 -13.549  0.00  0.00    +0.256 C 
ENDBRANCH  16  17
ENDBRANCH  14  16
ENDBRANCH  10  14
ENDBRANCH   2  10
TORSDOF 7
ENDMDL
MODEL 9
REMARK VINA RESULT:      -6.1      2.667      4.420
REMARK  Name = 46937089
REMARK  7 active torsions:
REMARK  status: ('A' for Active; 'I' for Inactive)
REMARK    1  A    between atoms: N_2  and  C_10
REMARK    2  A    between atoms: C_3  and  O_5
REMARK    3  A    between atoms: O_5  and  C_6
REMARK    4  A    between atoms: C_10  and  C_12
REMARK    5  A    between atoms: C_10  and  C_14
REMARK    6  A    between atoms: C_14  and  C_16
REMARK    7  A    between atoms: C_16  and  O_17
REMARK                            x       y       z     vdW  Elec       q    Type
REMARK                         _______ _______ _______ _____ _____    ______ ____
ROOT
ATOM      1  O   UNL     1      32.355 -13.194 -23.334  0.00  0.00    -0.226 OA
ATOM      2  N   UNL     1      34.506 -13.965 -22.928  0.00  0.00    -0.265 N 
ATOM      3  C   UNL     1      33.555 -12.994 -23.174  0.00  0.00    +0.402 C 
ATOM      4  H   UNL     1      35.442 -13.679 -22.816  0.00  0.00    +0.153 HD
ENDROOT
BRANCH   3   5
ATOM      5  O   UNL     1      34.148 -11.763 -23.211  0.00  0.00    -0.442 OA
BRANCH   5   6
ATOM      6  C   UNL     1      33.871 -10.971 -24.371  0.00  0.00    +0.138 C 
ATOM      7  C   UNL     1      32.621 -10.134 -24.101  0.00  0.00    +0.044 C 
ATOM      8  C   UNL     1      35.080 -10.070 -24.613  0.00  0.00    +0.044 C 
ATOM      9  C   UNL     1      33.653 -11.908 -25.559  0.00  0.00    +0.044 C 
ENDBRANCH   5   6
ENDBRANCH   3   5
BRANCH   2  10
ATOM     10  C   UNL     1      34.211 -15.372 -22.827  0.00  0.00    +0.143 C 
BRANCH  10  12
ATOM     11  O   UNL     1      34.803 -15.018 -20.512  0.00  0.00    -0.294 OA
ATOM     12  C   UNL     1      34.601 -15.817 -21.426  0.00  0.00    +0.169 C 
ATOM     13  C   UNL     1      34.784 -17.298 -21.216  0.00  0.00    +0.074 C 
ENDBRANCH  10  12
BRANCH  10  14
ATOM     14  C   UNL     1      34.959 -16.191 -23.874  0.00  0.00    +0.137 C 
BRANCH  14  16
ATOM     15  O   UNL     1      33.444 -15.490 -25.648  0.00  0.00    -0.250 OA
ATOM     16  C   UNL     1      34.186 -16.336 -25.167  0.00  0.00    +0.319 C 
BRANCH  16  17
ATOM     17  O   UNL     1      34.451 -17.565 -25.705  0.00  0.00    -0.444 OA
ATOM     18  C   UNL     1      34.442 -18.656 -24.779  0.00  0.00    +0.256 C 
ENDBRANCH  16  17
ENDBRANCH  14  16
ENDBRANCH  10  14
ENDBRANCH   2  10
TORSDOF 7
ENDMDL
