MODEL 1
REMARK VINA RESULT:      -6.2      0.000      0.000
REMARK  Name = 28281
REMARK  10 active torsions:
REMARK  status: ('A' for Active; 'I' for Inactive)
REMARK    1  A    between atoms: N_2  and  C_14
REMARK    2  A    between atoms: C_3  and  C_5
REMARK    3  A    between atoms: C_5  and  C_6
REMARK    4  A    between atoms: C_5  and  O_12
REMARK    5  A    between atoms: C_6  and  C_9
REMARK    6  A    between atoms: C_9  and  O_10
REMARK    7  A    between atoms: C_14  and  C_15
REMARK    8  A    between atoms: C_15  and  C_16
REMARK    9  A    between atoms: C_16  and  C_18
REMARK   10  A    between atoms: C_18  and  O_19
REMARK                            x       y       z     vdW  Elec       q    Type
REMARK                         _______ _______ _______ _____ _____    ______ ____
ROOT
ATOM      1  O   UNL     1      35.715 -23.339 -12.629  0.00  0.00    -0.272 OA
ATOM      2  N   UNL     1      34.715 -24.537 -14.346  0.00  0.00    -0.302 N 
ATOM      3  C   UNL     1      35.795 -24.014 -13.654  0.00  0.00    +0.249 C 
ATOM      4  H   UNL     1      34.888 -25.065 -15.159  0.00  0.00    +0.150 HD
ENDROOT
BRANCH   3   5
ATOM      5  C   UNL     1      37.133 -24.338 -14.315  0.00  0.00    +0.189 C 
BRANCH   5   6
ATOM      6  C   UNL     1      37.765 -25.686 -13.855  0.00  0.00    +0.060 C 
ATOM      7  C   UNL     1      37.163 -26.070 -12.482  0.00  0.00    +0.005 C 
ATOM      8  C   UNL     1      39.289 -25.547 -13.670  0.00  0.00    +0.005 C 
BRANCH   6   9
ATOM      9  C   UNL     1      37.461 -26.818 -14.867  0.00  0.00    +0.140 C 
BRANCH   9  10
ATOM     10  O   UNL     1      36.061 -27.053 -14.967  0.00  0.00    -0.382 OA
ATOM     11  H   UNL     1      35.905 -27.871 -15.465  0.00  0.00    +0.210 HD
ENDBRANCH   9  10
ENDBRANCH   6   9
ENDBRANCH   5   6
BRANCH   5  12
ATOM     12  O   UNL     1      36.891 -24.376 -15.718  0.00  0.00    -0.376 OA
ATOM     13  H   UNL     1      36.023 -23.986 -15.908  0.00  0.00    +0.211 HD
ENDBRANCH   5  12
ENDBRANCH   3   5
BRANCH   2  14
ATOM     14  C   UNL     1      33.345 -24.342 -13.931  0.00  0.00    +0.090 C 
BRANCH  14  15
ATOM     15  C   UNL     1      32.656 -23.200 -14.676  0.00  0.00    +0.033 C 
BRANCH  15  16
ATOM     16  C   UNL     1      32.151 -23.578 -16.070  0.00  0.00    +0.111 C 
BRANCH  16  18
ATOM     17  O   UNL     1      34.305 -23.570 -17.209  0.00  0.00    -0.250 OA
ATOM     18  C   UNL     1      33.128 -23.238 -17.173  0.00  0.00    +0.314 C 
BRANCH  18  19
ATOM     19  O   UNL     1      32.532 -22.521 -18.162  0.00  0.00    -0.480 OA
ATOM     20  H   UNL     1      31.608 -22.592 -18.301  0.00  0.00    +0.295 HD
ENDBRANCH  18  19
ENDBRANCH  16  18
ENDBRANCH  15  16
ENDBRANCH  14  15
ENDBRANCH   2  14
TORSDOF 10
ENDMDL
MODEL 2
REMARK VINA RESULT:      -6.1      1.512      2.532
REMARK  Name = 28281
REMARK  10 active torsions:
REMARK  status: ('A' for Active; 'I' for Inactive)
REMARK    1  A    between atoms: N_2  and  C_14
REMARK    2  A    between atoms: C_3  and  C_5
REMARK    3  A    between atoms: C_5  and  C_6
REMARK    4  A    between atoms: C_5  and  O_12
REMARK    5  A    between atoms: C_6  and  C_9
REMARK    6  A    between atoms: C_9  and  O_10
REMARK    7  A    between atoms: C_14  and  C_15
REMARK    8  A    between atoms: C_15  and  C_16
REMARK    9  A    between atoms: C_16  and  C_18
REMARK   10  A    between atoms: C_18  and  O_19
REMARK                            x       y       z     vdW  Elec       q    Type
REMARK                         _______ _______ _______ _____ _____    ______ ____
ROOT
ATOM      1  O   UNL     1      36.081 -26.554 -15.903  0.00  0.00    -0.272 OA
ATOM      2  N   UNL     1      35.375 -25.058 -14.275  0.00  0.00    -0.302 N 
ATOM      3  C   UNL     1      36.238 -25.996 -14.818  0.00  0.00    +0.249 C 
ATOM      4  H   UNL     1      35.593 -24.672 -13.396  0.00  0.00    +0.150 HD
ENDROOT
BRANCH   3   5
ATOM      5  C   UNL     1      37.423 -26.306 -13.906  0.00  0.00    +0.189 C 
BRANCH   5   6
ATOM      6  C   UNL     1      38.465 -25.152 -13.796  0.00  0.00    +0.060 C 
ATOM      7  C   UNL     1      39.884 -25.755 -13.929  0.00  0.00    +0.005 C 
ATOM      8  C   UNL     1      38.382 -24.462 -12.420  0.00  0.00    +0.005 C 
BRANCH   6   9
ATOM      9  C   UNL     1      38.261 -24.107 -14.920  0.00  0.00    +0.140 C 
BRANCH   9  10
ATOM     10  O   UNL     1      37.673 -22.915 -14.410  0.00  0.00    -0.382 OA
ATOM     11  H   UNL     1      37.176 -22.472 -15.116  0.00  0.00    +0.210 HD
ENDBRANCH   9  10
ENDBRANCH   6   9
ENDBRANCH   5   6
BRANCH   5  12
ATOM     12  O   UNL     1      36.880 -26.584 -12.618  0.00  0.00    -0.376 OA
ATOM     13  H   UNL     1      36.814 -25.761 -12.109  0.00  0.00    +0.211 HD
ENDBRANCH   5  12
ENDBRANCH   3   5
BRANCH   2  14
ATOM     14  C   UNL     1      34.168 -24.623 -14.939  0.00  0.00    +0.090 C 
BRANCH  14  15
ATOM     15  C   UNL     1      34.413 -23.491 -15.935  0.00  0.00    +0.033 C 
BRANCH  15  16
ATOM     16  C   UNL     1      33.288 -23.302 -16.955  0.00  0.00    +0.111 C 
BRANCH  16  18
ATOM     17  O   UNL     1      34.913 -22.693 -18.666  0.00  0.00    -0.250 OA
ATOM     18  C   UNL     1      33.759 -22.698 -18.260  0.00  0.00    +0.314 C 
BRANCH  18  19
ATOM     19  O   UNL     1      32.725 -22.166 -18.963  0.00  0.00    -0.480 OA
ATOM     20  H   UNL     1      32.503 -21.262 -18.857  0.00  0.00    +0.295 HD
ENDBRANCH  18  19
ENDBRANCH  16  18
ENDBRANCH  15  16
ENDBRANCH  14  15
ENDBRANCH   2  14
TORSDOF 10
ENDMDL
MODEL 3
REMARK VINA RESULT:      -6.1      7.342     10.515
REMARK  Name = 28281
REMARK  10 active torsions:
REMARK  status: ('A' for Active; 'I' for Inactive)
REMARK    1  A    between atoms: N_2  and  C_14
REMARK    2  A    between atoms: C_3  and  C_5
REMARK    3  A    between atoms: C_5  and  C_6
REMARK    4  A    between atoms: C_5  and  O_12
REMARK    5  A    between atoms: C_6  and  C_9
REMARK    6  A    between atoms: C_9  and  O_10
REMARK    7  A    between atoms: C_14  and  C_15
REMARK    8  A    between atoms: C_15  and  C_16
REMARK    9  A    between atoms: C_16  and  C_18
REMARK   10  A    between atoms: C_18  and  O_19
REMARK                            x       y       z     vdW  Elec       q    Type
REMARK                         _______ _______ _______ _____ _____    ______ ____
ROOT
ATOM      1  O   UNL     1      35.544 -17.364 -20.472  0.00  0.00    -0.272 OA
ATOM      2  N   UNL     1      34.194 -18.839 -21.649  0.00  0.00    -0.302 N 
ATOM      3  C   UNL     1      34.783 -17.609 -21.406  0.00  0.00    +0.249 C 
ATOM      4  H   UNL     1      33.597 -18.930 -22.427  0.00  0.00    +0.150 HD
ENDROOT
BRANCH   3   5
ATOM      5  C   UNL     1      34.368 -16.546 -22.421  0.00  0.00    +0.189 C 
BRANCH   5   6
ATOM      6  C   UNL     1      33.651 -15.310 -21.797  0.00  0.00    +0.060 C 
ATOM      7  C   UNL     1      34.650 -14.579 -20.868  0.00  0.00    +0.005 C 
ATOM      8  C   UNL     1      32.450 -15.746 -20.934  0.00  0.00    +0.005 C 
BRANCH   6   9
ATOM      9  C   UNL     1      33.179 -14.326 -22.895  0.00  0.00    +0.140 C 
BRANCH   9  10
ATOM     10  O   UNL     1      34.245 -13.486 -23.323  0.00  0.00    -0.382 OA
ATOM     11  H   UNL     1      34.459 -13.680 -24.249  0.00  0.00    +0.210 HD
ENDBRANCH   9  10
ENDBRANCH   6   9
ENDBRANCH   5   6
BRANCH   5  12
ATOM     12  O   UNL     1      35.561 -16.127 -23.077  0.00  0.00    -0.376 OA
ATOM     13  H   UNL     1      35.350 -15.833 -23.978  0.00  0.00    +0.211 HD
ENDBRANCH   5  12
ENDBRANCH   3   5
BRANCH   2  14
ATOM     14  C   UNL     1      34.412 -19.995 -20.809  0.00  0.00    +0.090 C 
BRANCH  14  15
ATOM     15  C   UNL     1      33.112 -20.677 -20.388  0.00  0.00    +0.033 C 
BRANCH  15  16
ATOM     16  C   UNL     1      33.221 -21.484 -19.092  0.00  0.00    +0.111 C 
BRANCH  16  18
ATOM     17  O   UNL     1      35.485 -22.298 -18.705  0.00  0.00    -0.250 OA
ATOM     18  C   UNL     1      34.347 -22.494 -19.110  0.00  0.00    +0.314 C 
BRANCH  18  19
ATOM     19  O   UNL     1      33.938 -23.687 -19.617  0.00  0.00    -0.480 OA
ATOM     20  H   UNL     1      33.362 -24.234 -19.122  0.00  0.00    +0.295 HD
ENDBRANCH  18  19
ENDBRANCH  16  18
ENDBRANCH  15  16
ENDBRANCH  14  15
ENDBRANCH   2  14
TORSDOF 10
ENDMDL
MODEL 4
REMARK VINA RESULT:      -6.1      1.525      2.538
REMARK  Name = 28281
REMARK  10 active torsions:
REMARK  status: ('A' for Active; 'I' for Inactive)
REMARK    1  A    between atoms: N_2  and  C_14
REMARK    2  A    between atoms: C_3  and  C_5
REMARK    3  A    between atoms: C_5  and  C_6
REMARK    4  A    between atoms: C_5  and  O_12
REMARK    5  A    between atoms: C_6  and  C_9
REMARK    6  A    between atoms: C_9  and  O_10
REMARK    7  A    between atoms: C_14  and  C_15
REMARK    8  A    between atoms: C_15  and  C_16
REMARK    9  A    between atoms: C_16  and  C_18
REMARK   10  A    between atoms: C_18  and  O_19
REMARK                            x       y       z     vdW  Elec       q    Type
REMARK                         _______ _______ _______ _____ _____    ______ ____
ROOT
ATOM      1  O   UNL     1      34.787 -23.888 -11.781  0.00  0.00    -0.272 OA
ATOM      2  N   UNL     1      34.242 -24.830 -13.830  0.00  0.00    -0.302 N 
ATOM      3  C   UNL     1      35.071 -24.596 -12.745  0.00  0.00    +0.249 C 
ATOM      4  H   UNL     1      34.566 -25.414 -14.553  0.00  0.00    +0.150 HD
ENDROOT
BRANCH   3   5
ATOM      5  C   UNL     1      36.422 -25.297 -12.873  0.00  0.00    +0.189 C 
BRANCH   5   6
ATOM      6  C   UNL     1      37.603 -24.349 -13.241  0.00  0.00    +0.060 C 
ATOM      7  C   UNL     1      37.038 -23.135 -14.016  0.00  0.00    +0.005 C 
ATOM      8  C   UNL     1      38.614 -25.058 -14.165  0.00  0.00    +0.005 C 
BRANCH   6   9
ATOM      9  C   UNL     1      38.324 -23.838 -11.970  0.00  0.00    +0.140 C 
BRANCH   9  10
ATOM     10  O   UNL     1      37.534 -22.871 -11.286  0.00  0.00    -0.382 OA
ATOM     11  H   UNL     1      37.489 -22.058 -11.813  0.00  0.00    +0.210 HD
ENDBRANCH   9  10
ENDBRANCH   6   9
ENDBRANCH   5   6
BRANCH   5  12
ATOM     12  O   UNL     1      36.677 -25.914 -11.614  0.00  0.00    -0.376 OA
ATOM     13  H   UNL     1      37.092 -26.779 -11.756  0.00  0.00    +0.211 HD
ENDBRANCH   5  12
ENDBRANCH   3   5
BRANCH   2  14
ATOM     14  C   UNL     1      32.923 -24.253 -13.951  0.00  0.00    +0.090 C 
BRANCH  14  15
ATOM     15  C   UNL     1      32.875 -23.078 -14.926  0.00  0.00    +0.033 C 
BRANCH  15  16
ATOM     16  C   UNL     1      32.192 -23.398 -16.257  0.00  0.00    +0.111 C 
BRANCH  16  18
ATOM     17  O   UNL     1      32.700 -22.479 -18.456  0.00  0.00    -0.250 OA
ATOM     18  C   UNL     1      33.056 -23.096 -17.461  0.00  0.00    +0.314 C 
BRANCH  18  19
ATOM     19  O   UNL     1      34.317 -23.578 -17.302  0.00  0.00    -0.480 OA
ATOM     20  H   UNL     1      34.983 -23.034 -16.933  0.00  0.00    +0.295 HD
ENDBRANCH  18  19
ENDBRANCH  16  18
ENDBRANCH  15  16
ENDBRANCH  14  15
ENDBRANCH   2  14
TORSDOF 10
ENDMDL
MODEL 5
REMARK VINA RESULT:      -6.1      8.931     11.243
REMARK  Name = 28281
REMARK  10 active torsions:
REMARK  status: ('A' for Active; 'I' for Inactive)
REMARK    1  A    between atoms: N_2  and  C_14
REMARK    2  A    between atoms: C_3  and  C_5
REMARK    3  A    between atoms: C_5  and  C_6
REMARK    4  A    between atoms: C_5  and  O_12
REMARK    5  A    between atoms: C_6  and  C_9
REMARK    6  A    between atoms: C_9  and  O_10
REMARK    7  A    between atoms: C_14  and  C_15
REMARK    8  A    between atoms: C_15  and  C_16
REMARK    9  A    between atoms: C_16  and  C_18
REMARK   10  A    between atoms: C_18  and  O_19
REMARK                            x       y       z     vdW  Elec       q    Type
REMARK                         _______ _______ _______ _____ _____    ______ ____
ROOT
ATOM      1  O   UNL     1      34.927 -16.136 -20.149  0.00  0.00    -0.272 OA
ATOM      2  N   UNL     1      34.332 -16.323 -22.384  0.00  0.00    -0.302 N 
ATOM      3  C   UNL     1      34.973 -16.729 -21.225  0.00  0.00    +0.249 C 
ATOM      4  H   UNL     1      34.434 -16.871 -23.196  0.00  0.00    +0.150 HD
ENDROOT
BRANCH   3   5
ATOM      5  C   UNL     1      35.789 -18.005 -21.419  0.00  0.00    +0.189 C 
BRANCH   5   6
ATOM      6  C   UNL     1      34.934 -19.304 -21.524  0.00  0.00    +0.060 C 
ATOM      7  C   UNL     1      33.510 -18.999 -21.001  0.00  0.00    +0.005 C 
ATOM      8  C   UNL     1      35.521 -20.425 -20.642  0.00  0.00    +0.005 C 
BRANCH   6   9
ATOM      9  C   UNL     1      34.833 -19.789 -22.990  0.00  0.00    +0.140 C 
BRANCH   9  10
ATOM     10  O   UNL     1      34.276 -18.780 -23.826  0.00  0.00    -0.382 OA
ATOM     11  H   UNL     1      33.688 -19.189 -24.479  0.00  0.00    +0.210 HD
ENDBRANCH   9  10
ENDBRANCH   6   9
ENDBRANCH   5   6
BRANCH   5  12
ATOM     12  O   UNL     1      36.538 -17.827 -22.618  0.00  0.00    -0.376 OA
ATOM     13  H   UNL     1      36.324 -16.965 -23.009  0.00  0.00    +0.211 HD
ENDBRANCH   5  12
ENDBRANCH   3   5
BRANCH   2  14
ATOM     14  C   UNL     1      33.522 -15.128 -22.457  0.00  0.00    +0.090 C 
BRANCH  14  15
ATOM     15  C   UNL     1      33.926 -14.206 -23.606  0.00  0.00    +0.033 C 
BRANCH  15  16
ATOM     16  C   UNL     1      33.029 -14.316 -24.841  0.00  0.00    +0.111 C 
BRANCH  16  18
ATOM     17  O   UNL     1      33.825 -16.493 -25.593  0.00  0.00    -0.250 OA
ATOM     18  C   UNL     1      33.517 -15.336 -25.846  0.00  0.00    +0.314 C 
BRANCH  18  19
ATOM     19  O   UNL     1      33.554 -14.819 -27.102  0.00  0.00    -0.480 OA
ATOM     20  H   UNL     1      33.985 -14.003 -27.260  0.00  0.00    +0.295 HD
ENDBRANCH  18  19
ENDBRANCH  16  18
ENDBRANCH  15  16
ENDBRANCH  14  15
ENDBRANCH   2  14
TORSDOF 10
ENDMDL
MODEL 6
REMARK VINA RESULT:      -6.1      9.143     11.405
REMARK  Name = 28281
REMARK  10 active torsions:
REMARK  status: ('A' for Active; 'I' for Inactive)
REMARK    1  A    between atoms: N_2  and  C_14
REMARK    2  A    between atoms: C_3  and  C_5
REMARK    3  A    between atoms: C_5  and  C_6
REMARK    4  A    between atoms: C_5  and  O_12
REMARK    5  A    between atoms: C_6  and  C_9
REMARK    6  A    between atoms: C_9  and  O_10
REMARK    7  A    between atoms: C_14  and  C_15
REMARK    8  A    between atoms: C_15  and  C_16
REMARK    9  A    between atoms: C_16  and  C_18
REMARK   10  A    between atoms: C_18  and  O_19
REMARK                            x       y       z     vdW  Elec       q    Type
REMARK                         _______ _______ _______ _____ _____    ______ ____
ROOT
ATOM      1  O   UNL     1      35.089 -15.990 -20.002  0.00  0.00    -0.272 OA
ATOM      2  N   UNL     1      33.334 -15.555 -21.456  0.00  0.00    -0.302 N 
ATOM      3  C   UNL     1      34.535 -16.140 -21.089  0.00  0.00    +0.249 C 
ATOM      4  H   UNL     1      32.975 -15.740 -22.353  0.00  0.00    +0.150 HD
ENDROOT
BRANCH   3   5
ATOM      5  C   UNL     1      35.139 -16.993 -22.203  0.00  0.00    +0.189 C 
BRANCH   5   6
ATOM      6  C   UNL     1      35.106 -18.526 -21.926  0.00  0.00    +0.060 C 
ATOM      7  C   UNL     1      35.038 -19.270 -23.281  0.00  0.00    +0.005 C 
ATOM      8  C   UNL     1      33.849 -18.915 -21.121  0.00  0.00    +0.005 C 
BRANCH   6   9
ATOM      9  C   UNL     1      36.375 -18.984 -21.168  0.00  0.00    +0.140 C 
BRANCH   9  10
ATOM     10  O   UNL     1      36.043 -19.856 -20.092  0.00  0.00    -0.382 OA
ATOM     11  H   UNL     1      35.935 -20.759 -20.429  0.00  0.00    +0.210 HD
ENDBRANCH   9  10
ENDBRANCH   6   9
ENDBRANCH   5   6
BRANCH   5  12
ATOM     12  O   UNL     1      34.395 -16.703 -23.382  0.00  0.00    -0.376 OA
ATOM     13  H   UNL     1      34.882 -17.020 -24.159  0.00  0.00    +0.211 HD
ENDBRANCH   5  12
ENDBRANCH   3   5
BRANCH   2  14
ATOM     14  C   UNL     1      32.585 -14.682 -20.580  0.00  0.00    +0.090 C 
BRANCH  14  15
ATOM     15  C   UNL     1      32.342 -13.300 -21.186  0.00  0.00    +0.033 C 
BRANCH  15  16
ATOM     16  C   UNL     1      32.220 -13.299 -22.711  0.00  0.00    +0.111 C 
BRANCH  16  18
ATOM     17  O   UNL     1      33.554 -11.593 -23.828  0.00  0.00    -0.250 OA
ATOM     18  C   UNL     1      33.439 -12.736 -23.408  0.00  0.00    +0.314 C 
BRANCH  18  19
ATOM     19  O   UNL     1      34.431 -13.660 -23.498  0.00  0.00    -0.480 OA
ATOM     20  H   UNL     1      34.535 -14.161 -24.282  0.00  0.00    +0.295 HD
ENDBRANCH  18  19
ENDBRANCH  16  18
ENDBRANCH  15  16
ENDBRANCH  14  15
ENDBRANCH   2  14
TORSDOF 10
ENDMDL
MODEL 7
REMARK VINA RESULT:      -6.0     10.284     12.545
REMARK  Name = 28281
REMARK  10 active torsions:
REMARK  status: ('A' for Active; 'I' for Inactive)
REMARK    1  A    between atoms: N_2  and  C_14
REMARK    2  A    between atoms: C_3  and  C_5
REMARK    3  A    between atoms: C_5  and  C_6
REMARK    4  A    between atoms: C_5  and  O_12
REMARK    5  A    between atoms: C_6  and  C_9
REMARK    6  A    between atoms: C_9  and  O_10
REMARK    7  A    between atoms: C_14  and  C_15
REMARK    8  A    between atoms: C_15  and  C_16
REMARK    9  A    between atoms: C_16  and  C_18
REMARK   10  A    between atoms: C_18  and  O_19
REMARK                            x       y       z     vdW  Elec       q    Type
REMARK                         _______ _______ _______ _____ _____    ______ ____
ROOT
ATOM      1  O   UNL     1      35.654 -16.079 -23.282  0.00  0.00    -0.272 OA
ATOM      2  N   UNL     1      33.484 -15.329 -22.946  0.00  0.00    -0.302 N 
ATOM      3  C   UNL     1      34.595 -16.105 -22.658  0.00  0.00    +0.249 C 
ATOM      4  H   UNL     1      32.683 -15.427 -22.382  0.00  0.00    +0.150 HD
ENDROOT
BRANCH   3   5
ATOM      5  C   UNL     1      34.369 -17.043 -21.474  0.00  0.00    +0.189 C 
BRANCH   5   6
ATOM      6  C   UNL     1      34.782 -18.522 -21.741  0.00  0.00    +0.060 C 
ATOM      7  C   UNL     1      34.572 -18.829 -23.243  0.00  0.00    +0.005 C 
ATOM      8  C   UNL     1      33.893 -19.496 -20.941  0.00  0.00    +0.005 C 
BRANCH   6   9
ATOM      9  C   UNL     1      36.270 -18.759 -21.387  0.00  0.00    +0.140 C 
BRANCH   9  10
ATOM     10  O   UNL     1      36.402 -19.364 -20.105  0.00  0.00    -0.382 OA
ATOM     11  H   UNL     1      35.638 -19.939 -19.939  0.00  0.00    +0.210 HD
ENDBRANCH   9  10
ENDBRANCH   6   9
ENDBRANCH   5   6
BRANCH   5  12
ATOM     12  O   UNL     1      35.136 -16.520 -20.393  0.00  0.00    -0.376 OA
ATOM     13  H   UNL     1      36.078 -16.690 -20.551  0.00  0.00    +0.211 HD
ENDBRANCH   5  12
ENDBRANCH   3   5
BRANCH   2  14
ATOM     14  C   UNL     1      33.446 -14.385 -24.038  0.00  0.00    +0.090 C 
BRANCH  14  15
ATOM     15  C   UNL     1      33.426 -12.932 -23.567  0.00  0.00    +0.033 C 
BRANCH  15  16
ATOM     16  C   UNL     1      33.859 -11.923 -24.633  0.00  0.00    +0.111 C 
BRANCH  16  18
ATOM     17  O   UNL     1      33.174  -9.796 -23.662  0.00  0.00    -0.250 OA
ATOM     18  C   UNL     1      34.058 -10.526 -24.089  0.00  0.00    +0.314 C 
BRANCH  18  19
ATOM     19  O   UNL     1      35.369 -10.168 -24.104  0.00  0.00    -0.480 OA
ATOM     20  H   UNL     1      36.023 -10.797 -24.336  0.00  0.00    +0.295 HD
ENDBRANCH  18  19
ENDBRANCH  16  18
ENDBRANCH  15  16
ENDBRANCH  14  15
ENDBRANCH   2  14
TORSDOF 10
ENDMDL
MODEL 8
REMARK VINA RESULT:      -6.0      2.046      2.362
REMARK  Name = 28281
REMARK  10 active torsions:
REMARK  status: ('A' for Active; 'I' for Inactive)
REMARK    1  A    between atoms: N_2  and  C_14
REMARK    2  A    between atoms: C_3  and  C_5
REMARK    3  A    between atoms: C_5  and  C_6
REMARK    4  A    between atoms: C_5  and  O_12
REMARK    5  A    between atoms: C_6  and  C_9
REMARK    6  A    between atoms: C_9  and  O_10
REMARK    7  A    between atoms: C_14  and  C_15
REMARK    8  A    between atoms: C_15  and  C_16
REMARK    9  A    between atoms: C_16  and  C_18
REMARK   10  A    between atoms: C_18  and  O_19
REMARK                            x       y       z     vdW  Elec       q    Type
REMARK                         _______ _______ _______ _____ _____    ______ ____
ROOT
ATOM      1  O   UNL     1      36.108 -23.218 -12.525  0.00  0.00    -0.272 OA
ATOM      2  N   UNL     1      34.925 -24.225 -14.249  0.00  0.00    -0.302 N 
ATOM      3  C   UNL     1      36.079 -23.841 -13.585  0.00  0.00    +0.249 C 
ATOM      4  H   UNL     1      35.012 -24.722 -15.095  0.00  0.00    +0.150 HD
ENDROOT
BRANCH   3   5
ATOM      5  C   UNL     1      37.350 -24.251 -14.326  0.00  0.00    +0.189 C 
BRANCH   5   6
ATOM      6  C   UNL     1      37.883 -25.666 -13.950  0.00  0.00    +0.060 C 
ATOM      7  C   UNL     1      37.298 -26.063 -12.574  0.00  0.00    +0.005 C 
ATOM      8  C   UNL     1      39.419 -25.660 -13.815  0.00  0.00    +0.005 C 
BRANCH   6   9
ATOM      9  C   UNL     1      37.453 -26.721 -14.998  0.00  0.00    +0.140 C 
BRANCH   9  10
ATOM     10  O   UNL     1      36.044 -26.923 -14.973  0.00  0.00    -0.382 OA
ATOM     11  H   UNL     1      35.611 -26.138 -14.602  0.00  0.00    +0.210 HD
ENDBRANCH   9  10
ENDBRANCH   6   9
ENDBRANCH   5   6
BRANCH   5  12
ATOM     12  O   UNL     1      37.038 -24.211 -15.716  0.00  0.00    -0.376 OA
ATOM     13  H   UNL     1      36.913 -25.114 -16.046  0.00  0.00    +0.211 HD
ENDBRANCH   5  12
ENDBRANCH   3   5
BRANCH   2  14
ATOM     14  C   UNL     1      33.599 -23.926 -13.758  0.00  0.00    +0.090 C 
BRANCH  14  15
ATOM     15  C   UNL     1      32.636 -23.507 -14.867  0.00  0.00    +0.033 C 
BRANCH  15  16
ATOM     16  C   UNL     1      31.169 -23.458 -14.435  0.00  0.00    +0.111 C 
BRANCH  16  18
ATOM     17  O   UNL     1      30.409 -25.748 -14.776  0.00  0.00    -0.250 OA
ATOM     18  C   UNL     1      30.621 -24.807 -14.024  0.00  0.00    +0.314 C 
BRANCH  18  19
ATOM     19  O   UNL     1      30.406 -24.869 -12.683  0.00  0.00    -0.480 OA
ATOM     20  H   UNL     1      30.896 -25.469 -12.158  0.00  0.00    +0.295 HD
ENDBRANCH  18  19
ENDBRANCH  16  18
ENDBRANCH  15  16
ENDBRANCH  14  15
ENDBRANCH   2  14
TORSDOF 10
ENDMDL
MODEL 9
REMARK VINA RESULT:      -6.0      2.391      3.004
REMARK  Name = 28281
REMARK  10 active torsions:
REMARK  status: ('A' for Active; 'I' for Inactive)
REMARK    1  A    between atoms: N_2  and  C_14
REMARK    2  A    between atoms: C_3  and  C_5
REMARK    3  A    between atoms: C_5  and  C_6
REMARK    4  A    between atoms: C_5  and  O_12
REMARK    5  A    between atoms: C_6  and  C_9
REMARK    6  A    between atoms: C_9  and  O_10
REMARK    7  A    between atoms: C_14  and  C_15
REMARK    8  A    between atoms: C_15  and  C_16
REMARK    9  A    between atoms: C_16  and  C_18
REMARK   10  A    between atoms: C_18  and  O_19
REMARK                            x       y       z     vdW  Elec       q    Type
REMARK                         _______ _______ _______ _____ _____    ______ ____
ROOT
ATOM      1  O   UNL     1      35.163 -23.888 -15.975  0.00  0.00    -0.272 OA
ATOM      2  N   UNL     1      34.455 -24.922 -14.023  0.00  0.00    -0.302 N 
ATOM      3  C   UNL     1      35.327 -24.713 -15.079  0.00  0.00    +0.249 C 
ATOM      4  H   UNL     1      34.680 -25.611 -13.356  0.00  0.00    +0.150 HD
ENDROOT
BRANCH   3   5
ATOM      5  C   UNL     1      36.533 -25.649 -15.042  0.00  0.00    +0.189 C 
BRANCH   5   6
ATOM      6  C   UNL     1      37.606 -25.271 -13.977  0.00  0.00    +0.060 C 
ATOM      7  C   UNL     1      37.367 -23.807 -13.536  0.00  0.00    +0.005 C 
ATOM      8  C   UNL     1      39.027 -25.350 -14.572  0.00  0.00    +0.005 C 
BRANCH   6   9
ATOM      9  C   UNL     1      37.506 -26.188 -12.734  0.00  0.00    +0.140 C 
BRANCH   9  10
ATOM     10  O   UNL     1      36.372 -25.856 -11.941  0.00  0.00    -0.382 OA
ATOM     11  H   UNL     1      36.113 -24.937 -12.117  0.00  0.00    +0.210 HD
ENDBRANCH   9  10
ENDBRANCH   6   9
ENDBRANCH   5   6
BRANCH   5  12
ATOM     12  O   UNL     1      36.025 -26.952 -14.768  0.00  0.00    -0.376 OA
ATOM     13  H   UNL     1      35.345 -26.896 -14.078  0.00  0.00    +0.211 HD
ENDBRANCH   5  12
ENDBRANCH   3   5
BRANCH   2  14
ATOM     14  C   UNL     1      33.229 -24.176 -13.856  0.00  0.00    +0.090 C 
BRANCH  14  15
ATOM     15  C   UNL     1      31.983 -25.058 -13.932  0.00  0.00    +0.033 C 
BRANCH  15  16
ATOM     16  C   UNL     1      30.666 -24.278 -13.943  0.00  0.00    +0.111 C 
BRANCH  16  18
ATOM     17  O   UNL     1      29.617 -24.680 -16.105  0.00  0.00    -0.250 OA
ATOM     18  C   UNL     1      29.639 -24.852 -14.894  0.00  0.00    +0.314 C 
BRANCH  18  19
ATOM     19  O   UNL     1      28.730 -25.621 -14.240  0.00  0.00    -0.480 OA
ATOM     20  H   UNL     1      28.348 -25.318 -13.440  0.00  0.00    +0.295 HD
ENDBRANCH  18  19
ENDBRANCH  16  18
ENDBRANCH  15  16
ENDBRANCH  14  15
ENDBRANCH   2  14
TORSDOF 10
ENDMDL
