MODEL 1
REMARK VINA RESULT:      -8.3      0.000      0.000
REMARK  Name = 2082
REMARK  5 active torsions:
REMARK  status: ('A' for Active; 'I' for Inactive)
REMARK    1  A    between atoms: N_4  and  C_10
REMARK    2  A    between atoms: C_7  and  S_18
REMARK    3  A    between atoms: C_12  and  O_16
REMARK    4  A    between atoms: S_18  and  C_19
REMARK    5  A    between atoms: C_19  and  C_20
REMARK                            x       y       z     vdW  Elec       q    Type
REMARK                         _______ _______ _______ _____ _____    ______ ____
ROOT
ATOM      1  N   UNL     1      32.566 -22.007 -18.605  0.00  0.00    -0.302 N 
ATOM      2  N   UNL     1      34.489 -22.736 -17.763  0.00  0.00    -0.302 N 
ATOM      3  C   UNL     1      33.545 -21.396 -19.346  0.00  0.00    +0.061 C 
ATOM      4  C   UNL     1      34.736 -21.867 -18.801  0.00  0.00    +0.060 C 
ATOM      5  C   UNL     1      34.717 -20.074 -20.939  0.00  0.00    +0.027 C 
ATOM      6  C   UNL     1      33.492 -20.500 -20.414  0.00  0.00    +0.022 C 
ATOM      7  C   UNL     1      35.957 -21.428 -19.341  0.00  0.00    +0.016 C 
ATOM      8  C   UNL     1      33.180 -22.796 -17.673  0.00  0.00    +0.229 C 
ATOM      9  C   UNL     1      35.928 -20.528 -20.414  0.00  0.00    +0.007 C 
ATOM     10  H   UNL     1      31.595 -21.896 -18.724  0.00  0.00    +0.150 HD
ATOM     11  H   UNL     1      35.150 -23.209 -17.207  0.00  0.00    +0.150 HD
ENDROOT
BRANCH   8  13
ATOM     12  O   UNL     1      30.313 -22.526 -16.931  0.00  0.00    -0.226 OA
ATOM     13  N   UNL     1      32.434 -23.530 -16.788  0.00  0.00    -0.240 N 
ATOM     14  C   UNL     1      31.084 -23.362 -16.475  0.00  0.00    +0.404 C 
ATOM     15  H   UNL     1      32.902 -24.259 -16.322  0.00  0.00    +0.156 HD
BRANCH  14  16
ATOM     16  O   UNL     1      30.714 -24.298 -15.546  0.00  0.00    -0.431 OA
ATOM     17  C   UNL     1      29.307 -24.426 -15.305  0.00  0.00    +0.257 C 
ENDBRANCH  14  16
ENDBRANCH   8  13
BRANCH   5  18
ATOM     18  S   UNL     1      34.728 -18.924 -22.307  0.00  0.00    -0.114 S 
BRANCH  18  19
ATOM     19  C   UNL     1      35.246 -17.430 -21.436  0.00  0.00    +0.062 C 
BRANCH  19  20
ATOM     20  C   UNL     1      34.050 -16.520 -21.180  0.00  0.00    +0.012 C 
ATOM     21  C   UNL     1      34.494 -15.180 -20.610  0.00  0.00    +0.001 C 
ENDBRANCH  19  20
ENDBRANCH  18  19
ENDBRANCH   5  18
TORSDOF 5
ENDMDL
MODEL 2
REMARK VINA RESULT:      -8.0      2.410      3.181
REMARK  Name = 2082
REMARK  5 active torsions:
REMARK  status: ('A' for Active; 'I' for Inactive)
REMARK    1  A    between atoms: N_4  and  C_10
REMARK    2  A    between atoms: C_7  and  S_18
REMARK    3  A    between atoms: C_12  and  O_16
REMARK    4  A    between atoms: S_18  and  C_19
REMARK    5  A    between atoms: C_19  and  C_20
REMARK                            x       y       z     vdW  Elec       q    Type
REMARK                         _______ _______ _______ _____ _____    ______ ____
ROOT
ATOM      1  N   UNL     1      35.171 -21.991 -18.703  0.00  0.00    -0.302 N 
ATOM      2  N   UNL     1      32.955 -21.960 -18.873  0.00  0.00    -0.302 N 
ATOM      3  C   UNL     1      34.892 -21.073 -19.682  0.00  0.00    +0.061 C 
ATOM      4  C   UNL     1      33.503 -21.071 -19.770  0.00  0.00    +0.060 C 
ATOM      5  C   UNL     1      35.071 -19.429 -21.392  0.00  0.00    +0.027 C 
ATOM      6  C   UNL     1      35.712 -20.268 -20.474  0.00  0.00    +0.022 C 
ATOM      7  C   UNL     1      32.877 -20.222 -20.698  0.00  0.00    +0.016 C 
ATOM      8  C   UNL     1      33.982 -22.493 -18.251  0.00  0.00    +0.229 C 
ATOM      9  C   UNL     1      33.680 -19.405 -21.504  0.00  0.00    +0.007 C 
ATOM     10  H   UNL     1      36.066 -22.244 -18.382  0.00  0.00    +0.150 HD
ATOM     11  H   UNL     1      32.001 -22.154 -18.730  0.00  0.00    +0.150 HD
ENDROOT
BRANCH   8  13
ATOM     12  O   UNL     1      35.415 -22.540 -15.647  0.00  0.00    -0.226 OA
ATOM     13  N   UNL     1      33.962 -23.440 -17.260  0.00  0.00    -0.240 N 
ATOM     14  C   UNL     1      34.657 -23.413 -16.050  0.00  0.00    +0.404 C 
ATOM     15  H   UNL     1      33.392 -24.226 -17.419  0.00  0.00    +0.156 HD
BRANCH  14  16
ATOM     16  O   UNL     1      34.367 -24.546 -15.335  0.00  0.00    -0.431 OA
ATOM     17  C   UNL     1      35.490 -25.293 -14.855  0.00  0.00    +0.257 C 
ENDBRANCH  14  16
ENDBRANCH   8  13
BRANCH   5  18
ATOM     18  S   UNL     1      36.056 -18.371 -22.442  0.00  0.00    -0.114 S 
BRANCH  18  19
ATOM     19  C   UNL     1      34.836 -17.088 -22.798  0.00  0.00    +0.062 C 
BRANCH  19  20
ATOM     20  C   UNL     1      34.661 -16.921 -24.303  0.00  0.00    +0.012 C 
ATOM     21  C   UNL     1      34.430 -18.264 -24.980  0.00  0.00    +0.001 C 
ENDBRANCH  19  20
ENDBRANCH  18  19
ENDBRANCH   5  18
TORSDOF 5
ENDMDL
MODEL 3
REMARK VINA RESULT:      -8.0      8.288     10.783
REMARK  Name = 2082
REMARK  5 active torsions:
REMARK  status: ('A' for Active; 'I' for Inactive)
REMARK    1  A    between atoms: N_4  and  C_10
REMARK    2  A    between atoms: C_7  and  S_18
REMARK    3  A    between atoms: C_12  and  O_16
REMARK    4  A    between atoms: S_18  and  C_19
REMARK    5  A    between atoms: C_19  and  C_20
REMARK                            x       y       z     vdW  Elec       q    Type
REMARK                         _______ _______ _______ _____ _____    ______ ____
ROOT
ATOM      1  N   UNL     1      33.799 -13.184 -24.276  0.00  0.00    -0.302 N 
ATOM      2  N   UNL     1      32.637 -14.174 -22.661  0.00  0.00    -0.302 N 
ATOM      3  C   UNL     1      33.150 -12.170 -23.617  0.00  0.00    +0.061 C 
ATOM      4  C   UNL     1      32.432 -12.814 -22.614  0.00  0.00    +0.060 C 
ATOM      5  C   UNL     1      32.342 -10.043 -22.927  0.00  0.00    +0.027 C 
ATOM      6  C   UNL     1      33.133 -10.789 -23.807  0.00  0.00    +0.022 C 
ATOM      7  C   UNL     1      31.643 -12.049 -21.738  0.00  0.00    +0.016 C 
ATOM      8  C   UNL     1      33.459 -14.360 -23.668  0.00  0.00    +0.229 C 
ATOM      9  C   UNL     1      31.610 -10.659 -21.911  0.00  0.00    +0.007 C 
ATOM     10  H   UNL     1      34.400 -13.082 -25.048  0.00  0.00    +0.150 HD
ATOM     11  H   UNL     1      32.250 -14.859 -22.069  0.00  0.00    +0.150 HD
ENDROOT
BRANCH   8  13
ATOM     12  O   UNL     1      33.587 -15.425 -26.441  0.00  0.00    -0.226 OA
ATOM     13  N   UNL     1      33.969 -15.548 -24.125  0.00  0.00    -0.240 N 
ATOM     14  C   UNL     1      34.005 -16.002 -25.444  0.00  0.00    +0.404 C 
ATOM     15  H   UNL     1      34.355 -16.147 -23.446  0.00  0.00    +0.156 HD
BRANCH  14  16
ATOM     16  O   UNL     1      34.597 -17.237 -25.483  0.00  0.00    -0.431 OA
ATOM     17  C   UNL     1      34.948 -17.808 -24.217  0.00  0.00    +0.257 C 
ENDBRANCH  14  16
ENDBRANCH   8  13
BRANCH   5  18
ATOM     18  S   UNL     1      32.268  -8.267 -23.111  0.00  0.00    -0.114 S 
BRANCH  18  19
ATOM     19  C   UNL     1      33.846  -7.824 -22.354  0.00  0.00    +0.062 C 
BRANCH  19  20
ATOM     20  C   UNL     1      34.889  -7.531 -23.426  0.00  0.00    +0.012 C 
ATOM     21  C   UNL     1      34.268  -6.807 -24.612  0.00  0.00    +0.001 C 
ENDBRANCH  19  20
ENDBRANCH  18  19
ENDBRANCH   5  18
TORSDOF 5
ENDMDL
MODEL 4
REMARK VINA RESULT:      -7.9      5.118      6.367
REMARK  Name = 2082
REMARK  5 active torsions:
REMARK  status: ('A' for Active; 'I' for Inactive)
REMARK    1  A    between atoms: N_4  and  C_10
REMARK    2  A    between atoms: C_7  and  S_18
REMARK    3  A    between atoms: C_12  and  O_16
REMARK    4  A    between atoms: S_18  and  C_19
REMARK    5  A    between atoms: C_19  and  C_20
REMARK                            x       y       z     vdW  Elec       q    Type
REMARK                         _______ _______ _______ _____ _____    ______ ____
ROOT
ATOM      1  N   UNL     1      30.377 -22.883 -14.808  0.00  0.00    -0.302 N 
ATOM      2  N   UNL     1      30.665 -22.694 -17.004  0.00  0.00    -0.302 N 
ATOM      3  C   UNL     1      31.697 -23.181 -15.031  0.00  0.00    +0.061 C 
ATOM      4  C   UNL     1      31.852 -23.056 -16.409  0.00  0.00    +0.060 C 
ATOM      5  C   UNL     1      33.983 -23.775 -14.758  0.00  0.00    +0.027 C 
ATOM      6  C   UNL     1      32.736 -23.537 -14.171  0.00  0.00    +0.022 C 
ATOM      7  C   UNL     1      33.112 -23.298 -16.981  0.00  0.00    +0.016 C 
ATOM      8  C   UNL     1      29.803 -22.599 -16.016  0.00  0.00    +0.229 C 
ATOM      9  C   UNL     1      34.171 -23.658 -16.137  0.00  0.00    +0.007 C 
ATOM     10  H   UNL     1      29.924 -22.874 -13.934  0.00  0.00    +0.150 HD
ATOM     11  H   UNL     1      30.497 -22.540 -17.961  0.00  0.00    +0.150 HD
ENDROOT
BRANCH   8  13
ATOM     12  O   UNL     1      27.754 -23.409 -18.012  0.00  0.00    -0.226 OA
ATOM     13  N   UNL     1      28.477 -22.263 -16.091  0.00  0.00    -0.240 N 
ATOM     14  C   UNL     1      27.553 -22.673 -17.054  0.00  0.00    +0.404 C 
ATOM     15  H   UNL     1      28.137 -21.667 -15.386  0.00  0.00    +0.156 HD
BRANCH  14  16
ATOM     16  O   UNL     1      26.331 -22.119 -16.774  0.00  0.00    -0.431 OA
ATOM     17  C   UNL     1      25.909 -21.055 -17.636  0.00  0.00    +0.257 C 
ENDBRANCH  14  16
ENDBRANCH   8  13
BRANCH   5  18
ATOM     18  S   UNL     1      35.362 -24.238 -13.720  0.00  0.00    -0.114 S 
BRANCH  18  19
ATOM     19  C   UNL     1      36.500 -24.838 -14.987  0.00  0.00    +0.062 C 
BRANCH  19  20
ATOM     20  C   UNL     1      37.762 -23.984 -15.021  0.00  0.00    +0.012 C 
ATOM     21  C   UNL     1      37.564 -22.749 -15.888  0.00  0.00    +0.001 C 
ENDBRANCH  19  20
ENDBRANCH  18  19
ENDBRANCH   5  18
TORSDOF 5
ENDMDL
MODEL 5
REMARK VINA RESULT:      -7.9      5.958      9.082
REMARK  Name = 2082
REMARK  5 active torsions:
REMARK  status: ('A' for Active; 'I' for Inactive)
REMARK    1  A    between atoms: N_4  and  C_10
REMARK    2  A    between atoms: C_7  and  S_18
REMARK    3  A    between atoms: C_12  and  O_16
REMARK    4  A    between atoms: S_18  and  C_19
REMARK    5  A    between atoms: C_19  and  C_20
REMARK                            x       y       z     vdW  Elec       q    Type
REMARK                         _______ _______ _______ _____ _____    ______ ____
ROOT
ATOM      1  N   UNL     1      34.461 -15.164 -22.235  0.00  0.00    -0.302 N 
ATOM      2  N   UNL     1      34.369 -15.605 -24.411  0.00  0.00    -0.302 N 
ATOM      3  C   UNL     1      34.645 -16.518 -22.341  0.00  0.00    +0.061 C 
ATOM      4  C   UNL     1      34.584 -16.769 -23.709  0.00  0.00    +0.060 C 
ATOM      5  C   UNL     1      35.007 -18.820 -21.865  0.00  0.00    +0.027 C 
ATOM      6  C   UNL     1      34.855 -17.514 -21.387  0.00  0.00    +0.022 C 
ATOM      7  C   UNL     1      34.739 -18.087 -24.170  0.00  0.00    +0.016 C 
ATOM      8  C   UNL     1      34.300 -14.664 -23.497  0.00  0.00    +0.229 C 
ATOM      9  C   UNL     1      34.950 -19.104 -23.231  0.00  0.00    +0.007 C 
ATOM     10  H   UNL     1      34.447 -14.644 -21.399  0.00  0.00    +0.150 HD
ATOM     11  H   UNL     1      34.285 -15.501 -25.386  0.00  0.00    +0.150 HD
ENDROOT
BRANCH   8  13
ATOM     12  O   UNL     1      32.119 -12.914 -22.486  0.00  0.00    -0.226 OA
ATOM     13  N   UNL     1      34.096 -13.322 -23.690  0.00  0.00    -0.240 N 
ATOM     14  C   UNL     1      33.051 -12.544 -23.190  0.00  0.00    +0.404 C 
ATOM     15  H   UNL     1      34.764 -12.855 -24.242  0.00  0.00    +0.156 HD
BRANCH  14  16
ATOM     16  O   UNL     1      33.209 -11.249 -23.609  0.00  0.00    -0.431 OA
ATOM     17  C   UNL     1      34.129 -11.043 -24.688  0.00  0.00    +0.257 C 
ENDBRANCH  14  16
ENDBRANCH   8  13
BRANCH   5  18
ATOM     18  S   UNL     1      35.276 -20.149 -20.701  0.00  0.00    -0.114 S 
BRANCH  18  19
ATOM     19  C   UNL     1      33.566 -20.481 -20.226  0.00  0.00    +0.062 C 
BRANCH  19  20
ATOM     20  C   UNL     1      33.489 -21.718 -19.339  0.00  0.00    +0.012 C 
ATOM     21  C   UNL     1      34.874 -22.155 -18.886  0.00  0.00    +0.001 C 
ENDBRANCH  19  20
ENDBRANCH  18  19
ENDBRANCH   5  18
TORSDOF 5
ENDMDL
MODEL 6
REMARK VINA RESULT:      -7.8      6.025      7.756
REMARK  Name = 2082
REMARK  5 active torsions:
REMARK  status: ('A' for Active; 'I' for Inactive)
REMARK    1  A    between atoms: N_4  and  C_10
REMARK    2  A    between atoms: C_7  and  S_18
REMARK    3  A    between atoms: C_12  and  O_16
REMARK    4  A    between atoms: S_18  and  C_19
REMARK    5  A    between atoms: C_19  and  C_20
REMARK                            x       y       z     vdW  Elec       q    Type
REMARK                         _______ _______ _______ _____ _____    ______ ____
ROOT
ATOM      1  N   UNL     1      33.712 -24.596 -13.083  0.00  0.00    -0.302 N 
ATOM      2  N   UNL     1      34.677 -23.328 -14.632  0.00  0.00    -0.302 N 
ATOM      3  C   UNL     1      32.722 -24.305 -13.987  0.00  0.00    +0.061 C 
ATOM      4  C   UNL     1      33.350 -23.513 -14.944  0.00  0.00    +0.060 C 
ATOM      5  C   UNL     1      30.646 -24.173 -15.138  0.00  0.00    +0.027 C 
ATOM      6  C   UNL     1      31.374 -24.659 -14.047  0.00  0.00    +0.022 C 
ATOM      7  C   UNL     1      32.602 -23.035 -16.034  0.00  0.00    +0.016 C 
ATOM      8  C   UNL     1      34.860 -23.989 -13.511  0.00  0.00    +0.229 C 
ATOM      9  C   UNL     1      31.247 -23.377 -16.115  0.00  0.00    +0.007 C 
ATOM     10  H   UNL     1      33.613 -25.143 -12.271  0.00  0.00    +0.150 HD
ATOM     11  H   UNL     1      35.345 -22.811 -15.138  0.00  0.00    +0.150 HD
ENDROOT
BRANCH   8  13
ATOM     12  O   UNL     1      35.286 -25.089 -10.782  0.00  0.00    -0.226 OA
ATOM     13  N   UNL     1      36.019 -24.113 -12.791  0.00  0.00    -0.240 N 
ATOM     14  C   UNL     1      36.166 -24.640 -11.507  0.00  0.00    +0.404 C 
ATOM     15  H   UNL     1      36.841 -23.796 -13.230  0.00  0.00    +0.156 HD
BRANCH  14  16
ATOM     16  O   UNL     1      37.486 -24.587 -11.143  0.00  0.00    -0.431 OA
ATOM     17  C   UNL     1      38.419 -24.302 -12.192  0.00  0.00    +0.257 C 
ENDBRANCH  14  16
ENDBRANCH   8  13
BRANCH   5  18
ATOM     18  S   UNL     1      28.912 -24.583 -15.282  0.00  0.00    -0.114 S 
BRANCH  18  19
ATOM     19  C   UNL     1      28.620 -24.047 -16.982  0.00  0.00    +0.062 C 
BRANCH  19  20
ATOM     20  C   UNL     1      27.845 -22.734 -17.002  0.00  0.00    +0.012 C 
ATOM     21  C   UNL     1      27.392 -22.344 -15.603  0.00  0.00    +0.001 C 
ENDBRANCH  19  20
ENDBRANCH  18  19
ENDBRANCH   5  18
TORSDOF 5
ENDMDL
MODEL 7
REMARK VINA RESULT:      -7.8      4.402      6.226
REMARK  Name = 2082
REMARK  5 active torsions:
REMARK  status: ('A' for Active; 'I' for Inactive)
REMARK    1  A    between atoms: N_4  and  C_10
REMARK    2  A    between atoms: C_7  and  S_18
REMARK    3  A    between atoms: C_12  and  O_16
REMARK    4  A    between atoms: S_18  and  C_19
REMARK    5  A    between atoms: C_19  and  C_20
REMARK                            x       y       z     vdW  Elec       q    Type
REMARK                         _______ _______ _______ _____ _____    ______ ____
ROOT
ATOM      1  N   UNL     1      35.250 -17.382 -20.769  0.00  0.00    -0.302 N 
ATOM      2  N   UNL     1      35.864 -18.425 -22.633  0.00  0.00    -0.302 N 
ATOM      3  C   UNL     1      34.749 -16.623 -21.796  0.00  0.00    +0.061 C 
ATOM      4  C   UNL     1      35.145 -17.295 -22.948  0.00  0.00    +0.060 C 
ATOM      5  C   UNL     1      33.658 -14.937 -23.070  0.00  0.00    +0.027 C 
ATOM      6  C   UNL     1      34.005 -15.443 -21.813  0.00  0.00    +0.022 C 
ATOM      7  C   UNL     1      34.787 -16.773 -24.203  0.00  0.00    +0.016 C 
ATOM      8  C   UNL     1      35.908 -18.446 -21.320  0.00  0.00    +0.229 C 
ATOM      9  C   UNL     1      34.040 -15.588 -24.245  0.00  0.00    +0.007 C 
ATOM     10  H   UNL     1      35.153 -17.193 -19.808  0.00  0.00    +0.150 HD
ATOM     11  H   UNL     1      36.260 -19.077 -23.256  0.00  0.00    +0.150 HD
ENDROOT
BRANCH   8  13
ATOM     12  O   UNL     1      34.815 -20.973 -20.197  0.00  0.00    -0.226 OA
ATOM     13  N   UNL     1      36.512 -19.378 -20.516  0.00  0.00    -0.240 N 
ATOM     14  C   UNL     1      35.952 -20.553 -20.014  0.00  0.00    +0.404 C 
ATOM     15  H   UNL     1      37.447 -19.198 -20.267  0.00  0.00    +0.156 HD
BRANCH  14  16
ATOM     16  O   UNL     1      36.883 -21.211 -19.253  0.00  0.00    -0.431 OA
ATOM     17  C   UNL     1      36.411 -21.767 -18.021  0.00  0.00    +0.257 C 
ENDBRANCH  14  16
ENDBRANCH   8  13
BRANCH   5  18
ATOM     18  S   UNL     1      32.707 -13.428 -23.172  0.00  0.00    -0.114 S 
BRANCH  18  19
ATOM     19  C   UNL     1      32.280 -13.227 -21.429  0.00  0.00    +0.062 C 
BRANCH  19  20
ATOM     20  C   UNL     1      31.631 -11.868 -21.192  0.00  0.00    +0.012 C 
ATOM     21  C   UNL     1      31.584 -11.535 -19.707  0.00  0.00    +0.001 C 
ENDBRANCH  19  20
ENDBRANCH  18  19
ENDBRANCH   5  18
TORSDOF 5
ENDMDL
MODEL 8
REMARK VINA RESULT:      -7.8      7.470     10.407
REMARK  Name = 2082
REMARK  5 active torsions:
REMARK  status: ('A' for Active; 'I' for Inactive)
REMARK    1  A    between atoms: N_4  and  C_10
REMARK    2  A    between atoms: C_7  and  S_18
REMARK    3  A    between atoms: C_12  and  O_16
REMARK    4  A    between atoms: S_18  and  C_19
REMARK    5  A    between atoms: C_19  and  C_20
REMARK                            x       y       z     vdW  Elec       q    Type
REMARK                         _______ _______ _______ _____ _____    ______ ____
ROOT
ATOM      1  N   UNL     1      34.261 -13.775 -22.920  0.00  0.00    -0.302 N 
ATOM      2  N   UNL     1      33.492 -13.635 -25.000  0.00  0.00    -0.302 N 
ATOM      3  C   UNL     1      34.339 -15.047 -23.424  0.00  0.00    +0.061 C 
ATOM      4  C   UNL     1      33.854 -14.934 -24.724  0.00  0.00    +0.060 C 
ATOM      5  C   UNL     1      34.717 -17.380 -23.695  0.00  0.00    +0.027 C 
ATOM      6  C   UNL     1      34.781 -16.250 -22.872  0.00  0.00    +0.022 C 
ATOM      7  C   UNL     1      33.798 -16.079 -25.536  0.00  0.00    +0.016 C 
ATOM      8  C   UNL     1      33.748 -12.968 -23.897  0.00  0.00    +0.229 C 
ATOM      9  C   UNL     1      34.236 -17.298 -25.003  0.00  0.00    +0.007 C 
ATOM     10  H   UNL     1      34.526 -13.492 -22.014  0.00  0.00    +0.150 HD
ATOM     11  H   UNL     1      33.121 -13.282 -25.841  0.00  0.00    +0.150 HD
ENDROOT
BRANCH   8  13
ATOM     12  O   UNL     1      34.922 -10.619 -25.292  0.00  0.00    -0.226 OA
ATOM     13  N   UNL     1      33.561 -11.631 -23.664  0.00  0.00    -0.240 N 
ATOM     14  C   UNL     1      34.138 -10.562 -24.352  0.00  0.00    +0.404 C 
ATOM     15  H   UNL     1      32.948 -11.397 -22.930  0.00  0.00    +0.156 HD
BRANCH  14  16
ATOM     16  O   UNL     1      33.694  -9.383 -23.813  0.00  0.00    -0.431 OA
ATOM     17  C   UNL     1      32.334  -9.367 -23.364  0.00  0.00    +0.257 C 
ENDBRANCH  14  16
ENDBRANCH   8  13
BRANCH   5  18
ATOM     18  S   UNL     1      35.263 -18.956 -23.056  0.00  0.00    -0.114 S 
BRANCH  18  19
ATOM     19  C   UNL     1      34.908 -18.706 -21.303  0.00  0.00    +0.062 C 
BRANCH  19  20
ATOM     20  C   UNL     1      34.420 -20.003 -20.667  0.00  0.00    +0.012 C 
ATOM     21  C   UNL     1      32.900 -20.050 -20.616  0.00  0.00    +0.001 C 
ENDBRANCH  19  20
ENDBRANCH  18  19
ENDBRANCH   5  18
TORSDOF 5
ENDMDL
MODEL 9
REMARK VINA RESULT:      -7.8      4.623      6.634
REMARK  Name = 2082
REMARK  5 active torsions:
REMARK  status: ('A' for Active; 'I' for Inactive)
REMARK    1  A    between atoms: N_4  and  C_10
REMARK    2  A    between atoms: C_7  and  S_18
REMARK    3  A    between atoms: C_12  and  O_16
REMARK    4  A    between atoms: S_18  and  C_19
REMARK    5  A    between atoms: C_19  and  C_20
REMARK                            x       y       z     vdW  Elec       q    Type
REMARK                         _______ _______ _______ _____ _____    ______ ____
ROOT
ATOM      1  N   UNL     1      35.312 -16.999 -21.590  0.00  0.00    -0.302 N 
ATOM      2  N   UNL     1      35.592 -18.710 -22.980  0.00  0.00    -0.302 N 
ATOM      3  C   UNL     1      34.814 -16.576 -22.796  0.00  0.00    +0.061 C 
ATOM      4  C   UNL     1      35.000 -17.662 -23.647  0.00  0.00    +0.060 C 
ATOM      5  C   UNL     1      33.831 -15.290 -24.539  0.00  0.00    +0.027 C 
ATOM      6  C   UNL     1      34.233 -15.374 -23.202  0.00  0.00    +0.022 C 
ATOM      7  C   UNL     1      34.589 -17.559 -24.987  0.00  0.00    +0.016 C 
ATOM      8  C   UNL     1      35.765 -18.278 -21.752  0.00  0.00    +0.229 C 
ATOM      9  C   UNL     1      34.004 -16.362 -25.417  0.00  0.00    +0.007 C 
ATOM     10  H   UNL     1      35.338 -16.474 -20.758  0.00  0.00    +0.150 HD
ATOM     11  H   UNL     1      35.835 -19.591 -23.345  0.00  0.00    +0.150 HD
ENDROOT
BRANCH   8  13
ATOM     12  O   UNL     1      35.053 -20.933 -20.618  0.00  0.00    -0.226 OA
ATOM     13  N   UNL     1      36.320 -18.954 -20.696  0.00  0.00    -0.240 N 
ATOM     14  C   UNL     1      35.946 -20.205 -20.202  0.00  0.00    +0.404 C 
ATOM     15  H   UNL     1      37.067 -18.508 -20.236  0.00  0.00    +0.156 HD
BRANCH  14  16
ATOM     16  O   UNL     1      36.748 -20.531 -19.139  0.00  0.00    -0.431 OA
ATOM     17  C   UNL     1      36.354 -21.681 -18.382  0.00  0.00    +0.257 C 
ENDBRANCH  14  16
ENDBRANCH   8  13
BRANCH   5  18
ATOM     18  S   UNL     1      33.081 -13.781 -25.132  0.00  0.00    -0.114 S 
BRANCH  18  19
ATOM     19  C   UNL     1      33.838 -12.604 -23.991  0.00  0.00    +0.062 C 
BRANCH  19  20
ATOM     20  C   UNL     1      33.685 -11.180 -24.512  0.00  0.00    +0.012 C 
ATOM     21  C   UNL     1      34.898 -10.762 -25.330  0.00  0.00    +0.001 C 
ENDBRANCH  19  20
ENDBRANCH  18  19
ENDBRANCH   5  18
TORSDOF 5
ENDMDL
