MODEL 1
REMARK VINA RESULT:      -7.2      0.000      0.000
REMARK  Name = 440294
REMARK  2 active torsions:
REMARK  status: ('A' for Active; 'I' for Inactive)
REMARK    1  A    between atoms: C_1  and  O_11
REMARK    2  A    between atoms: C_2  and  O_13
REMARK                            x       y       z     vdW  Elec       q    Type
REMARK                         _______ _______ _______ _____ _____    ______ ____
ROOT
ATOM      1  C   UNL     1      34.479 -14.860 -23.166  0.00  0.00    +0.164 C 
ATOM      2  C   UNL     1      33.967 -14.582 -21.739  0.00  0.00    +0.163 C 
ATOM      3  C   UNL     1      34.534 -16.341 -23.490  0.00  0.00    +0.007 C 
ATOM      4  C   UNL     1      34.776 -17.261 -22.448  0.00  0.00    -0.002 C 
ATOM      5  C   UNL     1      34.508 -15.551 -20.732  0.00  0.00    +0.005 C 
ATOM      6  C   UNL     1      34.897 -16.790 -21.063  0.00  0.00    -0.002 C 
ATOM      7  C   UNL     1      34.449 -16.808 -24.809  0.00  0.00    -0.002 C 
ATOM      8  C   UNL     1      34.910 -18.624 -22.739  0.00  0.00    -0.000 C 
ATOM      9  C   UNL     1      34.573 -18.169 -25.087  0.00  0.00    -0.000 C 
ATOM     10  C   UNL     1      34.804 -19.076 -24.055  0.00  0.00    -0.000 C 
ENDROOT
BRANCH   1  11
ATOM     11  O   UNL     1      33.680 -14.146 -24.105  0.00  0.00    -0.377 OA
ATOM     12  H   UNL     1      32.928 -13.740 -23.646  0.00  0.00    +0.211 HD
ENDBRANCH   1  11
BRANCH   2  13
ATOM     13  O   UNL     1      32.543 -14.668 -21.686  0.00  0.00    -0.377 OA
ATOM     14  H   UNL     1      32.266 -15.580 -21.863  0.00  0.00    +0.211 HD
ENDBRANCH   2  13
TORSDOF 2
ENDMDL
MODEL 2
REMARK VINA RESULT:      -7.1      4.778      6.082
REMARK  Name = 440294
REMARK  2 active torsions:
REMARK  status: ('A' for Active; 'I' for Inactive)
REMARK    1  A    between atoms: C_1  and  O_11
REMARK    2  A    between atoms: C_2  and  O_13
REMARK                            x       y       z     vdW  Elec       q    Type
REMARK                         _______ _______ _______ _____ _____    ______ ____
ROOT
ATOM      1  C   UNL     1      33.597 -21.164 -19.535  0.00  0.00    +0.164 C 
ATOM      2  C   UNL     1      34.225 -22.414 -18.888  0.00  0.00    +0.163 C 
ATOM      3  C   UNL     1      34.589 -20.375 -20.368  0.00  0.00    +0.007 C 
ATOM      4  C   UNL     1      35.952 -20.388 -20.002  0.00  0.00    -0.002 C 
ATOM      5  C   UNL     1      35.609 -22.163 -18.368  0.00  0.00    +0.005 C 
ATOM      6  C   UNL     1      36.405 -21.213 -18.876  0.00  0.00    -0.002 C 
ATOM      7  C   UNL     1      34.173 -19.560 -21.429  0.00  0.00    -0.002 C 
ATOM      8  C   UNL     1      36.871 -19.603 -20.710  0.00  0.00    -0.000 C 
ATOM      9  C   UNL     1      35.098 -18.789 -22.135  0.00  0.00    -0.000 C 
ATOM     10  C   UNL     1      36.444 -18.810 -21.776  0.00  0.00    -0.000 C 
ENDROOT
BRANCH   1  11
ATOM     11  O   UNL     1      32.457 -21.547 -20.299  0.00  0.00    -0.377 OA
ATOM     12  H   UNL     1      32.717 -22.209 -20.958  0.00  0.00    +0.211 HD
ENDBRANCH   1  11
BRANCH   2  13
ATOM     13  O   UNL     1      34.314 -23.483 -19.830  0.00  0.00    -0.377 OA
ATOM     14  H   UNL     1      33.849 -23.236 -20.645  0.00  0.00    +0.211 HD
ENDBRANCH   2  13
TORSDOF 2
ENDMDL
MODEL 3
REMARK VINA RESULT:      -7.1      2.074      3.993
REMARK  Name = 440294
REMARK  2 active torsions:
REMARK  status: ('A' for Active; 'I' for Inactive)
REMARK    1  A    between atoms: C_1  and  O_11
REMARK    2  A    between atoms: C_2  and  O_13
REMARK                            x       y       z     vdW  Elec       q    Type
REMARK                         _______ _______ _______ _____ _____    ______ ____
ROOT
ATOM      1  C   UNL     1      35.549 -17.629 -22.087  0.00  0.00    +0.164 C 
ATOM      2  C   UNL     1      35.118 -19.036 -22.541  0.00  0.00    +0.163 C 
ATOM      3  C   UNL     1      34.824 -16.524 -22.832  0.00  0.00    +0.007 C 
ATOM      4  C   UNL     1      34.407 -16.755 -24.160  0.00  0.00    -0.002 C 
ATOM      5  C   UNL     1      34.927 -19.132 -24.025  0.00  0.00    +0.005 C 
ATOM      6  C   UNL     1      34.611 -18.070 -24.779  0.00  0.00    -0.002 C 
ATOM      7  C   UNL     1      34.645 -15.254 -22.269  0.00  0.00    -0.002 C 
ATOM      8  C   UNL     1      33.807 -15.722 -24.891  0.00  0.00    -0.000 C 
ATOM      9  C   UNL     1      34.037 -14.234 -23.002  0.00  0.00    -0.000 C 
ATOM     10  C   UNL     1      33.619 -14.467 -24.311  0.00  0.00    -0.000 C 
ENDROOT
BRANCH   1  11
ATOM     11  O   UNL     1      35.379 -17.511 -20.677  0.00  0.00    -0.377 OA
ATOM     12  H   UNL     1      34.861 -18.264 -20.351  0.00  0.00    +0.211 HD
ENDBRANCH   1  11
BRANCH   2  13
ATOM     13  O   UNL     1      33.882 -19.409 -21.931  0.00  0.00    -0.377 OA
ATOM     14  H   UNL     1      33.780 -20.373 -21.968  0.00  0.00    +0.211 HD
ENDBRANCH   2  13
TORSDOF 2
ENDMDL
MODEL 4
REMARK VINA RESULT:      -7.0      3.750      4.933
REMARK  Name = 440294
REMARK  2 active torsions:
REMARK  status: ('A' for Active; 'I' for Inactive)
REMARK    1  A    between atoms: C_1  and  O_11
REMARK    2  A    between atoms: C_2  and  O_13
REMARK                            x       y       z     vdW  Elec       q    Type
REMARK                         _______ _______ _______ _____ _____    ______ ____
ROOT
ATOM      1  C   UNL     1      36.475 -18.705 -21.023  0.00  0.00    +0.164 C 
ATOM      2  C   UNL     1      35.857 -17.891 -22.176  0.00  0.00    +0.163 C 
ATOM      3  C   UNL     1      35.581 -19.841 -20.563  0.00  0.00    +0.007 C 
ATOM      4  C   UNL     1      34.181 -19.697 -20.673  0.00  0.00    -0.002 C 
ATOM      5  C   UNL     1      34.385 -17.664 -22.001  0.00  0.00    +0.005 C 
ATOM      6  C   UNL     1      33.610 -18.495 -21.290  0.00  0.00    -0.002 C 
ATOM      7  C   UNL     1      36.105 -20.984 -19.945  0.00  0.00    -0.002 C 
ATOM      8  C   UNL     1      33.337 -20.701 -20.181  0.00  0.00    -0.000 C 
ATOM      9  C   UNL     1      35.256 -21.983 -19.468  0.00  0.00    -0.000 C 
ATOM     10  C   UNL     1      33.875 -21.842 -19.585  0.00  0.00    -0.000 C 
ENDROOT
BRANCH   1  11
ATOM     11  O   UNL     1      37.763 -19.174 -21.409  0.00  0.00    -0.377 OA
ATOM     12  H   UNL     1      38.321 -19.272 -20.621  0.00  0.00    +0.211 HD
ENDBRANCH   1  11
BRANCH   2  13
ATOM     13  O   UNL     1      36.035 -18.563 -23.424  0.00  0.00    -0.377 OA
ATOM     14  H   UNL     1      36.888 -18.308 -23.809  0.00  0.00    +0.211 HD
ENDBRANCH   2  13
TORSDOF 2
ENDMDL
MODEL 5
REMARK VINA RESULT:      -6.9      2.271      4.320
REMARK  Name = 440294
REMARK  2 active torsions:
REMARK  status: ('A' for Active; 'I' for Inactive)
REMARK    1  A    between atoms: C_1  and  O_11
REMARK    2  A    between atoms: C_2  and  O_13
REMARK                            x       y       z     vdW  Elec       q    Type
REMARK                         _______ _______ _______ _____ _____    ______ ____
ROOT
ATOM      1  C   UNL     1      35.703 -17.537 -21.935  0.00  0.00    +0.164 C 
ATOM      2  C   UNL     1      35.421 -18.531 -23.079  0.00  0.00    +0.163 C 
ATOM      3  C   UNL     1      34.722 -16.381 -21.908  0.00  0.00    +0.007 C 
ATOM      4  C   UNL     1      34.154 -15.937 -23.121  0.00  0.00    -0.002 C 
ATOM      5  C   UNL     1      35.032 -17.847 -24.355  0.00  0.00    +0.005 C 
ATOM      6  C   UNL     1      34.457 -16.637 -24.376  0.00  0.00    -0.002 C 
ATOM      7  C   UNL     1      34.442 -15.682 -20.726  0.00  0.00    -0.002 C 
ATOM      8  C   UNL     1      33.309 -14.821 -23.128  0.00  0.00    -0.000 C 
ATOM      9  C   UNL     1      33.590 -14.577 -20.742  0.00  0.00    -0.000 C 
ATOM     10  C   UNL     1      33.025 -14.147 -21.940  0.00  0.00    -0.000 C 
ENDROOT
BRANCH   1  11
ATOM     11  O   UNL     1      35.725 -18.236 -20.693  0.00  0.00    -0.377 OA
ATOM     12  H   UNL     1      35.104 -17.817 -20.076  0.00  0.00    +0.211 HD
ENDBRANCH   1  11
BRANCH   2  13
ATOM     13  O   UNL     1      34.356 -19.416 -22.731  0.00  0.00    -0.377 OA
ATOM     14  H   UNL     1      33.527 -19.093 -23.118  0.00  0.00    +0.211 HD
ENDBRANCH   2  13
TORSDOF 2
ENDMDL
MODEL 6
REMARK VINA RESULT:      -6.8      6.853      8.389
REMARK  Name = 440294
REMARK  2 active torsions:
REMARK  status: ('A' for Active; 'I' for Inactive)
REMARK    1  A    between atoms: C_1  and  O_11
REMARK    2  A    between atoms: C_2  and  O_13
REMARK                            x       y       z     vdW  Elec       q    Type
REMARK                         _______ _______ _______ _____ _____    ______ ____
ROOT
ATOM      1  C   UNL     1      32.325  -7.645 -20.686  0.00  0.00    +0.164 C 
ATOM      2  C   UNL     1      32.838  -7.193 -22.068  0.00  0.00    +0.163 C 
ATOM      3  C   UNL     1      31.980  -9.121 -20.643  0.00  0.00    +0.007 C 
ATOM      4  C   UNL     1      31.523  -9.751 -21.820  0.00  0.00    -0.002 C 
ATOM      5  C   UNL     1      32.079  -7.820 -23.199  0.00  0.00    +0.005 C 
ATOM      6  C   UNL     1      31.456  -9.001 -23.080  0.00  0.00    -0.002 C 
ATOM      7  C   UNL     1      32.010  -9.848 -19.445  0.00  0.00    -0.002 C 
ATOM      8  C   UNL     1      31.124 -11.093 -21.782  0.00  0.00    -0.000 C 
ATOM      9  C   UNL     1      31.620 -11.187 -19.420  0.00  0.00    -0.000 C 
ATOM     10  C   UNL     1      31.178 -11.809 -20.586  0.00  0.00    -0.000 C 
ENDROOT
BRANCH   1  11
ATOM     11  O   UNL     1      33.282  -7.300 -19.689  0.00  0.00    -0.377 OA
ATOM     12  H   UNL     1      32.957  -7.580 -18.819  0.00  0.00    +0.211 HD
ENDBRANCH   1  11
BRANCH   2  13
ATOM     13  O   UNL     1      34.212  -7.540 -22.237  0.00  0.00    -0.377 OA
ATOM     14  H   UNL     1      34.383  -8.399 -21.820  0.00  0.00    +0.211 HD
ENDBRANCH   2  13
TORSDOF 2
ENDMDL
MODEL 7
REMARK VINA RESULT:      -6.8      2.247      4.250
REMARK  Name = 440294
REMARK  2 active torsions:
REMARK  status: ('A' for Active; 'I' for Inactive)
REMARK    1  A    between atoms: C_1  and  O_11
REMARK    2  A    between atoms: C_2  and  O_13
REMARK                            x       y       z     vdW  Elec       q    Type
REMARK                         _______ _______ _______ _____ _____    ______ ____
ROOT
ATOM      1  C   UNL     1      35.401 -16.496 -23.777  0.00  0.00    +0.164 C 
ATOM      2  C   UNL     1      34.713 -16.776 -25.127  0.00  0.00    +0.163 C 
ATOM      3  C   UNL     1      34.478 -15.826 -22.777  0.00  0.00    +0.007 C 
ATOM      4  C   UNL     1      33.455 -14.978 -23.252  0.00  0.00    -0.002 C 
ATOM      5  C   UNL     1      33.820 -15.654 -25.565  0.00  0.00    +0.005 C 
ATOM      6  C   UNL     1      33.247 -14.810 -24.695  0.00  0.00    -0.002 C 
ATOM      7  C   UNL     1      34.677 -15.951 -21.396  0.00  0.00    -0.002 C 
ATOM      8  C   UNL     1      32.643 -14.288 -22.343  0.00  0.00    -0.000 C 
ATOM      9  C   UNL     1      33.857 -15.267 -20.498  0.00  0.00    -0.000 C 
ATOM     10  C   UNL     1      32.842 -14.437 -20.970  0.00  0.00    -0.000 C 
ENDROOT
BRANCH   1  11
ATOM     11  O   UNL     1      35.945 -17.707 -23.260  0.00  0.00    -0.377 OA
ATOM     12  H   UNL     1      35.432 -18.460 -23.595  0.00  0.00    +0.211 HD
ENDBRANCH   1  11
BRANCH   2  13
ATOM     13  O   UNL     1      33.908 -17.953 -25.052  0.00  0.00    -0.377 OA
ATOM     14  H   UNL     1      33.002 -17.710 -24.803  0.00  0.00    +0.211 HD
ENDBRANCH   2  13
TORSDOF 2
ENDMDL
MODEL 8
REMARK VINA RESULT:      -6.8      8.001      9.339
REMARK  Name = 440294
REMARK  2 active torsions:
REMARK  status: ('A' for Active; 'I' for Inactive)
REMARK    1  A    between atoms: C_1  and  O_11
REMARK    2  A    between atoms: C_2  and  O_13
REMARK                            x       y       z     vdW  Elec       q    Type
REMARK                         _______ _______ _______ _____ _____    ______ ____
ROOT
ATOM      1  C   UNL     1      35.030 -23.171 -15.615  0.00  0.00    +0.164 C 
ATOM      2  C   UNL     1      36.454 -23.546 -15.160  0.00  0.00    +0.163 C 
ATOM      3  C   UNL     1      34.982 -22.695 -17.054  0.00  0.00    +0.007 C 
ATOM      4  C   UNL     1      36.106 -22.035 -17.595  0.00  0.00    -0.002 C 
ATOM      5  C   UNL     1      37.494 -22.594 -15.671  0.00  0.00    +0.005 C 
ATOM      6  C   UNL     1      37.326 -21.882 -16.794  0.00  0.00    -0.002 C 
ATOM      7  C   UNL     1      33.817 -22.806 -17.826  0.00  0.00    -0.002 C 
ATOM      8  C   UNL     1      36.052 -21.517 -18.895  0.00  0.00    -0.000 C 
ATOM      9  C   UNL     1      33.777 -22.296 -19.124  0.00  0.00    -0.000 C 
ATOM     10  C   UNL     1      34.892 -21.652 -19.657  0.00  0.00    -0.000 C 
ENDROOT
BRANCH   1  11
ATOM     11  O   UNL     1      34.156 -24.275 -15.398  0.00  0.00    -0.377 OA
ATOM     12  H   UNL     1      33.393 -23.984 -14.874  0.00  0.00    +0.211 HD
ENDBRANCH   1  11
BRANCH   2  13
ATOM     13  O   UNL     1      36.808 -24.849 -15.625  0.00  0.00    -0.377 OA
ATOM     14  H   UNL     1      36.006 -25.382 -15.738  0.00  0.00    +0.211 HD
ENDBRANCH   2  13
TORSDOF 2
ENDMDL
MODEL 9
REMARK VINA RESULT:      -6.6      1.190      2.844
REMARK  Name = 440294
REMARK  2 active torsions:
REMARK  status: ('A' for Active; 'I' for Inactive)
REMARK    1  A    between atoms: C_1  and  O_11
REMARK    2  A    between atoms: C_2  and  O_13
REMARK                            x       y       z     vdW  Elec       q    Type
REMARK                         _______ _______ _______ _____ _____    ______ ____
ROOT
ATOM      1  C   UNL     1      33.107 -14.942 -22.332  0.00  0.00    +0.164 C 
ATOM      2  C   UNL     1      33.207 -14.054 -23.588  0.00  0.00    +0.163 C 
ATOM      3  C   UNL     1      34.099 -16.089 -22.345  0.00  0.00    +0.007 C 
ATOM      4  C   UNL     1      34.493 -16.638 -23.584  0.00  0.00    -0.002 C 
ATOM      5  C   UNL     1      33.420 -14.848 -24.842  0.00  0.00    +0.005 C 
ATOM      6  C   UNL     1      34.004 -16.054 -24.838  0.00  0.00    -0.002 C 
ATOM      7  C   UNL     1      34.556 -16.679 -21.159  0.00  0.00    -0.002 C 
ATOM      8  C   UNL     1      35.346 -17.749 -23.614  0.00  0.00    -0.000 C 
ATOM      9  C   UNL     1      35.413 -17.779 -21.200  0.00  0.00    -0.000 C 
ATOM     10  C   UNL     1      35.807 -18.314 -22.424  0.00  0.00    -0.000 C 
ENDROOT
BRANCH   1  11
ATOM     11  O   UNL     1      33.253 -14.135 -21.167  0.00  0.00    -0.377 OA
ATOM     12  H   UNL     1      32.716 -13.332 -21.261  0.00  0.00    +0.211 HD
ENDBRANCH   1  11
BRANCH   2  13
ATOM     13  O   UNL     1      34.298 -13.140 -23.476  0.00  0.00    -0.377 OA
ATOM     14  H   UNL     1      35.134 -13.617 -23.592  0.00  0.00    +0.211 HD
ENDBRANCH   2  13
TORSDOF 2
ENDMDL
