MODEL 1
REMARK VINA RESULT:      -8.5      0.000      0.000
REMARK  Name = 4601
REMARK  6 active torsions:
REMARK  status: ('A' for Active; 'I' for Inactive)
REMARK    1  A    between atoms: C_1  and  C_2
REMARK    2  A    between atoms: C_1  and  C_9
REMARK    3  A    between atoms: C_1  and  O_15
REMARK    4  A    between atoms: O_15  and  C_16
REMARK    5  A    between atoms: C_16  and  C_17
REMARK    6  A    between atoms: C_17  and  N_18
REMARK                            x       y       z     vdW  Elec       q    Type
REMARK                         _______ _______ _______ _____ _____    ______ ____
ROOT
ATOM      1  C   UNL     1      34.610 -17.866 -21.366  0.00  0.00    +0.159 C 
ENDROOT
BRANCH   1   2
ATOM      2  C   UNL     1      35.060 -19.181 -20.760  0.00  0.00    +0.005 C 
ATOM      3  C   UNL     1      34.125 -20.119 -20.360  0.00  0.00    -0.023 C 
ATOM      4  C   UNL     1      36.419 -19.407 -20.624  0.00  0.00    -0.002 C 
ATOM      5  C   UNL     1      34.562 -21.322 -19.807  0.00  0.00    -0.004 C 
ATOM      6  C   UNL     1      32.658 -19.878 -20.505  0.00  0.00    +0.031 C 
ATOM      7  C   UNL     1      36.856 -20.611 -20.070  0.00  0.00    -0.000 C 
ATOM      8  C   UNL     1      35.928 -21.567 -19.661  0.00  0.00    -0.000 C 
ENDBRANCH   1   2
BRANCH   1   9
ATOM      9  C   UNL     1      34.620 -17.880 -22.879  0.00  0.00    +0.009 C 
ATOM     10  C   UNL     1      34.552 -19.092 -23.544  0.00  0.00    -0.002 C 
ATOM     11  C   UNL     1      34.697 -16.680 -23.564  0.00  0.00    -0.002 C 
ATOM     12  C   UNL     1      34.562 -19.105 -24.939  0.00  0.00    -0.000 C 
ATOM     13  C   UNL     1      34.706 -16.693 -24.960  0.00  0.00    -0.000 C 
ATOM     14  C   UNL     1      34.639 -17.905 -25.646  0.00  0.00    -0.000 C 
ENDBRANCH   1   9
BRANCH   1  15
ATOM     15  O   UNL     1      35.377 -16.772 -20.882  0.00  0.00    -0.350 OA
BRANCH  15  16
ATOM     16  C   UNL     1      34.583 -15.876 -20.115  0.00  0.00    +0.120 C 
BRANCH  16  17
ATOM     17  C   UNL     1      34.351 -14.612 -20.928  0.00  0.00    -0.045 C 
BRANCH  17  18
ATOM     18  N   UNL     1      32.924 -14.303 -21.006  0.00  0.00    +0.386 N 
ATOM     19  C   UNL     1      32.127 -15.469 -20.627  0.00  0.00    -0.101 C 
ATOM     20  C   UNL     1      32.570 -13.859 -22.354  0.00  0.00    -0.101 C 
ATOM     21  H   UNL     1      32.722 -13.547 -20.352  0.00  0.00    -0.080 HD
ENDBRANCH  17  18
ENDBRANCH  16  17
ENDBRANCH  15  16
ENDBRANCH   1  15
TORSDOF 6
ENDMDL
MODEL 2
REMARK VINA RESULT:      -8.5      1.702      3.800
REMARK  Name = 4601
REMARK  6 active torsions:
REMARK  status: ('A' for Active; 'I' for Inactive)
REMARK    1  A    between atoms: C_1  and  C_2
REMARK    2  A    between atoms: C_1  and  C_9
REMARK    3  A    between atoms: C_1  and  O_15
REMARK    4  A    between atoms: O_15  and  C_16
REMARK    5  A    between atoms: C_16  and  C_17
REMARK    6  A    between atoms: C_17  and  N_18
REMARK                            x       y       z     vdW  Elec       q    Type
REMARK                         _______ _______ _______ _____ _____    ______ ____
ROOT
ATOM      1  C   UNL     1      34.763 -18.392 -21.846  0.00  0.00    +0.159 C 
ENDROOT
BRANCH   1   2
ATOM      2  C   UNL     1      34.547 -19.600 -20.955  0.00  0.00    +0.005 C 
ATOM      3  C   UNL     1      35.626 -20.222 -20.354  0.00  0.00    -0.023 C 
ATOM      4  C   UNL     1      33.252 -20.051 -20.767  0.00  0.00    -0.002 C 
ATOM      5  C   UNL     1      35.404 -21.331 -19.538  0.00  0.00    -0.004 C 
ATOM      6  C   UNL     1      37.025 -19.739 -20.555  0.00  0.00    +0.031 C 
ATOM      7  C   UNL     1      33.029 -21.160 -19.951  0.00  0.00    -0.000 C 
ATOM      8  C   UNL     1      34.105 -21.800 -19.337  0.00  0.00    -0.000 C 
ENDBRANCH   1   2
BRANCH   1   9
ATOM      9  C   UNL     1      34.127 -17.133 -21.297  0.00  0.00    +0.009 C 
ATOM     10  C   UNL     1      32.747 -17.046 -21.233  0.00  0.00    -0.002 C 
ATOM     11  C   UNL     1      34.940 -16.098 -20.869  0.00  0.00    -0.002 C 
ATOM     12  C   UNL     1      32.162 -15.885 -20.726  0.00  0.00    -0.000 C 
ATOM     13  C   UNL     1      34.355 -14.938 -20.362  0.00  0.00    -0.000 C 
ATOM     14  C   UNL     1      32.965 -14.832 -20.292  0.00  0.00    -0.000 C 
ENDBRANCH   1   9
BRANCH   1  15
ATOM     15  O   UNL     1      34.312 -18.628 -23.173  0.00  0.00    -0.350 OA
BRANCH  15  16
ATOM     16  C   UNL     1      34.993 -17.803 -24.110  0.00  0.00    +0.120 C 
BRANCH  16  17
ATOM     17  C   UNL     1      34.010 -17.375 -25.188  0.00  0.00    -0.045 C 
BRANCH  17  18
ATOM     18  N   UNL     1      34.092 -15.933 -25.418  0.00  0.00    +0.386 N 
ATOM     19  C   UNL     1      33.977 -15.207 -24.153  0.00  0.00    -0.101 C 
ATOM     20  C   UNL     1      33.049 -15.504 -26.350  0.00  0.00    -0.101 C 
ATOM     21  H   UNL     1      35.000 -15.723 -25.830  0.00  0.00    -0.080 HD
ENDBRANCH  17  18
ENDBRANCH  16  17
ENDBRANCH  15  16
ENDBRANCH   1  15
TORSDOF 6
ENDMDL
MODEL 3
REMARK VINA RESULT:      -8.0      8.088     10.568
REMARK  Name = 4601
REMARK  6 active torsions:
REMARK  status: ('A' for Active; 'I' for Inactive)
REMARK    1  A    between atoms: C_1  and  C_2
REMARK    2  A    between atoms: C_1  and  C_9
REMARK    3  A    between atoms: C_1  and  O_15
REMARK    4  A    between atoms: O_15  and  C_16
REMARK    5  A    between atoms: C_16  and  C_17
REMARK    6  A    between atoms: C_17  and  N_18
REMARK                            x       y       z     vdW  Elec       q    Type
REMARK                         _______ _______ _______ _____ _____    ______ ____
ROOT
ATOM      1  C   UNL     1      32.329  -8.682 -22.684  0.00  0.00    +0.159 C 
ENDROOT
BRANCH   1   2
ATOM      2  C   UNL     1      33.287  -9.401 -23.614  0.00  0.00    +0.005 C 
ATOM      3  C   UNL     1      34.469  -8.795 -23.999  0.00  0.00    -0.023 C 
ATOM      4  C   UNL     1      32.942 -10.666 -24.059  0.00  0.00    -0.002 C 
ATOM      5  C   UNL     1      35.335  -9.474 -24.855  0.00  0.00    -0.004 C 
ATOM      6  C   UNL     1      34.844  -7.430 -23.523  0.00  0.00    +0.031 C 
ATOM      7  C   UNL     1      33.808 -11.346 -24.915  0.00  0.00    -0.000 C 
ATOM      8  C   UNL     1      35.004 -10.751 -25.313  0.00  0.00    -0.000 C 
ENDBRANCH   1   2
BRANCH   1   9
ATOM      9  C   UNL     1      31.960  -9.504 -21.468  0.00  0.00    +0.009 C 
ATOM     10  C   UNL     1      32.356  -9.071 -20.214  0.00  0.00    -0.002 C 
ATOM     11  C   UNL     1      31.235 -10.670 -21.637  0.00  0.00    -0.002 C 
ATOM     12  C   UNL     1      32.015  -9.828 -19.094  0.00  0.00    -0.000 C 
ATOM     13  C   UNL     1      30.894 -11.428 -20.516  0.00  0.00    -0.000 C 
ATOM     14  C   UNL     1      31.285 -11.007 -19.245  0.00  0.00    -0.000 C 
ENDBRANCH   1   9
BRANCH   1  15
ATOM     15  O   UNL     1      31.154  -8.258 -23.362  0.00  0.00    -0.350 OA
BRANCH  15  16
ATOM     16  C   UNL     1      30.892  -6.878 -23.138  0.00  0.00    +0.120 C 
BRANCH  16  17
ATOM     17  C   UNL     1      31.200  -6.110 -24.413  0.00  0.00    -0.045 C 
BRANCH  17  18
ATOM     18  N   UNL     1      30.800  -4.709 -24.282  0.00  0.00    +0.386 N 
ATOM     19  C   UNL     1      31.434  -3.898 -25.320  0.00  0.00    -0.101 C 
ATOM     20  C   UNL     1      31.144  -4.201 -22.955  0.00  0.00    -0.101 C 
ATOM     21  H   UNL     1      29.788  -4.651 -24.399  0.00  0.00    -0.080 HD
ENDBRANCH  17  18
ENDBRANCH  16  17
ENDBRANCH  15  16
ENDBRANCH   1  15
TORSDOF 6
ENDMDL
MODEL 4
REMARK VINA RESULT:      -7.9      3.226      6.773
REMARK  Name = 4601
REMARK  6 active torsions:
REMARK  status: ('A' for Active; 'I' for Inactive)
REMARK    1  A    between atoms: C_1  and  C_2
REMARK    2  A    between atoms: C_1  and  C_9
REMARK    3  A    between atoms: C_1  and  O_15
REMARK    4  A    between atoms: O_15  and  C_16
REMARK    5  A    between atoms: C_16  and  C_17
REMARK    6  A    between atoms: C_17  and  N_18
REMARK                            x       y       z     vdW  Elec       q    Type
REMARK                         _______ _______ _______ _____ _____    ______ ____
ROOT
ATOM      1  C   UNL     1      33.360 -13.369 -23.041  0.00  0.00    +0.159 C 
ENDROOT
BRANCH   1   2
ATOM      2  C   UNL     1      33.362 -13.327 -24.557  0.00  0.00    +0.005 C 
ATOM      3  C   UNL     1      33.831 -12.208 -25.221  0.00  0.00    -0.023 C 
ATOM      4  C   UNL     1      32.884 -14.431 -25.243  0.00  0.00    -0.002 C 
ATOM      5  C   UNL     1      33.822 -12.191 -26.615  0.00  0.00    -0.004 C 
ATOM      6  C   UNL     1      34.345 -11.015 -24.485  0.00  0.00    +0.031 C 
ATOM      7  C   UNL     1      32.876 -14.414 -26.638  0.00  0.00    -0.000 C 
ATOM      8  C   UNL     1      33.345 -13.295 -27.324  0.00  0.00    -0.000 C 
ENDBRANCH   1   2
BRANCH   1   9
ATOM      9  C   UNL     1      34.007 -14.620 -22.486  0.00  0.00    +0.009 C 
ATOM     10  C   UNL     1      33.912 -14.885 -21.131  0.00  0.00    -0.002 C 
ATOM     11  C   UNL     1      34.679 -15.471 -23.346  0.00  0.00    -0.002 C 
ATOM     12  C   UNL     1      34.507 -16.038 -20.619  0.00  0.00    -0.000 C 
ATOM     13  C   UNL     1      35.274 -16.624 -22.835  0.00  0.00    -0.000 C 
ATOM     14  C   UNL     1      35.189 -16.907 -21.471  0.00  0.00    -0.000 C 
ENDBRANCH   1   9
BRANCH   1  15
ATOM     15  O   UNL     1      32.051 -13.220 -22.510  0.00  0.00    -0.350 OA
BRANCH  15  16
ATOM     16  C   UNL     1      31.803 -11.880 -22.101  0.00  0.00    +0.120 C 
BRANCH  16  17
ATOM     17  C   UNL     1      31.524 -11.871 -20.606  0.00  0.00    -0.045 C 
BRANCH  17  18
ATOM     18  N   UNL     1      31.185 -10.523 -20.153  0.00  0.00    +0.386 N 
ATOM     19  C   UNL     1      31.846  -9.521 -20.989  0.00  0.00    -0.101 C 
ATOM     20  C   UNL     1      31.561 -10.345 -18.750  0.00  0.00    -0.101 C 
ATOM     21  H   UNL     1      30.177 -10.398 -20.236  0.00  0.00    -0.080 HD
ENDBRANCH  17  18
ENDBRANCH  16  17
ENDBRANCH  15  16
ENDBRANCH   1  15
TORSDOF 6
ENDMDL
MODEL 5
REMARK VINA RESULT:      -7.9      3.742      7.218
REMARK  Name = 4601
REMARK  6 active torsions:
REMARK  status: ('A' for Active; 'I' for Inactive)
REMARK    1  A    between atoms: C_1  and  C_2
REMARK    2  A    between atoms: C_1  and  C_9
REMARK    3  A    between atoms: C_1  and  O_15
REMARK    4  A    between atoms: O_15  and  C_16
REMARK    5  A    between atoms: C_16  and  C_17
REMARK    6  A    between atoms: C_17  and  N_18
REMARK                            x       y       z     vdW  Elec       q    Type
REMARK                         _______ _______ _______ _____ _____    ______ ____
ROOT
ATOM      1  C   UNL     1      33.101 -12.814 -23.021  0.00  0.00    +0.159 C 
ENDROOT
BRANCH   1   2
ATOM      2  C   UNL     1      33.235 -12.958 -24.525  0.00  0.00    +0.005 C 
ATOM      3  C   UNL     1      33.834 -11.957 -25.269  0.00  0.00    -0.023 C 
ATOM      4  C   UNL     1      32.745 -14.109 -25.118  0.00  0.00    -0.002 C 
ATOM      5  C   UNL     1      33.946 -12.111 -26.650  0.00  0.00    -0.004 C 
ATOM      6  C   UNL     1      34.363 -10.714 -24.632  0.00  0.00    +0.031 C 
ATOM      7  C   UNL     1      32.858 -14.263 -26.500  0.00  0.00    -0.000 C 
ATOM      8  C   UNL     1      33.458 -13.265 -27.266  0.00  0.00    -0.000 C 
ENDBRANCH   1   2
BRANCH   1   9
ATOM      9  C   UNL     1      33.358 -14.109 -22.280  0.00  0.00    +0.009 C 
ATOM     10  C   UNL     1      32.383 -14.606 -21.432  0.00  0.00    -0.002 C 
ATOM     11  C   UNL     1      34.560 -14.767 -22.468  0.00  0.00    -0.002 C 
ATOM     12  C   UNL     1      32.619 -15.800 -20.750  0.00  0.00    -0.000 C 
ATOM     13  C   UNL     1      34.796 -15.961 -21.785  0.00  0.00    -0.000 C 
ATOM     14  C   UNL     1      33.825 -16.476 -20.926  0.00  0.00    -0.000 C 
ENDBRANCH   1   9
BRANCH   1  15
ATOM     15  O   UNL     1      31.836 -12.283 -22.653  0.00  0.00    -0.350 OA
BRANCH  15  16
ATOM     16  C   UNL     1      31.971 -11.188 -21.755  0.00  0.00    +0.120 C 
BRANCH  16  17
ATOM     17  C   UNL     1      31.569  -9.913 -22.477  0.00  0.00    -0.045 C 
BRANCH  17  18
ATOM     18  N   UNL     1      31.844  -8.740 -21.647  0.00  0.00    +0.386 N 
ATOM     19  C   UNL     1      32.981  -7.991 -22.182  0.00  0.00    -0.101 C 
ATOM     20  C   UNL     1      32.102  -9.141 -20.265  0.00  0.00    -0.101 C 
ATOM     21  H   UNL     1      31.024  -8.135 -21.661  0.00  0.00    -0.080 HD
ENDBRANCH  17  18
ENDBRANCH  16  17
ENDBRANCH  15  16
ENDBRANCH   1  15
TORSDOF 6
ENDMDL
MODEL 6
REMARK VINA RESULT:      -7.7      6.661      9.503
REMARK  Name = 4601
REMARK  6 active torsions:
REMARK  status: ('A' for Active; 'I' for Inactive)
REMARK    1  A    between atoms: C_1  and  C_2
REMARK    2  A    between atoms: C_1  and  C_9
REMARK    3  A    between atoms: C_1  and  O_15
REMARK    4  A    between atoms: O_15  and  C_16
REMARK    5  A    between atoms: C_16  and  C_17
REMARK    6  A    between atoms: C_17  and  N_18
REMARK                            x       y       z     vdW  Elec       q    Type
REMARK                         _______ _______ _______ _____ _____    ______ ____
ROOT
ATOM      1  C   UNL     1      34.809 -24.120 -14.894  0.00  0.00    +0.159 C 
ENDROOT
BRANCH   1   2
ATOM      2  C   UNL     1      35.963 -24.301 -13.928  0.00  0.00    +0.005 C 
ATOM      3  C   UNL     1      36.808 -25.390 -14.048  0.00  0.00    -0.023 C 
ATOM      4  C   UNL     1      36.139 -23.352 -12.935  0.00  0.00    -0.002 C 
ATOM      5  C   UNL     1      37.862 -25.535 -13.148  0.00  0.00    -0.004 C 
ATOM      6  C   UNL     1      36.619 -26.415 -15.117  0.00  0.00    +0.031 C 
ATOM      7  C   UNL     1      37.195 -23.498 -12.034  0.00  0.00    -0.000 C 
ATOM      8  C   UNL     1      38.056 -24.589 -12.141  0.00  0.00    -0.000 C 
ENDBRANCH   1   2
BRANCH   1   9
ATOM      9  C   UNL     1      35.181 -23.294 -16.108  0.00  0.00    +0.009 C 
ATOM     10  C   UNL     1      36.434 -22.709 -16.168  0.00  0.00    -0.002 C 
ATOM     11  C   UNL     1      34.260 -23.144 -17.129  0.00  0.00    -0.002 C 
ATOM     12  C   UNL     1      36.776 -21.949 -17.287  0.00  0.00    -0.000 C 
ATOM     13  C   UNL     1      34.602 -22.384 -18.248  0.00  0.00    -0.000 C 
ATOM     14  C   UNL     1      35.860 -21.786 -18.326  0.00  0.00    -0.000 C 
ENDBRANCH   1   9
BRANCH   1  15
ATOM     15  O   UNL     1      33.668 -23.563 -14.256  0.00  0.00    -0.350 OA
BRANCH  15  16
ATOM     16  C   UNL     1      32.697 -24.559 -13.961  0.00  0.00    +0.120 C 
BRANCH  16  17
ATOM     17  C   UNL     1      31.315 -23.930 -14.035  0.00  0.00    -0.045 C 
BRANCH  17  18
ATOM     18  N   UNL     1      30.682 -24.224 -15.320  0.00  0.00    +0.386 N 
ATOM     19  C   UNL     1      30.675 -23.034 -16.170  0.00  0.00    -0.101 C 
ATOM     20  C   UNL     1      29.319 -24.715 -15.118  0.00  0.00    -0.101 C 
ATOM     21  H   UNL     1      31.222 -24.952 -15.788  0.00  0.00    -0.080 HD
ENDBRANCH  17  18
ENDBRANCH  16  17
ENDBRANCH  15  16
ENDBRANCH   1  15
TORSDOF 6
ENDMDL
MODEL 7
REMARK VINA RESULT:      -7.7      5.202      9.657
REMARK  Name = 4601
REMARK  6 active torsions:
REMARK  status: ('A' for Active; 'I' for Inactive)
REMARK    1  A    between atoms: C_1  and  C_2
REMARK    2  A    between atoms: C_1  and  C_9
REMARK    3  A    between atoms: C_1  and  O_15
REMARK    4  A    between atoms: O_15  and  C_16
REMARK    5  A    between atoms: C_16  and  C_17
REMARK    6  A    between atoms: C_17  and  N_18
REMARK                            x       y       z     vdW  Elec       q    Type
REMARK                         _______ _______ _______ _____ _____    ______ ____
ROOT
ATOM      1  C   UNL     1      32.577  -9.867 -22.635  0.00  0.00    +0.159 C 
ENDROOT
BRANCH   1   2
ATOM      2  C   UNL     1      31.993  -8.469 -22.684  0.00  0.00    +0.005 C 
ATOM      3  C   UNL     1      32.054  -7.650 -21.570  0.00  0.00    -0.023 C 
ATOM      4  C   UNL     1      31.406  -8.046 -23.865  0.00  0.00    -0.002 C 
ATOM      5  C   UNL     1      31.511  -6.368 -21.639  0.00  0.00    -0.004 C 
ATOM      6  C   UNL     1      32.685  -8.104 -20.295  0.00  0.00    +0.031 C 
ATOM      7  C   UNL     1      30.863  -6.763 -23.933  0.00  0.00    -0.000 C 
ATOM      8  C   UNL     1      30.915  -5.924 -22.820  0.00  0.00    -0.000 C 
ENDBRANCH   1   2
BRANCH   1   9
ATOM      9  C   UNL     1      33.513 -10.156 -23.789  0.00  0.00    +0.009 C 
ATOM     10  C   UNL     1      33.275 -11.259 -24.592  0.00  0.00    -0.002 C 
ATOM     11  C   UNL     1      34.585  -9.311 -24.016  0.00  0.00    -0.002 C 
ATOM     12  C   UNL     1      34.137 -11.524 -25.656  0.00  0.00    -0.000 C 
ATOM     13  C   UNL     1      35.447  -9.577 -25.080  0.00  0.00    -0.000 C 
ATOM     14  C   UNL     1      35.223 -10.684 -25.899  0.00  0.00    -0.000 C 
ENDBRANCH   1   9
BRANCH   1  15
ATOM     15  O   UNL     1      31.562 -10.860 -22.569  0.00  0.00    -0.350 OA
BRANCH  15  16
ATOM     16  C   UNL     1      31.769 -11.746 -21.475  0.00  0.00    +0.120 C 
BRANCH  16  17
ATOM     17  C   UNL     1      31.994 -13.147 -22.019  0.00  0.00    -0.045 C 
BRANCH  17  18
ATOM     18  N   UNL     1      33.190 -13.746 -21.426  0.00  0.00    +0.386 N 
ATOM     19  C   UNL     1      34.097 -14.217 -22.473  0.00  0.00    -0.101 C 
ATOM     20  C   UNL     1      32.824 -14.845 -20.535  0.00  0.00    -0.101 C 
ATOM     21  H   UNL     1      33.671 -13.032 -20.880  0.00  0.00    -0.080 HD
ENDBRANCH  17  18
ENDBRANCH  16  17
ENDBRANCH  15  16
ENDBRANCH   1  15
TORSDOF 6
ENDMDL
MODEL 8
REMARK VINA RESULT:      -7.6      0.726      2.074
REMARK  Name = 4601
REMARK  6 active torsions:
REMARK  status: ('A' for Active; 'I' for Inactive)
REMARK    1  A    between atoms: C_1  and  C_2
REMARK    2  A    between atoms: C_1  and  C_9
REMARK    3  A    between atoms: C_1  and  O_15
REMARK    4  A    between atoms: O_15  and  C_16
REMARK    5  A    between atoms: C_16  and  C_17
REMARK    6  A    between atoms: C_17  and  N_18
REMARK                            x       y       z     vdW  Elec       q    Type
REMARK                         _______ _______ _______ _____ _____    ______ ____
ROOT
ATOM      1  C   UNL     1      34.280 -18.008 -21.378  0.00  0.00    +0.159 C 
ENDROOT
BRANCH   1   2
ATOM      2  C   UNL     1      34.459 -19.363 -20.721  0.00  0.00    +0.005 C 
ATOM      3  C   UNL     1      35.727 -19.882 -20.529  0.00  0.00    -0.023 C 
ATOM      4  C   UNL     1      33.325 -20.053 -20.325  0.00  0.00    -0.002 C 
ATOM      5  C   UNL     1      35.867 -21.129 -19.923  0.00  0.00    -0.004 C 
ATOM      6  C   UNL     1      36.951 -19.141 -20.957  0.00  0.00    +0.031 C 
ATOM      7  C   UNL     1      33.466 -21.301 -19.718  0.00  0.00    -0.000 C 
ATOM      8  C   UNL     1      34.736 -21.839 -19.517  0.00  0.00    -0.000 C 
ENDBRANCH   1   2
BRANCH   1   9
ATOM      9  C   UNL     1      34.461 -18.054 -22.880  0.00  0.00    +0.009 C 
ATOM     10  C   UNL     1      34.672 -16.872 -23.571  0.00  0.00    -0.002 C 
ATOM     11  C   UNL     1      34.411 -19.275 -23.529  0.00  0.00    -0.002 C 
ATOM     12  C   UNL     1      34.839 -16.914 -24.955  0.00  0.00    -0.000 C 
ATOM     13  C   UNL     1      34.579 -19.317 -24.913  0.00  0.00    -0.000 C 
ATOM     14  C   UNL     1      34.792 -18.136 -25.626  0.00  0.00    -0.000 C 
ENDBRANCH   1   9
BRANCH   1  15
ATOM     15  O   UNL     1      35.141 -17.030 -20.812  0.00  0.00    -0.350 OA
BRANCH  15  16
ATOM     16  C   UNL     1      34.404 -15.981 -20.194  0.00  0.00    +0.120 C 
BRANCH  16  17
ATOM     17  C   UNL     1      34.598 -14.708 -21.002  0.00  0.00    -0.045 C 
BRANCH  17  18
ATOM     18  N   UNL     1      33.357 -14.332 -21.679  0.00  0.00    +0.386 N 
ATOM     19  C   UNL     1      33.647 -13.543 -22.876  0.00  0.00    -0.101 C 
ATOM     20  C   UNL     1      32.488 -13.583 -20.772  0.00  0.00    -0.101 C 
ATOM     21  H   UNL     1      32.873 -15.183 -21.962  0.00  0.00    -0.080 HD
ENDBRANCH  17  18
ENDBRANCH  16  17
ENDBRANCH  15  16
ENDBRANCH   1  15
TORSDOF 6
ENDMDL
MODEL 9
REMARK VINA RESULT:      -7.6      5.467     10.465
REMARK  Name = 4601
REMARK  6 active torsions:
REMARK  status: ('A' for Active; 'I' for Inactive)
REMARK    1  A    between atoms: C_1  and  C_2
REMARK    2  A    between atoms: C_1  and  C_9
REMARK    3  A    between atoms: C_1  and  O_15
REMARK    4  A    between atoms: O_15  and  C_16
REMARK    5  A    between atoms: C_16  and  C_17
REMARK    6  A    between atoms: C_17  and  N_18
REMARK                            x       y       z     vdW  Elec       q    Type
REMARK                         _______ _______ _______ _____ _____    ______ ____
ROOT
ATOM      1  C   UNL     1      32.369  -9.626 -23.388  0.00  0.00    +0.159 C 
ENDROOT
BRANCH   1   2
ATOM      2  C   UNL     1      32.274  -8.166 -23.789  0.00  0.00    +0.005 C 
ATOM      3  C   UNL     1      33.418  -7.396 -23.888  0.00  0.00    -0.023 C 
ATOM      4  C   UNL     1      31.020  -7.640 -24.050  0.00  0.00    -0.002 C 
ATOM      5  C   UNL     1      33.307  -6.056 -24.258  0.00  0.00    -0.004 C 
ATOM      6  C   UNL     1      34.772  -7.960 -23.606  0.00  0.00    +0.031 C 
ATOM      7  C   UNL     1      30.908  -6.300 -24.421  0.00  0.00    -0.000 C 
ATOM      8  C   UNL     1      32.051  -5.508 -24.525  0.00  0.00    -0.000 C 
ENDBRANCH   1   2
BRANCH   1   9
ATOM      9  C   UNL     1      31.984  -9.866 -21.944  0.00  0.00    +0.009 C 
ATOM     10  C   UNL     1      31.288 -11.016 -21.614  0.00  0.00    -0.002 C 
ATOM     11  C   UNL     1      32.337  -8.932 -20.987  0.00  0.00    -0.002 C 
ATOM     12  C   UNL     1      30.933 -11.238 -20.283  0.00  0.00    -0.000 C 
ATOM     13  C   UNL     1      31.982  -9.154 -19.656  0.00  0.00    -0.000 C 
ATOM     14  C   UNL     1      31.280 -10.307 -19.305  0.00  0.00    -0.000 C 
ENDBRANCH   1   9
BRANCH   1  15
ATOM     15  O   UNL     1      33.661 -10.160 -23.645  0.00  0.00    -0.350 OA
BRANCH  15  16
ATOM     16  C   UNL     1      33.604 -11.246 -24.561  0.00  0.00    +0.120 C 
BRANCH  16  17
ATOM     17  C   UNL     1      33.945 -12.528 -23.818  0.00  0.00    -0.045 C 
BRANCH  17  18
ATOM     18  N   UNL     1      32.850 -13.492 -23.922  0.00  0.00    +0.386 N 
ATOM     19  C   UNL     1      32.745 -14.280 -22.695  0.00  0.00    -0.101 C 
ATOM     20  C   UNL     1      33.048 -14.369 -25.076  0.00  0.00    -0.101 C 
ATOM     21  H   UNL     1      31.979 -12.978 -24.052  0.00  0.00    -0.080 HD
ENDBRANCH  17  18
ENDBRANCH  16  17
ENDBRANCH  15  16
ENDBRANCH   1  15
TORSDOF 6
ENDMDL
