MODEL 1
REMARK VINA RESULT:      -8.8      0.000      0.000
REMARK  Name = 11248490
REMARK  12 active torsions:
REMARK  status: ('A' for Active; 'I' for Inactive)
REMARK    1  A    between atoms: S_1  and  C_4
REMARK    2  A    between atoms: S_1  and  C_18
REMARK    3  A    between atoms: C_5  and  C_6
REMARK    4  A    between atoms: C_7  and  O_12
REMARK    5  A    between atoms: C_8  and  O_14
REMARK    6  A    between atoms: C_11  and  O_16
REMARK    7  A    between atoms: C_18  and  C_19
REMARK    8  A    between atoms: C_22  and  O_27
REMARK    9  A    between atoms: C_23  and  O_25
REMARK   10  A    between atoms: O_27  and  P_28
REMARK   11  A    between atoms: P_28  and  O_30
REMARK   12  A    between atoms: P_28  and  O_32
REMARK                            x       y       z     vdW  Elec       q    Type
REMARK                         _______ _______ _______ _____ _____    ______ ____
ROOT
ATOM      1  S   UNL     1      35.652 -21.111 -19.801  0.00  0.00    +0.014 S 
ATOM      2  O   UNL     1      35.954 -22.248 -20.655  0.00  0.00    -0.168 OA
ATOM      3  O   UNL     1      36.578 -19.995 -19.710  0.00  0.00    -0.168 OA
ENDROOT
BRANCH   1   4
ATOM      4  C   UNL     1      35.287 -21.675 -18.216  0.00  0.00    +0.123 C 
ATOM      5  C   UNL     1      34.273 -22.551 -18.083  0.00  0.00    +0.026 C 
BRANCH   5   6
ATOM      6  C   UNL     1      33.829 -23.141 -16.825  0.00  0.00    +0.069 C 
ATOM      7  C   UNL     1      34.761 -23.689 -15.944  0.00  0.00    +0.145 C 
ATOM      8  C   UNL     1      32.472 -23.156 -16.501  0.00  0.00    +0.145 C 
ATOM      9  C   UNL     1      34.337 -24.253 -14.741  0.00  0.00    +0.074 C 
ATOM     10  C   UNL     1      32.047 -23.720 -15.299  0.00  0.00    +0.074 C 
ATOM     11  C   UNL     1      32.980 -24.268 -14.419  0.00  0.00    +0.145 C 
BRANCH   7  12
ATOM     12  O   UNL     1      36.094 -23.689 -16.233  0.00  0.00    -0.471 OA
ATOM     13  C   UNL     1      36.990 -23.442 -15.152  0.00  0.00    +0.252 C 
ENDBRANCH   7  12
BRANCH   8  14
ATOM     14  O   UNL     1      31.538 -22.627 -17.343  0.00  0.00    -0.471 OA
ATOM     15  C   UNL     1      30.204 -22.532 -16.851  0.00  0.00    +0.252 C 
ENDBRANCH   8  14
BRANCH  11  16
ATOM     16  O   UNL     1      32.566 -24.818 -13.244  0.00  0.00    -0.471 OA
ATOM     17  C   UNL     1      31.170 -25.086 -13.110  0.00  0.00    +0.252 C 
ENDBRANCH  11  16
ENDBRANCH   5   6
ENDBRANCH   1   4
BRANCH   1  18
ATOM     18  C   UNL     1      34.094 -20.452 -20.344  0.00  0.00    +0.182 C 
BRANCH  18  19
ATOM     19  C   UNL     1      34.380 -19.344 -21.310  0.00  0.00    +0.005 C 
ATOM     20  C   UNL     1      34.237 -18.016 -20.909  0.00  0.00    +0.038 C 
ATOM     21  C   UNL     1      34.788 -19.640 -22.610  0.00  0.00    +0.001 C 
ATOM     22  C   UNL     1      34.502 -16.983 -21.808  0.00  0.00    +0.182 C 
ATOM     23  C   UNL     1      34.910 -17.279 -23.109  0.00  0.00    +0.173 C 
ATOM     24  C   UNL     1      35.053 -18.608 -23.511  0.00  0.00    +0.040 C 
BRANCH  23  25
ATOM     25  O   UNL     1      35.172 -16.280 -23.998  0.00  0.00    -0.468 OA
ATOM     26  C   UNL     1      34.577 -16.388 -25.289  0.00  0.00    +0.253 C 
ENDBRANCH  23  25
BRANCH  22  27
ATOM     27  O   UNL     1      34.357 -15.690 -21.406  0.00  0.00    -0.400 OA
BRANCH  27  28
ATOM     28  P   UNL     1      32.978 -14.846 -21.465  0.00  0.00    +0.528 P 
ATOM     29  O   UNL     1      32.933 -13.629 -20.585  0.00  0.00    -0.216 OA
BRANCH  28  30
ATOM     30  O   UNL     1      31.860 -15.963 -21.118  0.00  0.00    -0.293 OA
ATOM     31  H   UNL     1      31.007 -15.695 -21.497  0.00  0.00    +0.223 HD
ENDBRANCH  28  30
BRANCH  28  32
ATOM     32  O   UNL     1      32.745 -14.577 -23.043  0.00  0.00    -0.293 OA
ATOM     33  H   UNL     1      31.805 -14.692 -23.254  0.00  0.00    +0.223 HD
ENDBRANCH  28  32
ENDBRANCH  27  28
ENDBRANCH  22  27
ENDBRANCH  18  19
ENDBRANCH   1  18
TORSDOF 12
ENDMDL
MODEL 2
REMARK VINA RESULT:      -8.7      0.101      2.466
REMARK  Name = 11248490
REMARK  12 active torsions:
REMARK  status: ('A' for Active; 'I' for Inactive)
REMARK    1  A    between atoms: S_1  and  C_4
REMARK    2  A    between atoms: S_1  and  C_18
REMARK    3  A    between atoms: C_5  and  C_6
REMARK    4  A    between atoms: C_7  and  O_12
REMARK    5  A    between atoms: C_8  and  O_14
REMARK    6  A    between atoms: C_11  and  O_16
REMARK    7  A    between atoms: C_18  and  C_19
REMARK    8  A    between atoms: C_22  and  O_27
REMARK    9  A    between atoms: C_23  and  O_25
REMARK   10  A    between atoms: O_27  and  P_28
REMARK   11  A    between atoms: P_28  and  O_30
REMARK   12  A    between atoms: P_28  and  O_32
REMARK                            x       y       z     vdW  Elec       q    Type
REMARK                         _______ _______ _______ _____ _____    ______ ____
ROOT
ATOM      1  S   UNL     1      35.679 -21.100 -19.789  0.00  0.00    +0.014 S 
ATOM      2  O   UNL     1      36.018 -22.237 -20.628  0.00  0.00    -0.168 OA
ATOM      3  O   UNL     1      36.583 -19.967 -19.689  0.00  0.00    -0.168 OA
ENDROOT
BRANCH   1   4
ATOM      4  C   UNL     1      35.296 -21.660 -18.206  0.00  0.00    +0.123 C 
ATOM      5  C   UNL     1      34.290 -22.547 -18.084  0.00  0.00    +0.026 C 
BRANCH   5   6
ATOM      6  C   UNL     1      33.833 -23.135 -16.831  0.00  0.00    +0.069 C 
ATOM      7  C   UNL     1      32.472 -23.154 -16.524  0.00  0.00    +0.145 C 
ATOM      8  C   UNL     1      34.755 -23.679 -15.937  0.00  0.00    +0.145 C 
ATOM      9  C   UNL     1      32.034 -23.716 -15.326  0.00  0.00    +0.074 C 
ATOM     10  C   UNL     1      34.318 -24.241 -14.738  0.00  0.00    +0.074 C 
ATOM     11  C   UNL     1      32.957 -24.260 -14.433  0.00  0.00    +0.145 C 
BRANCH   7  12
ATOM     12  O   UNL     1      31.546 -22.630 -17.378  0.00  0.00    -0.471 OA
ATOM     13  C   UNL     1      30.207 -22.530 -16.899  0.00  0.00    +0.252 C 
ENDBRANCH   7  12
BRANCH   8  14
ATOM     14  O   UNL     1      36.092 -23.674 -16.209  0.00  0.00    -0.471 OA
ATOM     15  C   UNL     1      36.959 -23.199 -15.183  0.00  0.00    +0.252 C 
ENDBRANCH   8  14
BRANCH  11  16
ATOM     16  O   UNL     1      32.530 -24.809 -13.263  0.00  0.00    -0.471 OA
ATOM     17  C   UNL     1      31.134 -25.082 -13.145  0.00  0.00    +0.252 C 
ENDBRANCH  11  16
ENDBRANCH   5   6
ENDBRANCH   1   4
BRANCH   1  18
ATOM     18  C   UNL     1      34.120 -20.474 -20.364  0.00  0.00    +0.182 C 
BRANCH  18  19
ATOM     19  C   UNL     1      34.403 -19.372 -21.338  0.00  0.00    +0.005 C 
ATOM     20  C   UNL     1      34.215 -18.043 -20.961  0.00  0.00    +0.038 C 
ATOM     21  C   UNL     1      34.855 -19.676 -22.623  0.00  0.00    +0.001 C 
ATOM     22  C   UNL     1      34.478 -17.016 -21.868  0.00  0.00    +0.182 C 
ATOM     23  C   UNL     1      34.928 -17.319 -23.153  0.00  0.00    +0.173 C 
ATOM     24  C   UNL     1      35.117 -18.649 -23.531  0.00  0.00    +0.040 C 
BRANCH  23  25
ATOM     25  O   UNL     1      35.189 -16.327 -24.049  0.00  0.00    -0.468 OA
ATOM     26  C   UNL     1      34.438 -16.333 -25.261  0.00  0.00    +0.253 C 
ENDBRANCH  23  25
BRANCH  22  27
ATOM     27  O   UNL     1      34.288 -15.722 -21.489  0.00  0.00    -0.400 OA
BRANCH  27  28
ATOM     28  P   UNL     1      32.896 -14.908 -21.618  0.00  0.00    +0.528 P 
ATOM     29  O   UNL     1      32.581 -14.389 -22.992  0.00  0.00    -0.216 OA
BRANCH  28  30
ATOM     30  O   UNL     1      33.048 -13.759 -20.489  0.00  0.00    -0.293 OA
ATOM     31  H   UNL     1      33.966 -13.734 -20.176  0.00  0.00    +0.223 HD
ENDBRANCH  28  30
BRANCH  28  32
ATOM     32  O   UNL     1      31.794 -15.903 -20.976  0.00  0.00    -0.293 OA
ATOM     33  H   UNL     1      31.946 -16.805 -21.299  0.00  0.00    +0.223 HD
ENDBRANCH  28  32
ENDBRANCH  27  28
ENDBRANCH  22  27
ENDBRANCH  18  19
ENDBRANCH   1  18
TORSDOF 12
ENDMDL
MODEL 3
REMARK VINA RESULT:      -8.6      2.942      9.850
REMARK  Name = 11248490
REMARK  12 active torsions:
REMARK  status: ('A' for Active; 'I' for Inactive)
REMARK    1  A    between atoms: S_1  and  C_4
REMARK    2  A    between atoms: S_1  and  C_18
REMARK    3  A    between atoms: C_5  and  C_6
REMARK    4  A    between atoms: C_7  and  O_12
REMARK    5  A    between atoms: C_8  and  O_14
REMARK    6  A    between atoms: C_11  and  O_16
REMARK    7  A    between atoms: C_18  and  C_19
REMARK    8  A    between atoms: C_22  and  O_27
REMARK    9  A    between atoms: C_23  and  O_25
REMARK   10  A    between atoms: O_27  and  P_28
REMARK   11  A    between atoms: P_28  and  O_30
REMARK   12  A    between atoms: P_28  and  O_32
REMARK                            x       y       z     vdW  Elec       q    Type
REMARK                         _______ _______ _______ _____ _____    ______ ____
ROOT
ATOM      1  S   UNL     1      36.051 -20.985 -19.928  0.00  0.00    +0.014 S 
ATOM      2  O   UNL     1      36.768 -20.107 -19.019  0.00  0.00    -0.168 OA
ATOM      3  O   UNL     1      36.742 -22.079 -20.588  0.00  0.00    -0.168 OA
ENDROOT
BRANCH   1   4
ATOM      4  C   UNL     1      35.238 -20.033 -21.110  0.00  0.00    +0.123 C 
ATOM      5  C   UNL     1      35.800 -18.861 -21.463  0.00  0.00    +0.026 C 
BRANCH   5   6
ATOM      6  C   UNL     1      35.262 -17.932 -22.449  0.00  0.00    +0.069 C 
ATOM      7  C   UNL     1      35.076 -18.344 -23.769  0.00  0.00    +0.145 C 
ATOM      8  C   UNL     1      34.930 -16.630 -22.074  0.00  0.00    +0.145 C 
ATOM      9  C   UNL     1      34.561 -17.456 -24.712  0.00  0.00    +0.074 C 
ATOM     10  C   UNL     1      34.416 -15.741 -23.017  0.00  0.00    +0.074 C 
ATOM     11  C   UNL     1      34.231 -16.154 -24.336  0.00  0.00    +0.145 C 
BRANCH   7  12
ATOM     12  O   UNL     1      35.390 -19.611 -24.166  0.00  0.00    -0.471 OA
ATOM     13  C   UNL     1      34.624 -20.164 -25.233  0.00  0.00    +0.252 C 
ENDBRANCH   7  12
BRANCH   8  14
ATOM     14  O   UNL     1      35.101 -16.198 -20.791  0.00  0.00    -0.471 OA
ATOM     15  C   UNL     1      34.409 -15.012 -20.410  0.00  0.00    +0.252 C 
ENDBRANCH   8  14
BRANCH  11  16
ATOM     16  O   UNL     1      33.727 -15.286 -25.256  0.00  0.00    -0.471 OA
ATOM     17  C   UNL     1      33.144 -14.082 -24.761  0.00  0.00    +0.252 C 
ENDBRANCH  11  16
ENDBRANCH   5   6
ENDBRANCH   1   4
BRANCH   1  18
ATOM     18  C   UNL     1      34.705 -21.695 -19.013  0.00  0.00    +0.182 C 
BRANCH  18  19
ATOM     19  C   UNL     1      35.267 -22.272 -17.750  0.00  0.00    +0.005 C 
ATOM     20  C   UNL     1      34.478 -23.098 -16.950  0.00  0.00    +0.038 C 
ATOM     21  C   UNL     1      36.578 -21.981 -17.374  0.00  0.00    +0.001 C 
ATOM     22  C   UNL     1      35.001 -23.635 -15.773  0.00  0.00    +0.182 C 
ATOM     23  C   UNL     1      36.312 -23.344 -15.396  0.00  0.00    +0.173 C 
ATOM     24  C   UNL     1      37.101 -22.516 -16.196  0.00  0.00    +0.040 C 
BRANCH  23  25
ATOM     25  O   UNL     1      36.835 -23.861 -14.249  0.00  0.00    -0.468 OA
ATOM     26  C   UNL     1      37.688 -24.996 -14.380  0.00  0.00    +0.253 C 
ENDBRANCH  23  25
BRANCH  22  27
ATOM     27  O   UNL     1      34.221 -24.439 -14.999  0.00  0.00    -0.400 OA
BRANCH  27  28
ATOM     28  P   UNL     1      33.166 -23.922 -13.886  0.00  0.00    +0.528 P 
ATOM     29  O   UNL     1      32.243 -22.826 -14.336  0.00  0.00    -0.216 OA
BRANCH  28  30
ATOM     30  O   UNL     1      34.125 -23.520 -12.646  0.00  0.00    -0.293 OA
ATOM     31  H   UNL     1      34.186 -24.268 -12.029  0.00  0.00    +0.223 HD
ENDBRANCH  28  30
BRANCH  28  32
ATOM     32  O   UNL     1      32.447 -25.274 -13.364  0.00  0.00    -0.293 OA
ATOM     33  H   UNL     1      31.485 -25.159 -13.391  0.00  0.00    +0.223 HD
ENDBRANCH  28  32
ENDBRANCH  27  28
ENDBRANCH  22  27
ENDBRANCH  18  19
ENDBRANCH   1  18
TORSDOF 12
ENDMDL
MODEL 4
REMARK VINA RESULT:      -8.5      2.903      9.847
REMARK  Name = 11248490
REMARK  12 active torsions:
REMARK  status: ('A' for Active; 'I' for Inactive)
REMARK    1  A    between atoms: S_1  and  C_4
REMARK    2  A    between atoms: S_1  and  C_18
REMARK    3  A    between atoms: C_5  and  C_6
REMARK    4  A    between atoms: C_7  and  O_12
REMARK    5  A    between atoms: C_8  and  O_14
REMARK    6  A    between atoms: C_11  and  O_16
REMARK    7  A    between atoms: C_18  and  C_19
REMARK    8  A    between atoms: C_22  and  O_27
REMARK    9  A    between atoms: C_23  and  O_25
REMARK   10  A    between atoms: O_27  and  P_28
REMARK   11  A    between atoms: P_28  and  O_30
REMARK   12  A    between atoms: P_28  and  O_32
REMARK                            x       y       z     vdW  Elec       q    Type
REMARK                         _______ _______ _______ _____ _____    ______ ____
ROOT
ATOM      1  S   UNL     1      35.895 -21.021 -19.919  0.00  0.00    +0.014 S 
ATOM      2  O   UNL     1      36.680 -20.187 -19.024  0.00  0.00    -0.168 OA
ATOM      3  O   UNL     1      36.513 -22.139 -20.610  0.00  0.00    -0.168 OA
ENDROOT
BRANCH   1   4
ATOM      4  C   UNL     1      35.094 -20.018 -21.068  0.00  0.00    +0.123 C 
ATOM      5  C   UNL     1      35.730 -18.903 -21.473  0.00  0.00    +0.026 C 
BRANCH   5   6
ATOM      6  C   UNL     1      35.212 -17.943 -22.442  0.00  0.00    +0.069 C 
ATOM      7  C   UNL     1      34.846 -16.662 -22.028  0.00  0.00    +0.145 C 
ATOM      8  C   UNL     1      35.083 -18.304 -23.783  0.00  0.00    +0.145 C 
ATOM      9  C   UNL     1      34.352 -15.744 -22.953  0.00  0.00    +0.074 C 
ATOM     10  C   UNL     1      34.588 -17.387 -24.709  0.00  0.00    +0.074 C 
ATOM     11  C   UNL     1      34.222 -16.106 -24.293  0.00  0.00    +0.145 C 
BRANCH   7  12
ATOM     12  O   UNL     1      34.962 -16.279 -20.723  0.00  0.00    -0.471 OA
ATOM     13  C   UNL     1      34.544 -14.955 -20.398  0.00  0.00    +0.252 C 
ENDBRANCH   7  12
BRANCH   8  14
ATOM     14  O   UNL     1      35.432 -19.550 -24.216  0.00  0.00    -0.471 OA
ATOM     15  C   UNL     1      34.604 -20.143 -25.213  0.00  0.00    +0.252 C 
ENDBRANCH   8  14
BRANCH  11  16
ATOM     16  O   UNL     1      33.739 -15.211 -25.198  0.00  0.00    -0.471 OA
ATOM     17  C   UNL     1      33.213 -13.988 -24.683  0.00  0.00    +0.252 C 
ENDBRANCH  11  16
ENDBRANCH   5   6
ENDBRANCH   1   4
BRANCH   1  18
ATOM     18  C   UNL     1      34.544 -21.676 -18.971  0.00  0.00    +0.182 C 
BRANCH  18  19
ATOM     19  C   UNL     1      35.115 -22.295 -17.733  0.00  0.00    +0.005 C 
ATOM     20  C   UNL     1      34.317 -23.110 -16.929  0.00  0.00    +0.038 C 
ATOM     21  C   UNL     1      36.443 -22.056 -17.382  0.00  0.00    +0.001 C 
ATOM     22  C   UNL     1      34.848 -23.685 -15.775  0.00  0.00    +0.182 C 
ATOM     23  C   UNL     1      36.176 -23.446 -15.424  0.00  0.00    +0.173 C 
ATOM     24  C   UNL     1      36.975 -22.631 -16.227  0.00  0.00    +0.040 C 
BRANCH  23  25
ATOM     25  O   UNL     1      36.707 -24.002 -14.299  0.00  0.00    -0.468 OA
ATOM     26  C   UNL     1      38.022 -24.544 -14.402  0.00  0.00    +0.253 C 
ENDBRANCH  23  25
BRANCH  22  27
ATOM     27  O   UNL     1      34.059 -24.477 -14.997  0.00  0.00    -0.400 OA
BRANCH  27  28
ATOM     28  P   UNL     1      33.040 -23.945 -13.858  0.00  0.00    +0.528 P 
ATOM     29  O   UNL     1      32.096 -22.863 -14.297  0.00  0.00    -0.216 OA
BRANCH  28  30
ATOM     30  O   UNL     1      34.038 -23.515 -12.659  0.00  0.00    -0.293 OA
ATOM     31  H   UNL     1      34.343 -22.605 -12.804  0.00  0.00    +0.223 HD
ENDBRANCH  28  30
BRANCH  28  32
ATOM     32  O   UNL     1      32.347 -25.291 -13.287  0.00  0.00    -0.293 OA
ATOM     33  H   UNL     1      31.456 -25.083 -12.965  0.00  0.00    +0.223 HD
ENDBRANCH  28  32
ENDBRANCH  27  28
ENDBRANCH  22  27
ENDBRANCH  18  19
ENDBRANCH   1  18
TORSDOF 12
ENDMDL
MODEL 5
REMARK VINA RESULT:      -8.4      1.614      3.131
REMARK  Name = 11248490
REMARK  12 active torsions:
REMARK  status: ('A' for Active; 'I' for Inactive)
REMARK    1  A    between atoms: S_1  and  C_4
REMARK    2  A    between atoms: S_1  and  C_18
REMARK    3  A    between atoms: C_5  and  C_6
REMARK    4  A    between atoms: C_7  and  O_12
REMARK    5  A    between atoms: C_8  and  O_14
REMARK    6  A    between atoms: C_11  and  O_16
REMARK    7  A    between atoms: C_18  and  C_19
REMARK    8  A    between atoms: C_22  and  O_27
REMARK    9  A    between atoms: C_23  and  O_25
REMARK   10  A    between atoms: O_27  and  P_28
REMARK   11  A    between atoms: P_28  and  O_30
REMARK   12  A    between atoms: P_28  and  O_32
REMARK                            x       y       z     vdW  Elec       q    Type
REMARK                         _______ _______ _______ _____ _____    ______ ____
ROOT
ATOM      1  S   UNL     1      33.341 -19.880 -20.868  0.00  0.00    +0.014 S 
ATOM      2  O   UNL     1      33.123 -18.464 -20.620  0.00  0.00    -0.168 OA
ATOM      3  O   UNL     1      32.314 -20.676 -21.518  0.00  0.00    -0.168 OA
ENDROOT
BRANCH   1   4
ATOM      4  C   UNL     1      33.807 -20.647 -19.399  0.00  0.00    +0.123 C 
ATOM      5  C   UNL     1      33.078 -21.701 -18.986  0.00  0.00    +0.026 C 
BRANCH   5   6
ATOM      6  C   UNL     1      33.328 -22.477 -17.777  0.00  0.00    +0.069 C 
ATOM      7  C   UNL     1      32.262 -22.872 -16.968  0.00  0.00    +0.145 C 
ATOM      8  C   UNL     1      34.633 -22.825 -17.428  0.00  0.00    +0.145 C 
ATOM      9  C   UNL     1      32.501 -23.614 -15.812  0.00  0.00    +0.074 C 
ATOM     10  C   UNL     1      34.873 -23.566 -16.272  0.00  0.00    +0.074 C 
ATOM     11  C   UNL     1      33.806 -23.961 -15.464  0.00  0.00    +0.145 C 
BRANCH   7  12
ATOM     12  O   UNL     1      30.976 -22.548 -17.283  0.00  0.00    -0.471 OA
ATOM     13  C   UNL     1      29.964 -22.939 -16.358  0.00  0.00    +0.252 C 
ENDBRANCH   7  12
BRANCH   8  14
ATOM     14  O   UNL     1      35.695 -22.451 -18.199  0.00  0.00    -0.471 OA
ATOM     15  C   UNL     1      36.752 -21.751 -17.548  0.00  0.00    +0.252 C 
ENDBRANCH   8  14
BRANCH  11  16
ATOM     16  O   UNL     1      34.040 -24.686 -14.335  0.00  0.00    -0.471 OA
ATOM     17  C   UNL     1      35.214 -24.365 -13.589  0.00  0.00    +0.252 C 
ENDBRANCH  11  16
ENDBRANCH   5   6
ENDBRANCH   1   4
BRANCH   1  18
ATOM     18  C   UNL     1      34.809 -20.016 -21.857  0.00  0.00    +0.182 C 
BRANCH  18  19
ATOM     19  C   UNL     1      34.726 -18.986 -22.942  0.00  0.00    +0.005 C 
ATOM     20  C   UNL     1      34.978 -17.646 -22.650  0.00  0.00    +0.038 C 
ATOM     21  C   UNL     1      34.395 -19.368 -24.242  0.00  0.00    +0.001 C 
ATOM     22  C   UNL     1      34.900 -16.686 -23.660  0.00  0.00    +0.182 C 
ATOM     23  C   UNL     1      34.568 -17.067 -24.960  0.00  0.00    +0.173 C 
ATOM     24  C   UNL     1      34.315 -18.408 -25.252  0.00  0.00    +0.040 C 
BRANCH  23  25
ATOM     25  O   UNL     1      34.488 -16.140 -25.955  0.00  0.00    -0.468 OA
ATOM     26  C   UNL     1      33.226 -15.506 -26.151  0.00  0.00    +0.253 C 
ENDBRANCH  23  25
BRANCH  22  27
ATOM     27  O   UNL     1      35.146 -15.380 -23.363  0.00  0.00    -0.400 OA
BRANCH  27  28
ATOM     28  P   UNL     1      34.227 -14.453 -22.407  0.00  0.00    +0.528 P 
ATOM     29  O   UNL     1      34.592 -14.475 -20.950  0.00  0.00    -0.216 OA
BRANCH  28  30
ATOM     30  O   UNL     1      32.732 -14.978 -22.730  0.00  0.00    -0.293 OA
ATOM     31  H   UNL     1      32.226 -14.270 -23.159  0.00  0.00    +0.223 HD
ENDBRANCH  28  30
BRANCH  28  32
ATOM     32  O   UNL     1      34.260 -12.999 -23.115  0.00  0.00    -0.293 OA
ATOM     33  H   UNL     1      33.586 -12.963 -23.811  0.00  0.00    +0.223 HD
ENDBRANCH  28  32
ENDBRANCH  27  28
ENDBRANCH  22  27
ENDBRANCH  18  19
ENDBRANCH   1  18
TORSDOF 12
ENDMDL
MODEL 6
REMARK VINA RESULT:      -8.3      2.838      9.722
REMARK  Name = 11248490
REMARK  12 active torsions:
REMARK  status: ('A' for Active; 'I' for Inactive)
REMARK    1  A    between atoms: S_1  and  C_4
REMARK    2  A    between atoms: S_1  and  C_18
REMARK    3  A    between atoms: C_5  and  C_6
REMARK    4  A    between atoms: C_7  and  O_12
REMARK    5  A    between atoms: C_8  and  O_14
REMARK    6  A    between atoms: C_11  and  O_16
REMARK    7  A    between atoms: C_18  and  C_19
REMARK    8  A    between atoms: C_22  and  O_27
REMARK    9  A    between atoms: C_23  and  O_25
REMARK   10  A    between atoms: O_27  and  P_28
REMARK   11  A    between atoms: P_28  and  O_30
REMARK   12  A    between atoms: P_28  and  O_32
REMARK                            x       y       z     vdW  Elec       q    Type
REMARK                         _______ _______ _______ _____ _____    ______ ____
ROOT
ATOM      1  S   UNL     1      36.576 -20.922 -19.655  0.00  0.00    +0.014 S 
ATOM      2  O   UNL     1      36.926 -20.346 -18.368  0.00  0.00    -0.168 OA
ATOM      3  O   UNL     1      37.336 -22.040 -20.189  0.00  0.00    -0.168 OA
ENDROOT
BRANCH   1   4
ATOM      4  C   UNL     1      36.505 -19.670 -20.835  0.00  0.00    +0.123 C 
ATOM      5  C   UNL     1      35.287 -19.264 -21.241  0.00  0.00    +0.026 C 
BRANCH   5   6
ATOM      6  C   UNL     1      35.033 -18.215 -22.222  0.00  0.00    +0.069 C 
ATOM      7  C   UNL     1      34.895 -18.539 -23.572  0.00  0.00    +0.145 C 
ATOM      8  C   UNL     1      34.928 -16.886 -21.812  0.00  0.00    +0.145 C 
ATOM      9  C   UNL     1      34.652 -17.537 -24.509  0.00  0.00    +0.074 C 
ATOM     10  C   UNL     1      34.685 -15.882 -22.749  0.00  0.00    +0.074 C 
ATOM     11  C   UNL     1      34.547 -16.208 -24.098  0.00  0.00    +0.145 C 
BRANCH   7  12
ATOM     12  O   UNL     1      34.993 -19.830 -24.003  0.00  0.00    -0.471 OA
ATOM     13  C   UNL     1      34.753 -20.069 -25.388  0.00  0.00    +0.252 C 
ENDBRANCH   7  12
BRANCH   8  14
ATOM     14  O   UNL     1      35.059 -16.538 -20.499  0.00  0.00    -0.471 OA
ATOM     15  C   UNL     1      34.618 -15.235 -20.128  0.00  0.00    +0.252 C 
ENDBRANCH   8  14
BRANCH  11  16
ATOM     16  O   UNL     1      34.309 -15.229 -25.013  0.00  0.00    -0.471 OA
ATOM     17  C   UNL     1      33.262 -15.460 -25.954  0.00  0.00    +0.252 C 
ENDBRANCH  11  16
ENDBRANCH   5   6
ENDBRANCH   1   4
BRANCH   1  18
ATOM     18  C   UNL     1      34.883 -21.448 -19.548  0.00  0.00    +0.182 C 
BRANCH  18  19
ATOM     19  C   UNL     1      34.710 -22.166 -18.245  0.00  0.00    +0.005 C 
ATOM     20  C   UNL     1      35.728 -22.135 -17.292  0.00  0.00    +0.038 C 
ATOM     21  C   UNL     1      33.532 -22.866 -17.986  0.00  0.00    +0.001 C 
ATOM     22  C   UNL     1      35.568 -22.805 -16.079  0.00  0.00    +0.182 C 
ATOM     23  C   UNL     1      34.390 -23.506 -15.820  0.00  0.00    +0.173 C 
ATOM     24  C   UNL     1      33.372 -23.538 -16.773  0.00  0.00    +0.040 C 
BRANCH  23  25
ATOM     25  O   UNL     1      34.221 -24.165 -14.639  0.00  0.00    -0.468 OA
ATOM     26  C   UNL     1      32.942 -24.063 -14.018  0.00  0.00    +0.253 C 
ENDBRANCH  23  25
BRANCH  22  27
ATOM     27  O   UNL     1      36.569 -22.770 -15.157  0.00  0.00    -0.400 OA
BRANCH  27  28
ATOM     28  P   UNL     1      37.665 -23.938 -14.926  0.00  0.00    +0.528 P 
ATOM     29  O   UNL     1      38.146 -24.096 -13.513  0.00  0.00    -0.216 OA
BRANCH  28  30
ATOM     30  O   UNL     1      38.825 -23.554 -15.988  0.00  0.00    -0.293 OA
ATOM     31  H   UNL     1      38.885 -22.588 -16.065  0.00  0.00    +0.223 HD
ENDBRANCH  28  30
BRANCH  28  32
ATOM     32  O   UNL     1      36.990 -25.251 -15.588  0.00  0.00    -0.293 OA
ATOM     33  H   UNL     1      36.224 -24.986 -16.120  0.00  0.00    +0.223 HD
ENDBRANCH  28  32
ENDBRANCH  27  28
ENDBRANCH  22  27
ENDBRANCH  18  19
ENDBRANCH   1  18
TORSDOF 12
ENDMDL
MODEL 7
REMARK VINA RESULT:      -8.3      7.560     13.626
REMARK  Name = 11248490
REMARK  12 active torsions:
REMARK  status: ('A' for Active; 'I' for Inactive)
REMARK    1  A    between atoms: S_1  and  C_4
REMARK    2  A    between atoms: S_1  and  C_18
REMARK    3  A    between atoms: C_5  and  C_6
REMARK    4  A    between atoms: C_7  and  O_12
REMARK    5  A    between atoms: C_8  and  O_14
REMARK    6  A    between atoms: C_11  and  O_16
REMARK    7  A    between atoms: C_18  and  C_19
REMARK    8  A    between atoms: C_22  and  O_27
REMARK    9  A    between atoms: C_23  and  O_25
REMARK   10  A    between atoms: O_27  and  P_28
REMARK   11  A    between atoms: P_28  and  O_30
REMARK   12  A    between atoms: P_28  and  O_32
REMARK                            x       y       z     vdW  Elec       q    Type
REMARK                         _______ _______ _______ _____ _____    ______ ____
ROOT
ATOM      1  S   UNL     1      33.770 -11.003 -24.333  0.00  0.00    +0.014 S 
ATOM      2  O   UNL     1      35.066 -10.724 -23.736  0.00  0.00    -0.168 OA
ATOM      3  O   UNL     1      33.676 -11.412 -25.724  0.00  0.00    -0.168 OA
ENDROOT
BRANCH   1   4
ATOM      4  C   UNL     1      32.724  -9.663 -24.064  0.00  0.00    +0.123 C 
ATOM      5  C   UNL     1      33.275  -8.522 -23.608  0.00  0.00    +0.026 C 
BRANCH   5   6
ATOM      6  C   UNL     1      32.549  -7.288 -23.333  0.00  0.00    +0.069 C 
ATOM      7  C   UNL     1      32.619  -6.221 -24.230  0.00  0.00    +0.145 C 
ATOM      8  C   UNL     1      31.783  -7.171 -22.173  0.00  0.00    +0.145 C 
ATOM      9  C   UNL     1      31.924  -5.041 -23.967  0.00  0.00    +0.074 C 
ATOM     10  C   UNL     1      31.089  -5.991 -21.909  0.00  0.00    +0.074 C 
ATOM     11  C   UNL     1      31.160  -4.926 -22.806  0.00  0.00    +0.145 C 
BRANCH   7  12
ATOM     12  O   UNL     1      33.359  -6.305 -25.373  0.00  0.00    -0.471 OA
ATOM     13  C   UNL     1      33.339  -5.174 -26.241  0.00  0.00    +0.252 C 
ENDBRANCH   7  12
BRANCH   8  14
ATOM     14  O   UNL     1      31.696  -8.197 -21.277  0.00  0.00    -0.471 OA
ATOM     15  C   UNL     1      32.442  -8.066 -20.070  0.00  0.00    +0.252 C 
ENDBRANCH   8  14
BRANCH  11  16
ATOM     16  O   UNL     1      30.481  -3.774 -22.549  0.00  0.00    -0.471 OA
ATOM     17  C   UNL     1      30.981  -2.579 -23.148  0.00  0.00    +0.252 C 
ENDBRANCH  11  16
ENDBRANCH   5   6
ENDBRANCH   1   4
BRANCH   1  18
ATOM     18  C   UNL     1      33.015 -12.284 -23.361  0.00  0.00    +0.182 C 
BRANCH  18  19
ATOM     19  C   UNL     1      33.489 -13.600 -23.894  0.00  0.00    +0.005 C 
ATOM     20  C   UNL     1      34.299 -14.420 -23.108  0.00  0.00    +0.038 C 
ATOM     21  C   UNL     1      33.121 -14.006 -25.177  0.00  0.00    +0.001 C 
ATOM     22  C   UNL     1      34.741 -15.646 -23.605  0.00  0.00    +0.182 C 
ATOM     23  C   UNL     1      34.374 -16.052 -24.888  0.00  0.00    +0.173 C 
ATOM     24  C   UNL     1      33.564 -15.233 -25.675  0.00  0.00    +0.040 C 
BRANCH  23  25
ATOM     25  O   UNL     1      34.799 -17.247 -25.385  0.00  0.00    -0.468 OA
ATOM     26  C   UNL     1      33.978 -18.385 -25.130  0.00  0.00    +0.253 C 
ENDBRANCH  23  25
BRANCH  22  27
ATOM     27  O   UNL     1      35.533 -16.437 -22.829  0.00  0.00    -0.400 OA
BRANCH  27  28
ATOM     28  P   UNL     1      35.105 -17.070 -21.403  0.00  0.00    +0.528 P 
ATOM     29  O   UNL     1      35.071 -16.102 -20.255  0.00  0.00    -0.216 OA
BRANCH  28  30
ATOM     30  O   UNL     1      36.159 -18.284 -21.221  0.00  0.00    -0.293 OA
ATOM     31  H   UNL     1      36.508 -18.277 -20.314  0.00  0.00    +0.223 HD
ENDBRANCH  28  30
BRANCH  28  32
ATOM     32  O   UNL     1      33.717 -17.840 -21.711  0.00  0.00    -0.293 OA
ATOM     33  H   UNL     1      33.292 -18.087 -20.876  0.00  0.00    +0.223 HD
ENDBRANCH  28  32
ENDBRANCH  27  28
ENDBRANCH  22  27
ENDBRANCH  18  19
ENDBRANCH   1  18
TORSDOF 12
ENDMDL
MODEL 8
REMARK VINA RESULT:      -8.3      6.472     10.935
REMARK  Name = 11248490
REMARK  12 active torsions:
REMARK  status: ('A' for Active; 'I' for Inactive)
REMARK    1  A    between atoms: S_1  and  C_4
REMARK    2  A    between atoms: S_1  and  C_18
REMARK    3  A    between atoms: C_5  and  C_6
REMARK    4  A    between atoms: C_7  and  O_12
REMARK    5  A    between atoms: C_8  and  O_14
REMARK    6  A    between atoms: C_11  and  O_16
REMARK    7  A    between atoms: C_18  and  C_19
REMARK    8  A    between atoms: C_22  and  O_27
REMARK    9  A    between atoms: C_23  and  O_25
REMARK   10  A    between atoms: O_27  and  P_28
REMARK   11  A    between atoms: P_28  and  O_30
REMARK   12  A    between atoms: P_28  and  O_32
REMARK                            x       y       z     vdW  Elec       q    Type
REMARK                         _______ _______ _______ _____ _____    ______ ____
ROOT
ATOM      1  S   UNL     1      32.824 -14.931 -20.688  0.00  0.00    +0.014 S 
ATOM      2  O   UNL     1      32.049 -15.522 -21.766  0.00  0.00    -0.168 OA
ATOM      3  O   UNL     1      32.454 -15.168 -19.303  0.00  0.00    -0.168 OA
ENDROOT
BRANCH   1   4
ATOM      4  C   UNL     1      32.962 -13.236 -20.955  0.00  0.00    +0.123 C 
ATOM      5  C   UNL     1      32.311 -12.715 -22.012  0.00  0.00    +0.026 C 
BRANCH   5   6
ATOM      6  C   UNL     1      32.306 -11.306 -22.388  0.00  0.00    +0.069 C 
ATOM      7  C   UNL     1      31.491 -10.404 -21.702  0.00  0.00    +0.145 C 
ATOM      8  C   UNL     1      33.116 -10.857 -23.431  0.00  0.00    +0.145 C 
ATOM      9  C   UNL     1      31.486  -9.056 -22.061  0.00  0.00    +0.074 C 
ATOM     10  C   UNL     1      33.111  -9.510 -23.790  0.00  0.00    +0.074 C 
ATOM     11  C   UNL     1      32.295  -8.610 -23.105  0.00  0.00    +0.145 C 
BRANCH   7  12
ATOM     12  O   UNL     1      30.688 -10.812 -20.678  0.00  0.00    -0.471 OA
ATOM     13  C   UNL     1      31.072 -10.424 -19.361  0.00  0.00    +0.252 C 
ENDBRANCH   7  12
BRANCH   8  14
ATOM     14  O   UNL     1      33.922 -11.716 -24.119  0.00  0.00    -0.471 OA
ATOM     15  C   UNL     1      34.358 -11.300 -25.410  0.00  0.00    +0.252 C 
ENDBRANCH   8  14
BRANCH  11  16
ATOM     16  O   UNL     1      32.291  -7.294 -23.455  0.00  0.00    -0.471 OA
ATOM     17  C   UNL     1      32.049  -6.347 -22.415  0.00  0.00    +0.252 C 
ENDBRANCH  11  16
ENDBRANCH   5   6
ENDBRANCH   1   4
BRANCH   1  18
ATOM     18  C   UNL     1      34.499 -15.490 -20.883  0.00  0.00    +0.182 C 
BRANCH  18  19
ATOM     19  C   UNL     1      34.544 -16.384 -22.083  0.00  0.00    +0.005 C 
ATOM     20  C   UNL     1      34.438 -15.839 -23.363  0.00  0.00    +0.038 C 
ATOM     21  C   UNL     1      34.692 -17.761 -21.922  0.00  0.00    +0.001 C 
ATOM     22  C   UNL     1      34.480 -16.671 -24.481  0.00  0.00    +0.182 C 
ATOM     23  C   UNL     1      34.627 -18.049 -24.320  0.00  0.00    +0.173 C 
ATOM     24  C   UNL     1      34.733 -18.595 -23.040  0.00  0.00    +0.040 C 
BRANCH  23  25
ATOM     25  O   UNL     1      34.669 -18.874 -25.404  0.00  0.00    -0.468 OA
ATOM     26  C   UNL     1      34.980 -20.245 -25.164  0.00  0.00    +0.253 C 
ENDBRANCH  23  25
BRANCH  22  27
ATOM     27  O   UNL     1      34.374 -16.128 -25.725  0.00  0.00    -0.400 OA
BRANCH  27  28
ATOM     28  P   UNL     1      33.163 -15.179 -26.227  0.00  0.00    +0.528 P 
ATOM     29  O   UNL     1      32.549 -14.309 -25.168  0.00  0.00    -0.216 OA
BRANCH  28  30
ATOM     30  O   UNL     1      32.138 -16.234 -26.901  0.00  0.00    -0.293 OA
ATOM     31  H   UNL     1      31.757 -16.801 -26.211  0.00  0.00    +0.223 HD
ENDBRANCH  28  30
BRANCH  28  32
ATOM     32  O   UNL     1      33.774 -14.401 -27.507  0.00  0.00    -0.293 OA
ATOM     33  H   UNL     1      33.442 -14.808 -28.321  0.00  0.00    +0.223 HD
ENDBRANCH  28  32
ENDBRANCH  27  28
ENDBRANCH  22  27
ENDBRANCH  18  19
ENDBRANCH   1  18
TORSDOF 12
ENDMDL
MODEL 9
REMARK VINA RESULT:      -8.2      6.496     10.852
REMARK  Name = 11248490
REMARK  12 active torsions:
REMARK  status: ('A' for Active; 'I' for Inactive)
REMARK    1  A    between atoms: S_1  and  C_4
REMARK    2  A    between atoms: S_1  and  C_18
REMARK    3  A    between atoms: C_5  and  C_6
REMARK    4  A    between atoms: C_7  and  O_12
REMARK    5  A    between atoms: C_8  and  O_14
REMARK    6  A    between atoms: C_11  and  O_16
REMARK    7  A    between atoms: C_18  and  C_19
REMARK    8  A    between atoms: C_22  and  O_27
REMARK    9  A    between atoms: C_23  and  O_25
REMARK   10  A    between atoms: O_27  and  P_28
REMARK   11  A    between atoms: P_28  and  O_30
REMARK   12  A    between atoms: P_28  and  O_32
REMARK                            x       y       z     vdW  Elec       q    Type
REMARK                         _______ _______ _______ _____ _____    ______ ____
ROOT
ATOM      1  S   UNL     1      32.781 -14.921 -20.668  0.00  0.00    +0.014 S 
ATOM      2  O   UNL     1      32.015 -15.525 -21.746  0.00  0.00    -0.168 OA
ATOM      3  O   UNL     1      32.442 -15.198 -19.283  0.00  0.00    -0.168 OA
ENDROOT
BRANCH   1   4
ATOM      4  C   UNL     1      32.845 -13.217 -20.906  0.00  0.00    +0.123 C 
ATOM      5  C   UNL     1      32.332 -12.726 -22.050  0.00  0.00    +0.026 C 
BRANCH   5   6
ATOM      6  C   UNL     1      32.290 -11.316 -22.418  0.00  0.00    +0.069 C 
ATOM      7  C   UNL     1      33.093 -10.842 -23.456  0.00  0.00    +0.145 C 
ATOM      8  C   UNL     1      31.448 -10.439 -21.734  0.00  0.00    +0.145 C 
ATOM      9  C   UNL     1      33.054  -9.493 -23.809  0.00  0.00    +0.074 C 
ATOM     10  C   UNL     1      31.408  -9.091 -22.086  0.00  0.00    +0.074 C 
ATOM     11  C   UNL     1      32.212  -8.618 -23.124  0.00  0.00    +0.145 C 
BRANCH   7  12
ATOM     12  O   UNL     1      33.927 -11.674 -24.144  0.00  0.00    -0.471 OA
ATOM     13  C   UNL     1      34.369 -11.234 -25.425  0.00  0.00    +0.252 C 
ENDBRANCH   7  12
BRANCH   8  14
ATOM     14  O   UNL     1      30.652 -10.874 -20.715  0.00  0.00    -0.471 OA
ATOM     15  C   UNL     1      30.985 -10.433 -19.401  0.00  0.00    +0.252 C 
ENDBRANCH   8  14
BRANCH  11  16
ATOM     16  O   UNL     1      32.173  -7.301 -23.468  0.00  0.00    -0.471 OA
ATOM     17  C   UNL     1      31.738  -6.382 -22.467  0.00  0.00    +0.252 C 
ENDBRANCH  11  16
ENDBRANCH   5   6
ENDBRANCH   1   4
BRANCH   1  18
ATOM     18  C   UNL     1      34.474 -15.406 -20.896  0.00  0.00    +0.182 C 
BRANCH  18  19
ATOM     19  C   UNL     1      34.533 -16.308 -22.090  0.00  0.00    +0.005 C 
ATOM     20  C   UNL     1      34.427 -15.773 -23.374  0.00  0.00    +0.038 C 
ATOM     21  C   UNL     1      34.693 -17.683 -21.918  0.00  0.00    +0.001 C 
ATOM     22  C   UNL     1      34.481 -16.613 -24.486  0.00  0.00    +0.182 C 
ATOM     23  C   UNL     1      34.640 -17.988 -24.315  0.00  0.00    +0.173 C 
ATOM     24  C   UNL     1      34.745 -18.524 -23.031  0.00  0.00    +0.040 C 
BRANCH  23  25
ATOM     25  O   UNL     1      34.694 -18.820 -25.392  0.00  0.00    -0.468 OA
ATOM     26  C   UNL     1      34.976 -20.194 -25.138  0.00  0.00    +0.253 C 
ENDBRANCH  23  25
BRANCH  22  27
ATOM     27  O   UNL     1      34.374 -16.080 -25.735  0.00  0.00    -0.400 OA
BRANCH  27  28
ATOM     28  P   UNL     1      33.155 -15.147 -26.248  0.00  0.00    +0.528 P 
ATOM     29  O   UNL     1      32.537 -14.265 -25.201  0.00  0.00    -0.216 OA
BRANCH  28  30
ATOM     30  O   UNL     1      32.137 -16.220 -26.904  0.00  0.00    -0.293 OA
ATOM     31  H   UNL     1      32.645 -16.924 -27.338  0.00  0.00    +0.223 HD
ENDBRANCH  28  30
BRANCH  28  32
ATOM     32  O   UNL     1      33.758 -14.384 -27.540  0.00  0.00    -0.293 OA
ATOM     33  H   UNL     1      34.719 -14.295 -27.444  0.00  0.00    +0.223 HD
ENDBRANCH  28  32
ENDBRANCH  27  28
ENDBRANCH  22  27
ENDBRANCH  18  19
ENDBRANCH   1  18
TORSDOF 12
ENDMDL
