MODEL 1
REMARK VINA RESULT:      -7.6      0.000      0.000
REMARK  Name = 5288799
REMARK  9 active torsions:
REMARK  status: ('A' for Active; 'I' for Inactive)
REMARK    1  A    between atoms: C_1  and  C_2
REMARK    2  A    between atoms: C_1  and  C_12
REMARK    3  A    between atoms: C_2  and  N_4
REMARK    4  A    between atoms: C_12  and  C_13
REMARK    5  A    between atoms: C_13  and  C_14
REMARK    6  A    between atoms: C_14  and  C_15
REMARK    7  A    between atoms: C_15  and  C_16
REMARK    8  A    between atoms: C_16  and  C_17
REMARK    9  A    between atoms: C_17  and  N_19
REMARK                            x       y       z     vdW  Elec       q    Type
REMARK                         _______ _______ _______ _____ _____    ______ ____
ROOT
ATOM      1  C   UNL     1      33.647 -20.103 -20.605  0.00  0.00    -0.023 C 
ENDROOT
BRANCH   1   2
ATOM      2  C   UNL     1      35.135 -19.841 -20.852  0.00  0.00    -0.077 C 
BRANCH   2   4
ATOM      3  O   UNL     1      34.432 -16.486 -23.275  0.00  0.00    -0.363 OA
ATOM      4  N   UNL     1      35.350 -18.670 -21.699  0.00  0.00    +0.390 N 
ATOM      5  C   UNL     1      34.767 -18.877 -23.033  0.00  0.00    -0.047 C 
ATOM      6  C   UNL     1      34.774 -17.467 -21.081  0.00  0.00    -0.047 C 
ATOM      7  C   UNL     1      35.006 -17.638 -23.901  0.00  0.00    +0.095 C 
ATOM      8  C   UNL     1      35.013 -16.254 -21.987  0.00  0.00    +0.095 C 
ATOM      9  C   UNL     1      34.357 -17.793 -25.270  0.00  0.00    +0.030 C 
ATOM     10  C   UNL     1      34.370 -15.001 -21.407  0.00  0.00    +0.030 C 
ATOM     11  H   UNL     1      36.357 -18.537 -21.799  0.00  0.00    -0.080 HD
ENDBRANCH   2   4
ENDBRANCH   1   2
BRANCH   1  12
ATOM     12  C   UNL     1      33.385 -21.401 -19.834  0.00  0.00    -0.002 C 
BRANCH  12  13
ATOM     13  C   UNL     1      34.647 -21.881 -19.115  0.00  0.00    -0.000 C 
BRANCH  13  14
ATOM     14  C   UNL     1      34.302 -22.627 -17.824  0.00  0.00    +0.000 C 
BRANCH  14  15
ATOM     15  C   UNL     1      32.797 -22.882 -17.716  0.00  0.00    +0.002 C 
BRANCH  15  16
ATOM     16  C   UNL     1      32.428 -23.451 -16.342  0.00  0.00    +0.021 C 
BRANCH  16  17
ATOM     17  C   UNL     1      31.139 -22.855 -15.787  0.00  0.00    +0.090 C 
BRANCH  17  19
ATOM     18  O   UNL     1      28.616 -21.982 -17.004  0.00  0.00    -0.265 OA
ATOM     19  N   UNL     1      29.986 -23.652 -16.103  0.00  0.00    -0.297 N 
ATOM     20  C   UNL     1      28.838 -23.141 -16.679  0.00  0.00    +0.300 C 
ATOM     21  H   UNL     1      30.014 -24.614 -15.897  0.00  0.00    +0.150 HD
ENDBRANCH  17  19
ENDBRANCH  16  17
ENDBRANCH  15  16
ENDBRANCH  14  15
ENDBRANCH  13  14
ENDBRANCH  12  13
ENDBRANCH   1  12
TORSDOF 9
ENDMDL
MODEL 2
REMARK VINA RESULT:      -7.6      6.354      8.998
REMARK  Name = 5288799
REMARK  9 active torsions:
REMARK  status: ('A' for Active; 'I' for Inactive)
REMARK    1  A    between atoms: C_1  and  C_2
REMARK    2  A    between atoms: C_1  and  C_12
REMARK    3  A    between atoms: C_2  and  N_4
REMARK    4  A    between atoms: C_12  and  C_13
REMARK    5  A    between atoms: C_13  and  C_14
REMARK    6  A    between atoms: C_14  and  C_15
REMARK    7  A    between atoms: C_15  and  C_16
REMARK    8  A    between atoms: C_16  and  C_17
REMARK    9  A    between atoms: C_17  and  N_19
REMARK                            x       y       z     vdW  Elec       q    Type
REMARK                         _______ _______ _______ _____ _____    ______ ____
ROOT
ATOM      1  C   UNL     1      33.504 -15.904 -21.138  0.00  0.00    -0.023 C 
ENDROOT
BRANCH   1   2
ATOM      2  C   UNL     1      34.619 -15.194 -21.909  0.00  0.00    -0.077 C 
BRANCH   2   4
ATOM      3  O   UNL     1      33.725 -17.020 -25.582  0.00  0.00    -0.363 OA
ATOM      4  N   UNL     1      34.735 -15.689 -23.279  0.00  0.00    +0.390 N 
ATOM      5  C   UNL     1      34.593 -17.152 -23.320  0.00  0.00    -0.047 C 
ATOM      6  C   UNL     1      33.728 -15.063 -24.147  0.00  0.00    -0.047 C 
ATOM      7  C   UNL     1      34.720 -17.645 -24.765  0.00  0.00    +0.095 C 
ATOM      8  C   UNL     1      33.871 -15.595 -25.577  0.00  0.00    +0.095 C 
ATOM      9  C   UNL     1      34.512 -19.151 -24.851  0.00  0.00    +0.030 C 
ATOM     10  C   UNL     1      32.798 -15.016 -26.489  0.00  0.00    +0.030 C 
ATOM     11  H   UNL     1      35.664 -15.440 -23.624  0.00  0.00    -0.080 HD
ENDBRANCH   2   4
ENDBRANCH   1   2
BRANCH   1  12
ATOM     12  C   UNL     1      32.366 -14.965 -20.725  0.00  0.00    -0.002 C 
BRANCH  12  13
ATOM     13  C   UNL     1      32.796 -13.500 -20.823  0.00  0.00    -0.000 C 
BRANCH  13  14
ATOM     14  C   UNL     1      31.918 -12.728 -21.810  0.00  0.00    +0.000 C 
BRANCH  14  15
ATOM     15  C   UNL     1      31.055 -11.689 -21.091  0.00  0.00    +0.002 C 
BRANCH  15  16
ATOM     16  C   UNL     1      31.560 -11.437 -19.667  0.00  0.00    +0.021 C 
BRANCH  16  17
ATOM     17  C   UNL     1      31.377  -9.988 -19.227  0.00  0.00    +0.090 C 
BRANCH  17  19
ATOM     18  O   UNL     1      31.794  -8.001 -21.345  0.00  0.00    -0.265 OA
ATOM     19  N   UNL     1      32.546  -9.189 -19.474  0.00  0.00    -0.297 N 
ATOM     20  C   UNL     1      32.643  -8.275 -20.506  0.00  0.00    +0.300 C 
ATOM     21  H   UNL     1      33.320  -9.299 -18.877  0.00  0.00    +0.150 HD
ENDBRANCH  17  19
ENDBRANCH  16  17
ENDBRANCH  15  16
ENDBRANCH  14  15
ENDBRANCH  13  14
ENDBRANCH  12  13
ENDBRANCH   1  12
TORSDOF 9
ENDMDL
MODEL 3
REMARK VINA RESULT:      -7.5      4.678      9.443
REMARK  Name = 5288799
REMARK  9 active torsions:
REMARK  status: ('A' for Active; 'I' for Inactive)
REMARK    1  A    between atoms: C_1  and  C_2
REMARK    2  A    between atoms: C_1  and  C_12
REMARK    3  A    between atoms: C_2  and  N_4
REMARK    4  A    between atoms: C_12  and  C_13
REMARK    5  A    between atoms: C_13  and  C_14
REMARK    6  A    between atoms: C_14  and  C_15
REMARK    7  A    between atoms: C_15  and  C_16
REMARK    8  A    between atoms: C_16  and  C_17
REMARK    9  A    between atoms: C_17  and  N_19
REMARK                            x       y       z     vdW  Elec       q    Type
REMARK                         _______ _______ _______ _____ _____    ______ ____
ROOT
ATOM      1  C   UNL     1      34.151 -15.065 -20.568  0.00  0.00    -0.023 C 
ENDROOT
BRANCH   1   2
ATOM      2  C   UNL     1      34.638 -15.210 -22.011  0.00  0.00    -0.077 C 
BRANCH   2   4
ATOM      3  O   UNL     1      34.537 -19.317 -22.876  0.00  0.00    -0.363 OA
ATOM      4  N   UNL     1      35.058 -16.578 -22.311  0.00  0.00    +0.390 N 
ATOM      5  C   UNL     1      34.603 -17.505 -21.264  0.00  0.00    -0.047 C 
ATOM      6  C   UNL     1      34.543 -17.007 -23.619  0.00  0.00    -0.047 C 
ATOM      7  C   UNL     1      35.056 -18.929 -21.600  0.00  0.00    +0.095 C 
ATOM      8  C   UNL     1      34.997 -18.441 -23.911  0.00  0.00    +0.095 C 
ATOM      9  C   UNL     1      34.545 -19.925 -20.568  0.00  0.00    +0.030 C 
ATOM     10  C   UNL     1      34.425 -18.940 -25.231  0.00  0.00    +0.030 C 
ATOM     11  H   UNL     1      36.078 -16.592 -22.340  0.00  0.00    -0.080 HD
ENDBRANCH   2   4
ENDBRANCH   1   2
BRANCH   1  12
ATOM     12  C   UNL     1      32.779 -14.392 -20.460  0.00  0.00    -0.002 C 
BRANCH  12  13
ATOM     13  C   UNL     1      32.404 -13.691 -21.767  0.00  0.00    -0.000 C 
BRANCH  13  14
ATOM     14  C   UNL     1      31.821 -12.301 -21.504  0.00  0.00    +0.000 C 
BRANCH  14  15
ATOM     15  C   UNL     1      31.729 -12.011 -20.005  0.00  0.00    +0.002 C 
BRANCH  15  16
ATOM     16  C   UNL     1      31.219 -10.591 -19.744  0.00  0.00    +0.021 C 
BRANCH  16  17
ATOM     17  C   UNL     1      31.916  -9.549 -20.613  0.00  0.00    +0.090 C 
BRANCH  17  19
ATOM     18  O   UNL     1      31.927  -6.633 -20.938  0.00  0.00    -0.265 OA
ATOM     19  N   UNL     1      32.629  -8.574 -19.835  0.00  0.00    -0.297 N 
ATOM     20  C   UNL     1      32.567  -7.214 -20.070  0.00  0.00    +0.300 C 
ATOM     21  H   UNL     1      33.193  -8.892 -19.094  0.00  0.00    +0.150 HD
ENDBRANCH  17  19
ENDBRANCH  16  17
ENDBRANCH  15  16
ENDBRANCH  14  15
ENDBRANCH  13  14
ENDBRANCH  12  13
ENDBRANCH   1  12
TORSDOF 9
ENDMDL
MODEL 4
REMARK VINA RESULT:      -7.5      3.724      5.820
REMARK  Name = 5288799
REMARK  9 active torsions:
REMARK  status: ('A' for Active; 'I' for Inactive)
REMARK    1  A    between atoms: C_1  and  C_2
REMARK    2  A    between atoms: C_1  and  C_12
REMARK    3  A    between atoms: C_2  and  N_4
REMARK    4  A    between atoms: C_12  and  C_13
REMARK    5  A    between atoms: C_13  and  C_14
REMARK    6  A    between atoms: C_14  and  C_15
REMARK    7  A    between atoms: C_15  and  C_16
REMARK    8  A    between atoms: C_16  and  C_17
REMARK    9  A    between atoms: C_17  and  N_19
REMARK                            x       y       z     vdW  Elec       q    Type
REMARK                         _______ _______ _______ _____ _____    ______ ____
ROOT
ATOM      1  C   UNL     1      34.782 -16.660 -24.778  0.00  0.00    -0.023 C 
ENDROOT
BRANCH   1   2
ATOM      2  C   UNL     1      33.784 -15.713 -25.447  0.00  0.00    -0.077 C 
BRANCH   2   4
ATOM      3  O   UNL     1      33.206 -12.992 -22.303  0.00  0.00    -0.363 OA
ATOM      4  N   UNL     1      33.145 -14.821 -24.481  0.00  0.00    +0.390 N 
ATOM      5  C   UNL     1      33.400 -15.273 -23.106  0.00  0.00    -0.047 C 
ATOM      6  C   UNL     1      33.621 -13.441 -24.652  0.00  0.00    -0.047 C 
ATOM      7  C   UNL     1      32.720 -14.325 -22.113  0.00  0.00    +0.095 C 
ATOM      8  C   UNL     1      32.936 -12.526 -23.630  0.00  0.00    +0.095 C 
ATOM      9  C   UNL     1      33.019 -14.727 -20.676  0.00  0.00    +0.030 C 
ATOM     10  C   UNL     1      33.457 -11.099 -23.736  0.00  0.00    +0.030 C 
ATOM     11  H   UNL     1      32.139 -14.844 -24.652  0.00  0.00    -0.080 HD
ENDBRANCH   2   4
ENDBRANCH   1   2
BRANCH   1  12
ATOM     12  C   UNL     1      34.509 -18.136 -25.083  0.00  0.00    -0.002 C 
BRANCH  12  13
ATOM     13  C   UNL     1      34.797 -19.015 -23.864  0.00  0.00    -0.000 C 
BRANCH  13  14
ATOM     14  C   UNL     1      35.665 -18.278 -22.842  0.00  0.00    +0.000 C 
BRANCH  14  15
ATOM     15  C   UNL     1      35.152 -18.498 -21.417  0.00  0.00    +0.002 C 
BRANCH  15  16
ATOM     16  C   UNL     1      34.049 -19.560 -21.381  0.00  0.00    +0.021 C 
BRANCH  16  17
ATOM     17  C   UNL     1      34.203 -20.527 -20.213  0.00  0.00    +0.090 C 
BRANCH  17  19
ATOM     18  O   UNL     1      35.333 -22.479 -18.337  0.00  0.00    -0.265 OA
ATOM     19  N   UNL     1      35.568 -20.654 -19.784  0.00  0.00    -0.297 N 
ATOM     20  C   UNL     1      36.002 -21.615 -18.889  0.00  0.00    +0.300 C 
ATOM     21  H   UNL     1      36.231 -20.023 -20.145  0.00  0.00    +0.150 HD
ENDBRANCH  17  19
ENDBRANCH  16  17
ENDBRANCH  15  16
ENDBRANCH  14  15
ENDBRANCH  13  14
ENDBRANCH  12  13
ENDBRANCH   1  12
TORSDOF 9
ENDMDL
MODEL 5
REMARK VINA RESULT:      -7.5      3.563      4.375
REMARK  Name = 5288799
REMARK  9 active torsions:
REMARK  status: ('A' for Active; 'I' for Inactive)
REMARK    1  A    between atoms: C_1  and  C_2
REMARK    2  A    between atoms: C_1  and  C_12
REMARK    3  A    between atoms: C_2  and  N_4
REMARK    4  A    between atoms: C_12  and  C_13
REMARK    5  A    between atoms: C_13  and  C_14
REMARK    6  A    between atoms: C_14  and  C_15
REMARK    7  A    between atoms: C_15  and  C_16
REMARK    8  A    between atoms: C_16  and  C_17
REMARK    9  A    between atoms: C_17  and  N_19
REMARK                            x       y       z     vdW  Elec       q    Type
REMARK                         _______ _______ _______ _____ _____    ______ ____
ROOT
ATOM      1  C   UNL     1      35.428 -18.470 -21.442  0.00  0.00    -0.023 C 
ENDROOT
BRANCH   1   2
ATOM      2  C   UNL     1      35.583 -17.854 -22.834  0.00  0.00    -0.077 C 
BRANCH   2   4
ATOM      3  O   UNL     1      33.015 -14.538 -23.012  0.00  0.00    -0.363 OA
ATOM      4  N   UNL     1      35.091 -16.479 -22.880  0.00  0.00    +0.390 N 
ATOM      5  C   UNL     1      34.349 -16.231 -24.125  0.00  0.00    -0.047 C 
ATOM      6  C   UNL     1      34.235 -16.192 -21.721  0.00  0.00    -0.047 C 
ATOM      7  C   UNL     1      33.847 -14.783 -24.150  0.00  0.00    +0.095 C 
ATOM      8  C   UNL     1      33.734 -14.745 -21.790  0.00  0.00    +0.095 C 
ATOM      9  C   UNL     1      33.018 -14.512 -25.398  0.00  0.00    +0.030 C 
ATOM     10  C   UNL     1      32.789 -14.435 -20.637  0.00  0.00    +0.030 C 
ATOM     11  H   UNL     1      35.900 -15.857 -22.852  0.00  0.00    -0.080 HD
ENDBRANCH   2   4
ENDBRANCH   1   2
BRANCH   1  12
ATOM     12  C   UNL     1      34.714 -19.826 -21.460  0.00  0.00    -0.002 C 
BRANCH  12  13
ATOM     13  C   UNL     1      33.443 -19.791 -20.608  0.00  0.00    -0.000 C 
BRANCH  13  14
ATOM     14  C   UNL     1      33.306 -21.060 -19.763  0.00  0.00    +0.000 C 
BRANCH  14  15
ATOM     15  C   UNL     1      34.598 -21.880 -19.778  0.00  0.00    +0.002 C 
BRANCH  15  16
ATOM     16  C   UNL     1      35.218 -21.966 -18.380  0.00  0.00    +0.021 C 
BRANCH  16  17
ATOM     17  C   UNL     1      36.674 -21.516 -18.355  0.00  0.00    +0.090 C 
BRANCH  17  19
ATOM     18  O   UNL     1      37.404 -23.132 -16.018  0.00  0.00    -0.265 OA
ATOM     19  N   UNL     1      37.085 -21.059 -17.056  0.00  0.00    -0.297 N 
ATOM     20  C   UNL     1      37.409 -21.908 -16.015  0.00  0.00    +0.300 C 
ATOM     21  H   UNL     1      37.137 -20.089 -16.898  0.00  0.00    +0.150 HD
ENDBRANCH  17  19
ENDBRANCH  16  17
ENDBRANCH  15  16
ENDBRANCH  14  15
ENDBRANCH  13  14
ENDBRANCH  12  13
ENDBRANCH   1  12
TORSDOF 9
ENDMDL
MODEL 6
REMARK VINA RESULT:      -7.4      1.442      2.265
REMARK  Name = 5288799
REMARK  9 active torsions:
REMARK  status: ('A' for Active; 'I' for Inactive)
REMARK    1  A    between atoms: C_1  and  C_2
REMARK    2  A    between atoms: C_1  and  C_12
REMARK    3  A    between atoms: C_2  and  N_4
REMARK    4  A    between atoms: C_12  and  C_13
REMARK    5  A    between atoms: C_13  and  C_14
REMARK    6  A    between atoms: C_14  and  C_15
REMARK    7  A    between atoms: C_15  and  C_16
REMARK    8  A    between atoms: C_16  and  C_17
REMARK    9  A    between atoms: C_17  and  N_19
REMARK                            x       y       z     vdW  Elec       q    Type
REMARK                         _______ _______ _______ _____ _____    ______ ____
ROOT
ATOM      1  C   UNL     1      35.998 -18.709 -21.015  0.00  0.00    -0.023 C 
ENDROOT
BRANCH   1   2
ATOM      2  C   UNL     1      35.799 -18.327 -22.484  0.00  0.00    -0.077 C 
BRANCH   2   4
ATOM      3  O   UNL     1      33.219 -15.055 -22.994  0.00  0.00    -0.363 OA
ATOM      4  N   UNL     1      35.299 -16.962 -22.630  0.00  0.00    +0.390 N 
ATOM      5  C   UNL     1      34.639 -16.784 -23.932  0.00  0.00    -0.047 C 
ATOM      6  C   UNL     1      34.365 -16.629 -21.545  0.00  0.00    -0.047 C 
ATOM      7  C   UNL     1      34.126 -15.346 -24.062  0.00  0.00    +0.095 C 
ATOM      8  C   UNL     1      33.857 -15.194 -21.719  0.00  0.00    +0.095 C 
ATOM      9  C   UNL     1      33.379 -15.147 -25.373  0.00  0.00    +0.030 C 
ATOM     10  C   UNL     1      32.835 -14.839 -20.648  0.00  0.00    +0.030 C 
ATOM     11  H   UNL     1      36.099 -16.329 -22.579  0.00  0.00    -0.080 HD
ENDBRANCH   2   4
ENDBRANCH   1   2
BRANCH   1  12
ATOM     12  C   UNL     1      35.538 -20.135 -20.696  0.00  0.00    -0.002 C 
BRANCH  12  13
ATOM     13  C   UNL     1      34.011 -20.228 -20.660  0.00  0.00    -0.000 C 
BRANCH  13  14
ATOM     14  C   UNL     1      33.541 -21.235 -19.609  0.00  0.00    +0.000 C 
BRANCH  14  15
ATOM     15  C   UNL     1      34.711 -22.056 -19.063  0.00  0.00    +0.002 C 
BRANCH  15  16
ATOM     16  C   UNL     1      34.345 -22.731 -17.737  0.00  0.00    +0.021 C 
BRANCH  16  17
ATOM     17  C   UNL     1      32.886 -23.169 -17.686  0.00  0.00    +0.090 C 
BRANCH  17  19
ATOM     18  O   UNL     1      30.109 -22.743 -16.840  0.00  0.00    -0.265 OA
ATOM     19  N   UNL     1      32.359 -23.161 -16.349  0.00  0.00    -0.297 N 
ATOM     20  C   UNL     1      31.025 -22.949 -16.054  0.00  0.00    +0.300 C 
ATOM     21  H   UNL     1      32.981 -23.315 -15.602  0.00  0.00    +0.150 HD
ENDBRANCH  17  19
ENDBRANCH  16  17
ENDBRANCH  15  16
ENDBRANCH  14  15
ENDBRANCH  13  14
ENDBRANCH  12  13
ENDBRANCH   1  12
TORSDOF 9
ENDMDL
MODEL 7
REMARK VINA RESULT:      -7.4      3.115      3.521
REMARK  Name = 5288799
REMARK  9 active torsions:
REMARK  status: ('A' for Active; 'I' for Inactive)
REMARK    1  A    between atoms: C_1  and  C_2
REMARK    2  A    between atoms: C_1  and  C_12
REMARK    3  A    between atoms: C_2  and  N_4
REMARK    4  A    between atoms: C_12  and  C_13
REMARK    5  A    between atoms: C_13  and  C_14
REMARK    6  A    between atoms: C_14  and  C_15
REMARK    7  A    between atoms: C_15  and  C_16
REMARK    8  A    between atoms: C_16  and  C_17
REMARK    9  A    between atoms: C_17  and  N_19
REMARK                            x       y       z     vdW  Elec       q    Type
REMARK                         _______ _______ _______ _____ _____    ______ ____
ROOT
ATOM      1  C   UNL     1      33.658 -20.168 -20.559  0.00  0.00    -0.023 C 
ENDROOT
BRANCH   1   2
ATOM      2  C   UNL     1      35.083 -20.048 -21.104  0.00  0.00    -0.077 C 
BRANCH   2   4
ATOM      3  O   UNL     1      34.383 -16.433 -23.120  0.00  0.00    -0.363 OA
ATOM      4  N   UNL     1      35.298 -18.778 -21.794  0.00  0.00    +0.390 N 
ATOM      5  C   UNL     1      34.761 -18.829 -23.162  0.00  0.00    -0.047 C 
ATOM      6  C   UNL     1      34.678 -17.670 -21.053  0.00  0.00    -0.047 C 
ATOM      7  C   UNL     1      35.001 -17.488 -23.864  0.00  0.00    +0.095 C 
ATOM      8  C   UNL     1      34.918 -16.351 -21.795  0.00  0.00    +0.095 C 
ATOM      9  C   UNL     1      34.398 -17.486 -25.262  0.00  0.00    +0.030 C 
ATOM     10  C   UNL     1      34.231 -15.190 -21.087  0.00  0.00    +0.030 C 
ATOM     11  H   UNL     1      36.305 -18.616 -21.843  0.00  0.00    -0.080 HD
ENDBRANCH   2   4
ENDBRANCH   1   2
BRANCH   1  12
ATOM     12  C   UNL     1      33.488 -21.323 -19.567  0.00  0.00    -0.002 C 
BRANCH  12  13
ATOM     13  C   UNL     1      34.761 -22.169 -19.482  0.00  0.00    -0.000 C 
BRANCH  13  14
ATOM     14  C   UNL     1      35.370 -22.115 -18.079  0.00  0.00    +0.000 C 
BRANCH  14  15
ATOM     15  C   UNL     1      34.533 -22.914 -17.078  0.00  0.00    +0.002 C 
BRANCH  15  16
ATOM     16  C   UNL     1      35.316 -23.181 -15.788  0.00  0.00    +0.021 C 
BRANCH  16  17
ATOM     17  C   UNL     1      34.987 -24.537 -15.174  0.00  0.00    +0.090 C 
BRANCH  17  19
ATOM     18  O   UNL     1      36.358 -26.981 -16.044  0.00  0.00    -0.265 OA
ATOM     19  N   UNL     1      36.138 -25.165 -14.584  0.00  0.00    -0.297 N 
ATOM     20  C   UNL     1      36.712 -26.323 -15.073  0.00  0.00    +0.300 C 
ATOM     21  H   UNL     1      36.539 -24.748 -13.789  0.00  0.00    +0.150 HD
ENDBRANCH  17  19
ENDBRANCH  16  17
ENDBRANCH  15  16
ENDBRANCH  14  15
ENDBRANCH  13  14
ENDBRANCH  12  13
ENDBRANCH   1  12
TORSDOF 9
ENDMDL
MODEL 8
REMARK VINA RESULT:      -7.4      3.392      3.950
REMARK  Name = 5288799
REMARK  9 active torsions:
REMARK  status: ('A' for Active; 'I' for Inactive)
REMARK    1  A    between atoms: C_1  and  C_2
REMARK    2  A    between atoms: C_1  and  C_12
REMARK    3  A    between atoms: C_2  and  N_4
REMARK    4  A    between atoms: C_12  and  C_13
REMARK    5  A    between atoms: C_13  and  C_14
REMARK    6  A    between atoms: C_14  and  C_15
REMARK    7  A    between atoms: C_15  and  C_16
REMARK    8  A    between atoms: C_16  and  C_17
REMARK    9  A    between atoms: C_17  and  N_19
REMARK                            x       y       z     vdW  Elec       q    Type
REMARK                         _______ _______ _______ _____ _____    ______ ____
ROOT
ATOM      1  C   UNL     1      33.725 -20.176 -20.634  0.00  0.00    -0.023 C 
ENDROOT
BRANCH   1   2
ATOM      2  C   UNL     1      35.201 -19.856 -20.882  0.00  0.00    -0.077 C 
BRANCH   2   4
ATOM      3  O   UNL     1      34.366 -16.496 -23.257  0.00  0.00    -0.363 OA
ATOM      4  N   UNL     1      35.369 -18.664 -21.711  0.00  0.00    +0.390 N 
ATOM      5  C   UNL     1      34.799 -18.875 -23.050  0.00  0.00    -0.047 C 
ATOM      6  C   UNL     1      34.742 -17.496 -21.077  0.00  0.00    -0.047 C 
ATOM      7  C   UNL     1      34.989 -17.613 -23.898  0.00  0.00    +0.095 C 
ATOM      8  C   UNL     1      34.933 -16.260 -21.963  0.00  0.00    +0.095 C 
ATOM      9  C   UNL     1      34.351 -17.775 -25.271  0.00  0.00    +0.030 C 
ATOM     10  C   UNL     1      34.236 -15.044 -21.366  0.00  0.00    +0.030 C 
ATOM     11  H   UNL     1      36.370 -18.487 -21.805  0.00  0.00    -0.080 HD
ENDBRANCH   2   4
ENDBRANCH   1   2
BRANCH   1  12
ATOM     12  C   UNL     1      33.514 -21.246 -19.558  0.00  0.00    -0.002 C 
BRANCH  12  13
ATOM     13  C   UNL     1      34.735 -22.161 -19.442  0.00  0.00    -0.000 C 
BRANCH  13  14
ATOM     14  C   UNL     1      35.222 -22.258 -17.994  0.00  0.00    +0.000 C 
BRANCH  14  15
ATOM     15  C   UNL     1      36.637 -21.694 -17.845  0.00  0.00    +0.002 C 
BRANCH  15  16
ATOM     16  C   UNL     1      37.184 -21.934 -16.434  0.00  0.00    +0.021 C 
BRANCH  16  17
ATOM     17  C   UNL     1      36.683 -23.239 -15.826  0.00  0.00    +0.090 C 
BRANCH  17  19
ATOM     18  O   UNL     1      38.060 -23.671 -13.271  0.00  0.00    -0.265 OA
ATOM     19  N   UNL     1      36.163 -23.061 -14.498  0.00  0.00    -0.297 N 
ATOM     20  C   UNL     1      36.898 -23.293 -13.351  0.00  0.00    +0.300 C 
ATOM     21  H   UNL     1      35.232 -22.757 -14.400  0.00  0.00    +0.150 HD
ENDBRANCH  17  19
ENDBRANCH  16  17
ENDBRANCH  15  16
ENDBRANCH  14  15
ENDBRANCH  13  14
ENDBRANCH  12  13
ENDBRANCH   1  12
TORSDOF 9
ENDMDL
MODEL 9
REMARK VINA RESULT:      -7.4      3.494      5.739
REMARK  Name = 5288799
REMARK  9 active torsions:
REMARK  status: ('A' for Active; 'I' for Inactive)
REMARK    1  A    between atoms: C_1  and  C_2
REMARK    2  A    between atoms: C_1  and  C_12
REMARK    3  A    between atoms: C_2  and  N_4
REMARK    4  A    between atoms: C_12  and  C_13
REMARK    5  A    between atoms: C_13  and  C_14
REMARK    6  A    between atoms: C_14  and  C_15
REMARK    7  A    between atoms: C_15  and  C_16
REMARK    8  A    between atoms: C_16  and  C_17
REMARK    9  A    between atoms: C_17  and  N_19
REMARK                            x       y       z     vdW  Elec       q    Type
REMARK                         _______ _______ _______ _____ _____    ______ ____
ROOT
ATOM      1  C   UNL     1      34.594 -15.699 -23.428  0.00  0.00    -0.023 C 
ENDROOT
BRANCH   1   2
ATOM      2  C   UNL     1      33.351 -15.334 -22.612  0.00  0.00    -0.077 C 
BRANCH   2   4
ATOM      3  O   UNL     1      32.731 -11.186 -22.802  0.00  0.00    -0.363 OA
ATOM      4  N   UNL     1      32.819 -14.024 -22.984  0.00  0.00    +0.390 N 
ATOM      5  C   UNL     1      32.236 -13.347 -21.816  0.00  0.00    -0.047 C 
ATOM      6  C   UNL     1      33.869 -13.185 -23.578  0.00  0.00    -0.047 C 
ATOM      7  C   UNL     1      31.685 -11.979 -22.231  0.00  0.00    +0.095 C 
ATOM      8  C   UNL     1      33.287 -11.819 -23.960  0.00  0.00    +0.095 C 
ATOM      9  C   UNL     1      31.133 -11.223 -21.030  0.00  0.00    +0.030 C 
ATOM     10  C   UNL     1      34.365 -10.900 -24.518  0.00  0.00    +0.030 C 
ATOM     11  H   UNL     1      32.085 -14.170 -23.677  0.00  0.00    -0.080 HD
ENDBRANCH   2   4
ENDBRANCH   1   2
BRANCH   1  12
ATOM     12  C   UNL     1      34.575 -17.143 -23.939  0.00  0.00    -0.002 C 
BRANCH  12  13
ATOM     13  C   UNL     1      35.542 -18.022 -23.143  0.00  0.00    -0.000 C 
BRANCH  13  14
ATOM     14  C   UNL     1      34.816 -19.207 -22.502  0.00  0.00    +0.000 C 
BRANCH  14  15
ATOM     15  C   UNL     1      34.099 -18.790 -21.217  0.00  0.00    +0.002 C 
BRANCH  15  16
ATOM     16  C   UNL     1      33.168 -19.898 -20.715  0.00  0.00    +0.021 C 
BRANCH  16  17
ATOM     17  C   UNL     1      33.903 -20.957 -19.901  0.00  0.00    +0.090 C 
BRANCH  17  19
ATOM     18  O   UNL     1      34.533 -22.967 -17.859  0.00  0.00    -0.265 OA
ATOM     19  N   UNL     1      33.005 -21.872 -19.252  0.00  0.00    -0.297 N 
ATOM     20  C   UNL     1      33.403 -22.787 -18.296  0.00  0.00    +0.300 C 
ATOM     21  H   UNL     1      32.053 -21.846 -19.502  0.00  0.00    +0.150 HD
ENDBRANCH  17  19
ENDBRANCH  16  17
ENDBRANCH  15  16
ENDBRANCH  14  15
ENDBRANCH  13  14
ENDBRANCH  12  13
ENDBRANCH   1  12
TORSDOF 9
ENDMDL
