MODEL 1
REMARK VINA RESULT:      -9.3      0.000      0.000
REMARK  Name = 118196485
REMARK  6 active torsions:
REMARK  status: ('A' for Active; 'I' for Inactive)
REMARK    1  A    between atoms: N_1  and  C_26
REMARK    2  A    between atoms: C_9  and  C_21
REMARK    3  A    between atoms: C_12  and  C_17
REMARK    4  A    between atoms: C_21  and  O_24
REMARK    5  A    between atoms: C_26  and  C_28
REMARK    6  A    between atoms: C_26  and  C_33
REMARK                            x       y       z     vdW  Elec       q    Type
REMARK                         _______ _______ _______ _____ _____    ______ ____
ROOT
ATOM      1  N   UNL     1      33.350 -12.766 -22.859  0.00  0.00    -0.324 N 
ATOM      2  N   UNL     1      31.536 -11.413 -20.155  0.00  0.00    -0.243 NA
ATOM      3  C   UNL     1      33.321 -13.887 -22.061  0.00  0.00    +0.061 A 
ATOM      4  C   UNL     1      32.697 -11.725 -22.252  0.00  0.00    +0.078 A 
ATOM      5  C   UNL     1      32.624 -13.554 -20.898  0.00  0.00    +0.035 A 
ATOM      6  C   UNL     1      32.233 -12.190 -21.025  0.00  0.00    +0.098 A 
ATOM      7  C   UNL     1      33.857 -15.162 -22.279  0.00  0.00    +0.015 C 
ATOM      8  C   UNL     1      32.466 -10.413 -22.663  0.00  0.00    +0.018 C 
ATOM      9  C   UNL     1      33.674 -16.122 -21.280  0.00  0.00    +0.003 C 
ATOM     10  C   UNL     1      32.452 -14.539 -19.903  0.00  0.00    +0.003 C 
ATOM     11  C   UNL     1      32.982 -15.817 -20.109  0.00  0.00    -0.002 C 
ATOM     12  C   UNL     1      31.752  -9.607 -21.781  0.00  0.00    +0.020 C 
ATOM     13  C   UNL     1      31.325 -10.146 -20.575  0.00  0.00    +0.096 C 
ENDROOT
BRANCH  12  17
ATOM     14  N   UNL     1      31.753  -7.169 -21.322  0.00  0.00    -0.159 NA
ATOM     15  N   UNL     1      31.371  -6.012 -21.889  0.00  0.00    -0.063 NA
ATOM     16  N   UNL     1      30.827  -6.310 -23.063  0.00  0.00    -0.154 NA
ATOM     17  C   UNL     1      31.464  -8.235 -22.116  0.00  0.00    +0.140 C 
ATOM     18  C   UNL     1      30.876  -7.668 -23.218  0.00  0.00    +0.078 C 
ATOM     19  C   UNL     1      32.381  -7.161 -20.023  0.00  0.00    +0.115 C 
ATOM     20  C   UNL     1      30.345  -8.308 -24.429  0.00  0.00    +0.051 C 
ENDBRANCH  12  17
BRANCH   9  21
ATOM     21  C   UNL     1      34.229 -17.495 -21.472  0.00  0.00    +0.107 C 
ATOM     22  C   UNL     1      34.652 -17.752 -22.938  0.00  0.00    +0.034 C 
ATOM     23  C   UNL     1      33.234 -18.593 -21.026  0.00  0.00    +0.034 C 
BRANCH  21  24
ATOM     24  O   UNL     1      35.420 -17.704 -20.681  0.00  0.00    -0.383 OA
ATOM     25  H   UNL     1      35.205 -17.603 -19.741  0.00  0.00    +0.211 HD
ENDBRANCH  21  24
ENDBRANCH   9  21
BRANCH   1  26
ATOM     26  C   UNL     1      33.982 -12.696 -24.161  0.00  0.00    +0.108 C 
BRANCH  26  28
ATOM     27  O   UNL     1      33.045 -14.818 -27.743  0.00  0.00    -0.354 OA
ATOM     28  C   UNL     1      33.152 -13.352 -25.262  0.00  0.00    +0.030 C 
ATOM     29  C   UNL     1      33.433 -14.856 -25.346  0.00  0.00    +0.034 C 
ATOM     30  C   UNL     1      33.418 -12.696 -26.621  0.00  0.00    +0.034 C 
ATOM     31  C   UNL     1      32.681 -13.438 -27.730  0.00  0.00    +0.142 C 
ATOM     32  C   UNL     1      32.696 -15.477 -26.526  0.00  0.00    +0.142 C 
ENDBRANCH  26  28
BRANCH  26  33
ATOM     33  C   UNL     1      34.427 -11.281 -24.502  0.00  0.00    -0.002 C 
ATOM     34  C   UNL     1      35.022 -11.015 -25.736  0.00  0.00    -0.002 C 
ATOM     35  C   UNL     1      34.239 -10.250 -23.583  0.00  0.00    -0.002 C 
ATOM     36  C   UNL     1      35.430  -9.718 -26.048  0.00  0.00    -0.000 C 
ATOM     37  C   UNL     1      34.645  -8.953 -23.895  0.00  0.00    -0.000 C 
ATOM     38  C   UNL     1      35.240  -8.687 -25.128  0.00  0.00    -0.000 C 
ENDBRANCH  26  33
ENDBRANCH   1  26
TORSDOF 6
ENDMDL
MODEL 2
REMARK VINA RESULT:      -9.0      1.338      3.183
REMARK  Name = 118196485
REMARK  6 active torsions:
REMARK  status: ('A' for Active; 'I' for Inactive)
REMARK    1  A    between atoms: N_1  and  C_26
REMARK    2  A    between atoms: C_9  and  C_21
REMARK    3  A    between atoms: C_12  and  C_17
REMARK    4  A    between atoms: C_21  and  O_24
REMARK    5  A    between atoms: C_26  and  C_28
REMARK    6  A    between atoms: C_26  and  C_33
REMARK                            x       y       z     vdW  Elec       q    Type
REMARK                         _______ _______ _______ _____ _____    ______ ____
ROOT
ATOM      1  N   UNL     1      32.908 -12.685 -22.947  0.00  0.00    -0.324 N 
ATOM      2  N   UNL     1      31.715 -11.162 -19.998  0.00  0.00    -0.243 NA
ATOM      3  C   UNL     1      32.966 -13.784 -22.120  0.00  0.00    +0.061 A 
ATOM      4  C   UNL     1      32.440 -11.591 -22.263  0.00  0.00    +0.078 A 
ATOM      5  C   UNL     1      32.521 -13.382 -20.859  0.00  0.00    +0.035 A 
ATOM      6  C   UNL     1      32.191 -12.000 -20.956  0.00  0.00    +0.098 A 
ATOM      7  C   UNL     1      33.378 -15.094 -22.392  0.00  0.00    +0.015 C 
ATOM      8  C   UNL     1      32.212 -10.277 -22.667  0.00  0.00    +0.018 C 
ATOM      9  C   UNL     1      33.332 -16.018 -21.344  0.00  0.00    +0.003 C 
ATOM     10  C   UNL     1      32.483 -14.332 -19.818  0.00  0.00    +0.003 C 
ATOM     11  C   UNL     1      32.892 -15.645 -20.076  0.00  0.00    -0.002 C 
ATOM     12  C   UNL     1      31.724  -9.410 -21.695  0.00  0.00    +0.020 C 
ATOM     13  C   UNL     1      31.501  -9.894 -20.413  0.00  0.00    +0.096 C 
ENDROOT
BRANCH  12  17
ATOM     14  N   UNL     1      31.750  -6.977 -21.205  0.00  0.00    -0.159 NA
ATOM     15  N   UNL     1      31.389  -5.809 -21.761  0.00  0.00    -0.063 NA
ATOM     16  N   UNL     1      30.852  -6.085 -22.944  0.00  0.00    -0.154 NA
ATOM     17  C   UNL     1      31.455  -8.030 -22.015  0.00  0.00    +0.140 C 
ATOM     18  C   UNL     1      30.885  -7.441 -23.115  0.00  0.00    +0.078 C 
ATOM     19  C   UNL     1      32.367  -6.993 -19.900  0.00  0.00    +0.115 C 
ATOM     20  C   UNL     1      30.357  -8.061 -24.339  0.00  0.00    +0.051 C 
ENDBRANCH  12  17
BRANCH   9  21
ATOM     21  C   UNL     1      33.762 -17.427 -21.592  0.00  0.00    +0.107 C 
ATOM     22  C   UNL     1      32.861 -18.448 -20.857  0.00  0.00    +0.034 C 
ATOM     23  C   UNL     1      35.237 -17.664 -21.191  0.00  0.00    +0.034 C 
BRANCH  21  24
ATOM     24  O   UNL     1      33.678 -17.772 -22.993  0.00  0.00    -0.383 OA
ATOM     25  H   UNL     1      34.548 -18.065 -23.305  0.00  0.00    +0.211 HD
ENDBRANCH  21  24
ENDBRANCH   9  21
BRANCH   1  26
ATOM     26  C   UNL     1      33.286 -12.682 -24.345  0.00  0.00    +0.108 C 
BRANCH  26  28
ATOM     27  O   UNL     1      35.341  -9.264 -25.863  0.00  0.00    -0.354 OA
ATOM     28  C   UNL     1      34.429 -11.717 -24.651  0.00  0.00    +0.030 C 
ATOM     29  C   UNL     1      34.172 -10.341 -24.026  0.00  0.00    +0.034 C 
ATOM     30  C   UNL     1      34.642 -11.571 -26.161  0.00  0.00    +0.034 C 
ATOM     31  C   UNL     1      35.697 -10.512 -26.457  0.00  0.00    +0.142 C 
ATOM     32  C   UNL     1      35.254  -9.351 -24.441  0.00  0.00    +0.142 C 
ENDBRANCH  26  28
BRANCH  26  33
ATOM     33  C   UNL     1      33.528 -14.090 -24.871  0.00  0.00    -0.002 C 
ATOM     34  C   UNL     1      32.607 -14.677 -25.741  0.00  0.00    -0.002 C 
ATOM     35  C   UNL     1      34.668 -14.792 -24.487  0.00  0.00    -0.002 C 
ATOM     36  C   UNL     1      32.828 -15.967 -26.223  0.00  0.00    -0.000 C 
ATOM     37  C   UNL     1      34.890 -16.082 -24.970  0.00  0.00    -0.000 C 
ATOM     38  C   UNL     1      33.970 -16.669 -25.838  0.00  0.00    -0.000 C 
ENDBRANCH  26  33
ENDBRANCH   1  26
TORSDOF 6
ENDMDL
MODEL 3
REMARK VINA RESULT:      -9.0      2.755      6.685
REMARK  Name = 118196485
REMARK  6 active torsions:
REMARK  status: ('A' for Active; 'I' for Inactive)
REMARK    1  A    between atoms: N_1  and  C_26
REMARK    2  A    between atoms: C_9  and  C_21
REMARK    3  A    between atoms: C_12  and  C_17
REMARK    4  A    between atoms: C_21  and  O_24
REMARK    5  A    between atoms: C_26  and  C_28
REMARK    6  A    between atoms: C_26  and  C_33
REMARK                            x       y       z     vdW  Elec       q    Type
REMARK                         _______ _______ _______ _____ _____    ______ ____
ROOT
ATOM      1  N   UNL     1      33.552 -11.233 -22.804  0.00  0.00    -0.324 N 
ATOM      2  N   UNL     1      32.176 -14.131 -21.339  0.00  0.00    -0.243 NA
ATOM      3  C   UNL     1      32.857 -10.627 -21.781  0.00  0.00    +0.061 A 
ATOM      4  C   UNL     1      33.383 -12.594 -22.761  0.00  0.00    +0.078 A 
ATOM      5  C   UNL     1      32.218 -11.635 -21.055  0.00  0.00    +0.035 A 
ATOM      6  C   UNL     1      32.554 -12.870 -21.677  0.00  0.00    +0.098 A 
ATOM      7  C   UNL     1      32.748  -9.272 -21.447  0.00  0.00    +0.015 C 
ATOM      8  C   UNL     1      33.879 -13.613 -23.572  0.00  0.00    +0.018 C 
ATOM      9  C   UNL     1      31.962  -8.939 -20.340  0.00  0.00    +0.003 C 
ATOM     10  C   UNL     1      31.432 -11.274 -19.942  0.00  0.00    +0.003 C 
ATOM     11  C   UNL     1      31.314  -9.923 -19.597  0.00  0.00    -0.002 C 
ATOM     12  C   UNL     1      33.500 -14.908 -23.235  0.00  0.00    +0.020 C 
ATOM     13  C   UNL     1      32.670 -15.102 -22.140  0.00  0.00    +0.096 C 
ENDROOT
BRANCH  12  17
ATOM     14  N   UNL     1      34.774 -17.015 -23.544  0.00  0.00    -0.159 NA
ATOM     15  N   UNL     1      35.040 -17.930 -24.491  0.00  0.00    -0.063 NA
ATOM     16  N   UNL     1      34.403 -17.553 -25.594  0.00  0.00    -0.154 NA
ATOM     17  C   UNL     1      33.962 -16.030 -24.014  0.00  0.00    +0.140 C 
ATOM     18  C   UNL     1      33.738 -16.391 -25.319  0.00  0.00    +0.078 C 
ATOM     19  C   UNL     1      35.338 -17.161 -22.224  0.00  0.00    +0.115 C 
ATOM     20  C   UNL     1      32.934 -15.720 -26.350  0.00  0.00    +0.051 C 
ENDBRANCH  12  17
BRANCH   9  21
ATOM     21  C   UNL     1      31.818  -7.505 -19.948  0.00  0.00    +0.107 C 
ATOM     22  C   UNL     1      30.735  -7.303 -18.863  0.00  0.00    +0.034 C 
ATOM     23  C   UNL     1      31.503  -6.599 -21.162  0.00  0.00    +0.034 C 
BRANCH  21  24
ATOM     24  O   UNL     1      33.040  -6.982 -19.380  0.00  0.00    -0.383 OA
ATOM     25  H   UNL     1      33.610  -6.649 -20.091  0.00  0.00    +0.211 HD
ENDBRANCH  21  24
ENDBRANCH   9  21
BRANCH   1  26
ATOM     26  C   UNL     1      34.351 -10.532 -23.788  0.00  0.00    +0.108 C 
BRANCH  26  28
ATOM     27  O   UNL     1      34.316 -11.694 -27.894  0.00  0.00    -0.354 OA
ATOM     28  C   UNL     1      34.608 -11.361 -25.044  0.00  0.00    +0.030 C 
ATOM     29  C   UNL     1      35.452 -10.580 -26.059  0.00  0.00    +0.034 C 
ATOM     30  C   UNL     1      33.293 -11.805 -25.694  0.00  0.00    +0.034 C 
ATOM     31  C   UNL     1      33.559 -12.522 -27.012  0.00  0.00    +0.142 C 
ATOM     32  C   UNL     1      35.597 -11.365 -27.356  0.00  0.00    +0.142 C 
ENDBRANCH  26  28
BRANCH  26  33
ATOM     33  C   UNL     1      33.802  -9.144 -24.082  0.00  0.00    -0.002 C 
ATOM     34  C   UNL     1      32.442  -8.973 -24.346  0.00  0.00    -0.002 C 
ATOM     35  C   UNL     1      34.656  -8.042 -24.087  0.00  0.00    -0.002 C 
ATOM     36  C   UNL     1      31.939  -7.701 -24.616  0.00  0.00    -0.000 C 
ATOM     37  C   UNL     1      34.152  -6.769 -24.355  0.00  0.00    -0.000 C 
ATOM     38  C   UNL     1      32.794  -6.599 -24.619  0.00  0.00    -0.000 C 
ENDBRANCH  26  33
ENDBRANCH   1  26
TORSDOF 6
ENDMDL
MODEL 4
REMARK VINA RESULT:      -8.6      2.728      6.803
REMARK  Name = 118196485
REMARK  6 active torsions:
REMARK  status: ('A' for Active; 'I' for Inactive)
REMARK    1  A    between atoms: N_1  and  C_26
REMARK    2  A    between atoms: C_9  and  C_21
REMARK    3  A    between atoms: C_12  and  C_17
REMARK    4  A    between atoms: C_21  and  O_24
REMARK    5  A    between atoms: C_26  and  C_28
REMARK    6  A    between atoms: C_26  and  C_33
REMARK                            x       y       z     vdW  Elec       q    Type
REMARK                         _______ _______ _______ _____ _____    ______ ____
ROOT
ATOM      1  N   UNL     1      33.295 -12.670 -22.604  0.00  0.00    -0.324 N 
ATOM      2  N   UNL     1      32.438 -14.783 -19.914  0.00  0.00    -0.243 NA
ATOM      3  C   UNL     1      32.728 -11.722 -21.781  0.00  0.00    +0.061 A 
ATOM      4  C   UNL     1      33.255 -13.907 -22.013  0.00  0.00    +0.078 A 
ATOM      5  C   UNL     1      32.307 -12.375 -20.620  0.00  0.00    +0.035 A 
ATOM      6  C   UNL     1      32.643 -13.750 -20.773  0.00  0.00    +0.098 A 
ATOM      7  C   UNL     1      32.556 -10.347 -21.978  0.00  0.00    +0.015 C 
ATOM      8  C   UNL     1      33.698 -15.154 -22.449  0.00  0.00    +0.018 C 
ATOM      9  C   UNL     1      31.938  -9.619 -20.957  0.00  0.00    +0.003 C 
ATOM     10  C   UNL     1      31.686 -11.619 -19.605  0.00  0.00    +0.003 C 
ATOM     11  C   UNL     1      31.508 -10.244 -19.788  0.00  0.00    -0.002 C 
ATOM     12  C   UNL     1      33.494 -16.220 -21.579  0.00  0.00    +0.020 C 
ATOM     13  C   UNL     1      32.876 -15.982 -20.359  0.00  0.00    +0.096 C 
ENDROOT
BRANCH  12  17
ATOM     14  N   UNL     1      34.876 -17.831 -22.864  0.00  0.00    -0.159 NA
ATOM     15  N   UNL     1      35.064 -19.155 -22.994  0.00  0.00    -0.063 NA
ATOM     16  N   UNL     1      34.229 -19.756 -22.154  0.00  0.00    -0.154 NA
ATOM     17  C   UNL     1      33.918 -17.550 -21.940  0.00  0.00    +0.140 C 
ATOM     18  C   UNL     1      33.519 -18.787 -21.501  0.00  0.00    +0.078 C 
ATOM     19  C   UNL     1      35.651 -16.912 -23.662  0.00  0.00    +0.115 C 
ATOM     20  C   UNL     1      32.507 -19.141 -20.497  0.00  0.00    +0.051 C 
ENDBRANCH  12  17
BRANCH   9  21
ATOM     21  C   UNL     1      31.735  -8.149 -21.125  0.00  0.00    +0.107 C 
ATOM     22  C   UNL     1      30.811  -7.821 -22.321  0.00  0.00    +0.034 C 
ATOM     23  C   UNL     1      33.074  -7.392 -21.290  0.00  0.00    +0.034 C 
BRANCH  21  24
ATOM     24  O   UNL     1      31.096  -7.563 -19.968  0.00  0.00    -0.383 OA
ATOM     25  H   UNL     1      30.256  -8.018 -19.799  0.00  0.00    +0.211 HD
ENDBRANCH  21  24
ENDBRANCH   9  21
BRANCH   1  26
ATOM     26  C   UNL     1      33.857 -12.398 -23.911  0.00  0.00    +0.108 C 
BRANCH  26  28
ATOM     27  O   UNL     1      33.331 -14.723 -27.452  0.00  0.00    -0.354 OA
ATOM     28  C   UNL     1      33.156 -13.164 -25.031  0.00  0.00    +0.030 C 
ATOM     29  C   UNL     1      33.572 -14.640 -25.036  0.00  0.00    +0.034 C 
ATOM     30  C   UNL     1      33.449 -12.537 -26.398  0.00  0.00    +0.034 C 
ATOM     31  C   UNL     1      32.849 -13.380 -27.517  0.00  0.00    +0.142 C 
ATOM     32  C   UNL     1      32.966 -15.366 -26.231  0.00  0.00    +0.142 C 
ENDBRANCH  26  28
BRANCH  26  33
ATOM     33  C   UNL     1      33.973 -10.905 -24.182  0.00  0.00    -0.002 C 
ATOM     34  C   UNL     1      32.830 -10.157 -24.465  0.00  0.00    -0.002 C 
ATOM     35  C   UNL     1      35.220 -10.284 -24.144  0.00  0.00    -0.002 C 
ATOM     36  C   UNL     1      32.935  -8.788 -24.713  0.00  0.00    -0.000 C 
ATOM     37  C   UNL     1      35.326  -8.915 -24.391  0.00  0.00    -0.000 C 
ATOM     38  C   UNL     1      34.184  -8.167 -24.675  0.00  0.00    -0.000 C 
ENDBRANCH  26  33
ENDBRANCH   1  26
TORSDOF 6
ENDMDL
MODEL 5
REMARK VINA RESULT:      -8.5      2.906      7.470
REMARK  Name = 118196485
REMARK  6 active torsions:
REMARK  status: ('A' for Active; 'I' for Inactive)
REMARK    1  A    between atoms: N_1  and  C_26
REMARK    2  A    between atoms: C_9  and  C_21
REMARK    3  A    between atoms: C_12  and  C_17
REMARK    4  A    between atoms: C_21  and  O_24
REMARK    5  A    between atoms: C_26  and  C_28
REMARK    6  A    between atoms: C_26  and  C_33
REMARK                            x       y       z     vdW  Elec       q    Type
REMARK                         _______ _______ _______ _____ _____    ______ ____
ROOT
ATOM      1  N   UNL     1      32.946 -12.963 -23.174  0.00  0.00    -0.324 N 
ATOM      2  N   UNL     1      32.612 -14.353 -19.950  0.00  0.00    -0.243 NA
ATOM      3  C   UNL     1      32.469 -11.846 -22.526  0.00  0.00    +0.061 A 
ATOM      4  C   UNL     1      33.055 -14.016 -22.302  0.00  0.00    +0.078 A 
ATOM      5  C   UNL     1      32.263 -12.195 -21.189  0.00  0.00    +0.035 A 
ATOM      6  C   UNL     1      32.635 -13.562 -21.055  0.00  0.00    +0.098 A 
ATOM      7  C   UNL     1      32.206 -10.562 -23.020  0.00  0.00    +0.015 C 
ATOM      8  C   UNL     1      33.484 -15.330 -22.488  0.00  0.00    +0.018 C 
ATOM      9  C   UNL     1      31.718  -9.610 -22.120  0.00  0.00    +0.003 C 
ATOM     10  C   UNL     1      31.771 -11.216 -20.301  0.00  0.00    +0.003 C 
ATOM     11  C   UNL     1      31.503  -9.930 -20.781  0.00  0.00    -0.002 C 
ATOM     12  C   UNL     1      33.466 -16.149 -21.364  0.00  0.00    +0.020 C 
ATOM     13  C   UNL     1      33.032 -15.621 -20.155  0.00  0.00    +0.096 C 
ENDROOT
BRANCH  12  17
ATOM     14  N   UNL     1      33.121 -18.594 -21.119  0.00  0.00    -0.159 NA
ATOM     15  N   UNL     1      33.776 -19.752 -21.306  0.00  0.00    -0.063 NA
ATOM     16  N   UNL     1      34.984 -19.451 -21.768  0.00  0.00    -0.154 NA
ATOM     17  C   UNL     1      33.891 -17.523 -21.455  0.00  0.00    +0.140 C 
ATOM     18  C   UNL     1      35.071 -18.090 -21.865  0.00  0.00    +0.078 C 
ATOM     19  C   UNL     1      31.769 -18.605 -20.615  0.00  0.00    +0.115 C 
ATOM     20  C   UNL     1      36.299 -17.445 -22.351  0.00  0.00    +0.051 C 
ENDBRANCH  12  17
BRANCH   9  21
ATOM     21  C   UNL     1      31.424  -8.228 -22.605  0.00  0.00    +0.107 C 
ATOM     22  C   UNL     1      32.420  -7.770 -23.696  0.00  0.00    +0.034 C 
ATOM     23  C   UNL     1      31.415  -7.196 -21.453  0.00  0.00    +0.034 C 
BRANCH  21  24
ATOM     24  O   UNL     1      30.115  -8.144 -23.213  0.00  0.00    -0.383 OA
ATOM     25  H   UNL     1      30.211  -7.951 -24.159  0.00  0.00    +0.211 HD
ENDBRANCH  21  24
ENDBRANCH   9  21
BRANCH   1  26
ATOM     26  C   UNL     1      33.288 -13.019 -24.581  0.00  0.00    +0.108 C 
BRANCH  26  28
ATOM     27  O   UNL     1      35.360  -9.596 -26.066  0.00  0.00    -0.354 OA
ATOM     28  C   UNL     1      34.444 -12.093 -24.949  0.00  0.00    +0.030 C 
ATOM     29  C   UNL     1      34.354 -10.765 -24.189  0.00  0.00    +0.034 C 
ATOM     30  C   UNL     1      34.482 -11.827 -26.458  0.00  0.00    +0.034 C 
ATOM     31  C   UNL     1      35.560 -10.806 -26.798  0.00  0.00    +0.142 C 
ATOM     32  C   UNL     1      35.439  -9.803 -24.656  0.00  0.00    +0.142 C 
ENDBRANCH  26  28
BRANCH  26  33
ATOM     33  C   UNL     1      33.481 -14.449 -25.063  0.00  0.00    -0.002 C 
ATOM     34  C   UNL     1      32.527 -15.041 -25.891  0.00  0.00    -0.002 C 
ATOM     35  C   UNL     1      34.612 -15.168 -24.678  0.00  0.00    -0.002 C 
ATOM     36  C   UNL     1      32.704 -16.352 -26.333  0.00  0.00    -0.000 C 
ATOM     37  C   UNL     1      34.790 -16.479 -25.121  0.00  0.00    -0.000 C 
ATOM     38  C   UNL     1      33.836 -17.071 -25.949  0.00  0.00    -0.000 C 
ENDBRANCH  26  33
ENDBRANCH   1  26
TORSDOF 6
ENDMDL
MODEL 6
REMARK VINA RESULT:      -7.6      2.759      7.976
REMARK  Name = 118196485
REMARK  6 active torsions:
REMARK  status: ('A' for Active; 'I' for Inactive)
REMARK    1  A    between atoms: N_1  and  C_26
REMARK    2  A    between atoms: C_9  and  C_21
REMARK    3  A    between atoms: C_12  and  C_17
REMARK    4  A    between atoms: C_21  and  O_24
REMARK    5  A    between atoms: C_26  and  C_28
REMARK    6  A    between atoms: C_26  and  C_33
REMARK                            x       y       z     vdW  Elec       q    Type
REMARK                         _______ _______ _______ _____ _____    ______ ____
ROOT
ATOM      1  N   UNL     1      32.700 -12.757 -22.728  0.00  0.00    -0.324 N 
ATOM      2  N   UNL     1      34.409 -13.344 -25.756  0.00  0.00    -0.243 NA
ATOM      3  C   UNL     1      32.936 -11.447 -23.078  0.00  0.00    +0.061 A 
ATOM      4  C   UNL     1      33.214 -13.609 -23.672  0.00  0.00    +0.078 A 
ATOM      5  C   UNL     1      33.628 -11.457 -24.291  0.00  0.00    +0.035 A 
ATOM      6  C   UNL     1      33.799 -12.822 -24.660  0.00  0.00    +0.098 A 
ATOM      7  C   UNL     1      32.592 -10.262 -22.416  0.00  0.00    +0.015 C 
ATOM      8  C   UNL     1      33.223 -15.001 -23.755  0.00  0.00    +0.018 C 
ATOM      9  C   UNL     1      32.966  -9.055 -23.013  0.00  0.00    +0.003 C 
ATOM     10  C   UNL     1      33.994 -10.226 -24.874  0.00  0.00    +0.003 C 
ATOM     11  C   UNL     1      33.656  -9.035 -24.222  0.00  0.00    -0.002 C 
ATOM     12  C   UNL     1      33.844 -15.547 -24.873  0.00  0.00    +0.020 C 
ATOM     13  C   UNL     1      34.405 -14.695 -25.815  0.00  0.00    +0.096 C 
ENDROOT
BRANCH  12  17
ATOM     14  N   UNL     1      33.120 -17.684 -25.907  0.00  0.00    -0.159 NA
ATOM     15  N   UNL     1      33.396 -18.998 -25.861  0.00  0.00    -0.063 NA
ATOM     16  N   UNL     1      34.367 -19.165 -24.970  0.00  0.00    -0.154 NA
ATOM     17  C   UNL     1      33.905 -16.976 -25.049  0.00  0.00    +0.140 C 
ATOM     18  C   UNL     1      34.690 -17.937 -24.464  0.00  0.00    +0.078 C 
ATOM     19  C   UNL     1      32.092 -17.195 -26.795  0.00  0.00    +0.115 C 
ATOM     20  C   UNL     1      35.741 -17.793 -23.447  0.00  0.00    +0.051 C 
ENDBRANCH  12  17
BRANCH   9  21
ATOM     21  C   UNL     1      32.619  -7.767 -22.340  0.00  0.00    +0.107 C 
ATOM     22  C   UNL     1      32.980  -7.780 -20.836  0.00  0.00    +0.034 C 
ATOM     23  C   UNL     1      31.123  -7.410 -22.504  0.00  0.00    +0.034 C 
BRANCH  21  24
ATOM     24  O   UNL     1      33.349  -6.656 -22.906  0.00  0.00    -0.383 OA
ATOM     25  H   UNL     1      32.950  -6.406 -23.754  0.00  0.00    +0.211 HD
ENDBRANCH  21  24
ENDBRANCH   9  21
BRANCH   1  26
ATOM     26  C   UNL     1      32.004 -13.179 -21.529  0.00  0.00    +0.108 C 
BRANCH  26  28
ATOM     27  O   UNL     1      34.397 -16.643 -20.831  0.00  0.00    -0.354 OA
ATOM     28  C   UNL     1      32.737 -14.285 -20.774  0.00  0.00    +0.030 C 
ATOM     29  C   UNL     1      34.246 -14.228 -21.036  0.00  0.00    +0.034 C 
ATOM     30  C   UNL     1      32.196 -15.668 -21.153  0.00  0.00    +0.034 C 
ATOM     31  C   UNL     1      33.016 -16.768 -20.491  0.00  0.00    +0.142 C 
ATOM     32  C   UNL     1      34.952 -15.408 -20.380  0.00  0.00    +0.142 C 
ENDBRANCH  26  28
BRANCH  26  33
ATOM     33  C   UNL     1      31.621 -11.998 -20.648  0.00  0.00    -0.002 C 
ATOM     34  C   UNL     1      30.481 -11.249 -20.944  0.00  0.00    -0.002 C 
ATOM     35  C   UNL     1      32.407 -11.665 -19.547  0.00  0.00    -0.002 C 
ATOM     36  C   UNL     1      30.130 -10.167 -20.138  0.00  0.00    -0.000 C 
ATOM     37  C   UNL     1      32.055 -10.584 -18.739  0.00  0.00    -0.000 C 
ATOM     38  C   UNL     1      30.916  -9.835 -19.034  0.00  0.00    -0.000 C 
ENDBRANCH  26  33
ENDBRANCH   1  26
TORSDOF 6
ENDMDL
MODEL 7
REMARK VINA RESULT:      -7.3      1.566      4.701
REMARK  Name = 118196485
REMARK  6 active torsions:
REMARK  status: ('A' for Active; 'I' for Inactive)
REMARK    1  A    between atoms: N_1  and  C_26
REMARK    2  A    between atoms: C_9  and  C_21
REMARK    3  A    between atoms: C_12  and  C_17
REMARK    4  A    between atoms: C_21  and  O_24
REMARK    5  A    between atoms: C_26  and  C_28
REMARK    6  A    between atoms: C_26  and  C_33
REMARK                            x       y       z     vdW  Elec       q    Type
REMARK                         _______ _______ _______ _____ _____    ______ ____
ROOT
ATOM      1  N   UNL     1      32.570 -12.680 -22.803  0.00  0.00    -0.324 N 
ATOM      2  N   UNL     1      33.527 -10.025 -24.917  0.00  0.00    -0.243 NA
ATOM      3  C   UNL     1      33.127 -13.426 -23.817  0.00  0.00    +0.061 A 
ATOM      4  C   UNL     1      32.652 -11.340 -23.089  0.00  0.00    +0.078 A 
ATOM      5  C   UNL     1      33.582 -12.534 -24.790  0.00  0.00    +0.035 A 
ATOM      6  C   UNL     1      33.281 -11.223 -24.325  0.00  0.00    +0.098 A 
ATOM      7  C   UNL     1      33.259 -14.814 -23.945  0.00  0.00    +0.015 C 
ATOM      8  C   UNL     1      32.234 -10.216 -22.379  0.00  0.00    +0.018 C 
ATOM      9  C   UNL     1      33.875 -15.302 -25.100  0.00  0.00    +0.003 C 
ATOM     10  C   UNL     1      34.201 -13.051 -25.948  0.00  0.00    +0.003 C 
ATOM     11  C   UNL     1      34.339 -14.436 -26.088  0.00  0.00    -0.002 C 
ATOM     12  C   UNL     1      32.481  -8.984 -22.975  0.00  0.00    +0.020 C 
ATOM     13  C   UNL     1      33.113  -8.950 -24.211  0.00  0.00    +0.096 C 
ENDROOT
BRANCH  12  17
ATOM     14  N   UNL     1      31.305  -6.801 -22.882  0.00  0.00    -0.159 NA
ATOM     15  N   UNL     1      31.099  -5.776 -22.039  0.00  0.00    -0.063 NA
ATOM     16  N   UNL     1      31.743  -6.056 -20.912  0.00  0.00    -0.154 NA
ATOM     17  C   UNL     1      32.085  -7.763 -22.319  0.00  0.00    +0.140 C 
ATOM     18  C   UNL     1      32.352  -7.270 -21.067  0.00  0.00    +0.078 C 
ATOM     19  C   UNL     1      30.722  -6.776 -24.202  0.00  0.00    +0.115 C 
ATOM     20  C   UNL     1      33.150  -7.857 -19.981  0.00  0.00    +0.051 C 
ENDBRANCH  12  17
BRANCH   9  21
ATOM     21  C   UNL     1      34.037 -16.777 -25.277  0.00  0.00    +0.107 C 
ATOM     22  C   UNL     1      32.820 -17.415 -25.987  0.00  0.00    +0.034 C 
ATOM     23  C   UNL     1      34.283 -17.500 -23.932  0.00  0.00    +0.034 C 
BRANCH  21  24
ATOM     24  O   UNL     1      35.180 -17.092 -26.103  0.00  0.00    -0.383 OA
ATOM     25  H   UNL     1      35.838 -17.571 -25.575  0.00  0.00    +0.211 HD
ENDBRANCH  21  24
ENDBRANCH   9  21
BRANCH   1  26
ATOM     26  C   UNL     1      31.980 -13.231 -21.600  0.00  0.00    +0.108 C 
BRANCH  26  28
ATOM     27  O   UNL     1      34.587 -16.583 -21.175  0.00  0.00    -0.354 OA
ATOM     28  C   UNL     1      32.862 -14.284 -20.933  0.00  0.00    +0.030 C 
ATOM     29  C   UNL     1      34.311 -14.182 -21.423  0.00  0.00    +0.034 C 
ATOM     30  C   UNL     1      32.325 -15.697 -21.186  0.00  0.00    +0.034 C 
ATOM     31  C   UNL     1      33.280 -16.744 -20.625  0.00  0.00    +0.142 C 
ATOM     32  C   UNL     1      35.154 -15.314 -20.849  0.00  0.00    +0.142 C 
ENDBRANCH  26  28
BRANCH  26  33
ATOM     33  C   UNL     1      31.513 -12.142 -20.645  0.00  0.00    -0.002 C 
ATOM     34  C   UNL     1      32.260 -11.848 -19.503  0.00  0.00    -0.002 C 
ATOM     35  C   UNL     1      30.341 -11.436 -20.911  0.00  0.00    -0.002 C 
ATOM     36  C   UNL     1      31.833 -10.850 -18.628  0.00  0.00    -0.000 C 
ATOM     37  C   UNL     1      29.914 -10.437 -20.036  0.00  0.00    -0.000 C 
ATOM     38  C   UNL     1      30.660 -10.143 -18.895  0.00  0.00    -0.000 C 
ENDBRANCH  26  33
ENDBRANCH   1  26
TORSDOF 6
ENDMDL
MODEL 8
REMARK VINA RESULT:      -7.2      3.230      8.364
REMARK  Name = 118196485
REMARK  6 active torsions:
REMARK  status: ('A' for Active; 'I' for Inactive)
REMARK    1  A    between atoms: N_1  and  C_26
REMARK    2  A    between atoms: C_9  and  C_21
REMARK    3  A    between atoms: C_12  and  C_17
REMARK    4  A    between atoms: C_21  and  O_24
REMARK    5  A    between atoms: C_26  and  C_28
REMARK    6  A    between atoms: C_26  and  C_33
REMARK                            x       y       z     vdW  Elec       q    Type
REMARK                         _______ _______ _______ _____ _____    ______ ____
ROOT
ATOM      1  N   UNL     1      33.546 -12.895 -22.980  0.00  0.00    -0.324 N 
ATOM      2  N   UNL     1      33.911 -13.731 -26.387  0.00  0.00    -0.243 NA
ATOM      3  C   UNL     1      33.655 -11.619 -23.486  0.00  0.00    +0.061 A 
ATOM      4  C   UNL     1      33.627 -13.822 -23.988  0.00  0.00    +0.078 A 
ATOM      5  C   UNL     1      33.812 -11.730 -24.869  0.00  0.00    +0.035 A 
ATOM      6  C   UNL     1      33.794 -13.120 -25.178  0.00  0.00    +0.098 A 
ATOM      7  C   UNL     1      33.625 -10.384 -22.826  0.00  0.00    +0.015 C 
ATOM      8  C   UNL     1      33.571 -15.214 -23.971  0.00  0.00    +0.018 C 
ATOM      9  C   UNL     1      33.762  -9.232 -23.605  0.00  0.00    +0.003 C 
ATOM     10  C   UNL     1      33.948 -10.553 -25.633  0.00  0.00    +0.003 C 
ATOM     11  C   UNL     1      33.921  -9.312 -24.986  0.00  0.00    -0.002 C 
ATOM     12  C   UNL     1      33.690 -15.852 -25.202  0.00  0.00    +0.020 C 
ATOM     13  C   UNL     1      33.854 -15.081 -26.344  0.00  0.00    +0.096 C 
ENDROOT
BRANCH  12  17
ATOM     14  N   UNL     1      32.751 -17.991 -26.037  0.00  0.00    -0.159 NA
ATOM     15  N   UNL     1      32.945 -19.316 -25.924  0.00  0.00    -0.063 NA
ATOM     16  N   UNL     1      33.968 -19.496 -25.098  0.00  0.00    -0.154 NA
ATOM     17  C   UNL     1      33.644 -17.290 -25.287  0.00  0.00    +0.140 C 
ATOM     18  C   UNL     1      34.408 -18.265 -24.698  0.00  0.00    +0.078 C 
ATOM     19  C   UNL     1      31.692 -17.487 -26.878  0.00  0.00    +0.115 C 
ATOM     20  C   UNL     1      35.541 -18.133 -23.772  0.00  0.00    +0.051 C 
ENDBRANCH  12  17
BRANCH   9  21
ATOM     21  C   UNL     1      33.737  -7.893 -22.942  0.00  0.00    +0.107 C 
ATOM     22  C   UNL     1      32.996  -7.930 -21.584  0.00  0.00    +0.034 C 
ATOM     23  C   UNL     1      33.100  -6.809 -23.843  0.00  0.00    +0.034 C 
BRANCH  21  24
ATOM     24  O   UNL     1      35.070  -7.420 -22.645  0.00  0.00    -0.383 OA
ATOM     25  H   UNL     1      35.014  -6.625 -22.093  0.00  0.00    +0.211 HD
ENDBRANCH  21  24
ENDBRANCH   9  21
BRANCH   1  26
ATOM     26  C   UNL     1      33.369 -13.216 -21.578  0.00  0.00    +0.108 C 
BRANCH  26  28
ATOM     27  O   UNL     1      30.494 -10.322 -20.324  0.00  0.00    -0.354 OA
ATOM     28  C   UNL     1      32.085 -12.633 -20.992  0.00  0.00    +0.030 C 
ATOM     29  C   UNL     1      31.312 -11.830 -22.044  0.00  0.00    +0.034 C 
ATOM     30  C   UNL     1      32.383 -11.747 -19.778  0.00  0.00    +0.034 C 
ATOM     31  C   UNL     1      31.112 -11.072 -19.279  0.00  0.00    +0.142 C 
ATOM     32  C   UNL     1      30.101 -11.149 -21.419  0.00  0.00    +0.142 C 
ENDBRANCH  26  28
BRANCH  26  33
ATOM     33  C   UNL     1      33.533 -14.705 -21.310  0.00  0.00    -0.002 C 
ATOM     34  C   UNL     1      32.408 -15.524 -21.210  0.00  0.00    -0.002 C 
ATOM     35  C   UNL     1      34.807 -15.252 -21.167  0.00  0.00    -0.002 C 
ATOM     36  C   UNL     1      32.558 -16.889 -20.964  0.00  0.00    -0.000 C 
ATOM     37  C   UNL     1      34.958 -16.617 -20.923  0.00  0.00    -0.000 C 
ATOM     38  C   UNL     1      33.833 -17.435 -20.822  0.00  0.00    -0.000 C 
ENDBRANCH  26  33
ENDBRANCH   1  26
TORSDOF 6
ENDMDL
MODEL 9
REMARK VINA RESULT:      -7.0      2.123      5.229
REMARK  Name = 118196485
REMARK  6 active torsions:
REMARK  status: ('A' for Active; 'I' for Inactive)
REMARK    1  A    between atoms: N_1  and  C_26
REMARK    2  A    between atoms: C_9  and  C_21
REMARK    3  A    between atoms: C_12  and  C_17
REMARK    4  A    between atoms: C_21  and  O_24
REMARK    5  A    between atoms: C_26  and  C_28
REMARK    6  A    between atoms: C_26  and  C_33
REMARK                            x       y       z     vdW  Elec       q    Type
REMARK                         _______ _______ _______ _____ _____    ______ ____
ROOT
ATOM      1  N   UNL     1      33.220 -12.524 -22.595  0.00  0.00    -0.324 N 
ATOM      2  N   UNL     1      32.887 -10.109 -25.143  0.00  0.00    -0.243 NA
ATOM      3  C   UNL     1      33.486 -13.337 -23.674  0.00  0.00    +0.061 A 
ATOM      4  C   UNL     1      32.968 -11.240 -23.010  0.00  0.00    +0.078 A 
ATOM      5  C   UNL     1      33.401 -12.548 -24.823  0.00  0.00    +0.035 A 
ATOM      6  C   UNL     1      33.076 -11.229 -24.397  0.00  0.00    +0.098 A 
ATOM      7  C   UNL     1      33.792 -14.702 -23.718  0.00  0.00    +0.015 C 
ATOM      8  C   UNL     1      32.655 -10.084 -22.297  0.00  0.00    +0.018 C 
ATOM      9  C   UNL     1      34.018 -15.275 -24.973  0.00  0.00    +0.003 C 
ATOM     10  C   UNL     1      33.634 -13.148 -26.077  0.00  0.00    +0.003 C 
ATOM     11  C   UNL     1      33.941 -14.512 -26.135  0.00  0.00    -0.002 C 
ATOM     12  C   UNL     1      32.460  -8.931 -23.050  0.00  0.00    +0.020 C 
ATOM     13  C   UNL     1      32.585  -9.000 -24.431  0.00  0.00    +0.096 C 
ENDROOT
BRANCH  12  17
ATOM     14  N   UNL     1      31.525  -6.632 -23.019  0.00  0.00    -0.159 NA
ATOM     15  N   UNL     1      31.344  -5.604 -22.173  0.00  0.00    -0.063 NA
ATOM     16  N   UNL     1      31.831  -5.973 -20.994  0.00  0.00    -0.154 NA
ATOM     17  C   UNL     1      32.132  -7.684 -22.405  0.00  0.00    +0.140 C 
ATOM     18  C   UNL     1      32.318  -7.244 -21.118  0.00  0.00    +0.078 C 
ATOM     19  C   UNL     1      31.091  -6.521 -24.390  0.00  0.00    +0.115 C 
ATOM     20  C   UNL     1      32.928  -7.934 -19.973  0.00  0.00    +0.051 C 
ENDBRANCH  12  17
BRANCH   9  21
ATOM     21  C   UNL     1      34.348 -16.729 -25.065  0.00  0.00    +0.107 C 
ATOM     22  C   UNL     1      33.136 -17.573 -25.528  0.00  0.00    +0.034 C 
ATOM     23  C   UNL     1      34.881 -17.291 -23.726  0.00  0.00    +0.034 C 
BRANCH  21  24
ATOM     24  O   UNL     1      35.390 -16.979 -26.035  0.00  0.00    -0.383 OA
ATOM     25  H   UNL     1      35.511 -17.935 -26.139  0.00  0.00    +0.211 HD
ENDBRANCH  21  24
ENDBRANCH   9  21
BRANCH   1  26
ATOM     26  C   UNL     1      33.208 -12.961 -21.214  0.00  0.00    +0.108 C 
BRANCH  26  28
ATOM     27  O   UNL     1      30.323 -10.249 -19.623  0.00  0.00    -0.354 OA
ATOM     28  C   UNL     1      31.995 -12.453 -20.440  0.00  0.00    +0.030 C 
ATOM     29  C   UNL     1      30.974 -11.798 -21.377  0.00  0.00    +0.034 C 
ATOM     30  C   UNL     1      32.410 -11.461 -19.348  0.00  0.00    +0.034 C 
ATOM     31  C   UNL     1      31.184 -10.866 -18.666  0.00  0.00    +0.142 C 
ATOM     32  C   UNL     1      29.829 -11.184 -20.582  0.00  0.00    +0.142 C 
ENDBRANCH  26  28
BRANCH  26  33
ATOM     33  C   UNL     1      33.417 -14.464 -21.092  0.00  0.00    -0.002 C 
ATOM     34  C   UNL     1      34.696 -14.974 -20.868  0.00  0.00    -0.002 C 
ATOM     35  C   UNL     1      32.331 -15.330 -21.202  0.00  0.00    -0.002 C 
ATOM     36  C   UNL     1      34.888 -16.351 -20.756  0.00  0.00    -0.000 C 
ATOM     37  C   UNL     1      32.522 -16.708 -21.089  0.00  0.00    -0.000 C 
ATOM     38  C   UNL     1      33.801 -17.218 -20.866  0.00  0.00    -0.000 C 
ENDBRANCH  26  33
ENDBRANCH   1  26
TORSDOF 6
ENDMDL
