MODEL 1
REMARK VINA RESULT:      -8.4      0.000      0.000
REMARK  Name = 5467
REMARK  8 active torsions:
REMARK  status: ('A' for Active; 'I' for Inactive)
REMARK    1  A    between atoms: C_1  and  C_13
REMARK    2  A    between atoms: C_2  and  S_7
REMARK    3  A    between atoms: C_4  and  O_23
REMARK    4  A    between atoms: N_12  and  C_15
REMARK    5  A    between atoms: C_15  and  C_16
REMARK    6  A    between atoms: C_16  and  N_17
REMARK    7  A    between atoms: N_17  and  C_19
REMARK    8  A    between atoms: N_17  and  C_21
REMARK                            x       y       z     vdW  Elec       q    Type
REMARK                         _______ _______ _______ _____ _____    ______ ____
ROOT
ATOM      1  C   UNL     1      33.715 -23.024 -17.459  0.00  0.00    +0.089 C 
ATOM      2  C   UNL     1      31.741 -23.121 -16.113  0.00  0.00    +0.106 C 
ATOM      3  C   UNL     1      32.339 -22.963 -17.364  0.00  0.00    +0.026 C 
ATOM      4  C   UNL     1      34.518 -23.235 -16.357  0.00  0.00    +0.143 C 
ATOM      5  C   UNL     1      32.532 -23.335 -14.984  0.00  0.00    +0.021 C 
ATOM      6  C   UNL     1      33.921 -23.392 -15.106  0.00  0.00    +0.038 C 
ENDROOT
BRANCH   2   7
ATOM      7  S   UNL     1      30.003 -23.049 -15.960  0.00  0.00    +0.010 S 
ATOM      8  O   UNL     1      29.691 -22.448 -14.671  0.00  0.00    -0.169 OA
ATOM      9  O   UNL     1      29.445 -22.478 -17.178  0.00  0.00    -0.169 OA
ATOM     10  C   UNL     1      29.494 -24.752 -15.905  0.00  0.00    +0.182 C 
ENDBRANCH   2   7
BRANCH   1  13
ATOM     11  O   UNL     1      34.008 -23.613 -19.709  0.00  0.00    -0.270 OA
ATOM     12  N   UNL     1      35.231 -21.802 -18.931  0.00  0.00    -0.303 N 
ATOM     13  C   UNL     1      34.330 -22.853 -18.800  0.00  0.00    +0.249 C 
ATOM     14  H   UNL     1      35.426 -21.246 -18.141  0.00  0.00    +0.150 HD
BRANCH  12  15
ATOM     15  C   UNL     1      35.890 -21.494 -20.170  0.00  0.00    +0.067 C 
BRANCH  15  16
ATOM     16  C   UNL     1      35.861 -20.000 -20.454  0.00  0.00    -0.056 C 
BRANCH  16  17
ATOM     17  N   UNL     1      34.917 -19.704 -21.531  0.00  0.00    +0.388 N 
ATOM     18  H   UNL     1      34.617 -20.586 -21.947  0.00  0.00    -0.080 HD
BRANCH  17  19
ATOM     19  C   UNL     1      33.741 -19.015 -21.005  0.00  0.00    -0.077 C 
ATOM     20  C   UNL     1      32.659 -20.002 -20.600  0.00  0.00    -0.025 C 
ENDBRANCH  17  19
BRANCH  17  21
ATOM     21  C   UNL     1      35.561 -18.898 -22.568  0.00  0.00    -0.077 C 
ATOM     22  C   UNL     1      34.796 -18.979 -23.879  0.00  0.00    -0.025 C 
ENDBRANCH  17  21
ENDBRANCH  16  17
ENDBRANCH  15  16
ENDBRANCH  12  15
ENDBRANCH   1  13
BRANCH   4  23
ATOM     23  O   UNL     1      35.876 -23.294 -16.456  0.00  0.00    -0.471 OA
ATOM     24  C   UNL     1      36.626 -22.467 -15.568  0.00  0.00    +0.252 C 
ENDBRANCH   4  23
TORSDOF 8
ENDMDL
MODEL 2
REMARK VINA RESULT:      -8.2      3.877      6.319
REMARK  Name = 5467
REMARK  8 active torsions:
REMARK  status: ('A' for Active; 'I' for Inactive)
REMARK    1  A    between atoms: C_1  and  C_13
REMARK    2  A    between atoms: C_2  and  S_7
REMARK    3  A    between atoms: C_4  and  O_23
REMARK    4  A    between atoms: N_12  and  C_15
REMARK    5  A    between atoms: C_15  and  C_16
REMARK    6  A    between atoms: C_16  and  N_17
REMARK    7  A    between atoms: N_17  and  C_19
REMARK    8  A    between atoms: N_17  and  C_21
REMARK                            x       y       z     vdW  Elec       q    Type
REMARK                         _______ _______ _______ _____ _____    ______ ____
ROOT
ATOM      1  C   UNL     1      33.822 -23.546 -14.842  0.00  0.00    +0.089 C 
ATOM      2  C   UNL     1      31.735 -23.193 -15.955  0.00  0.00    +0.106 C 
ATOM      3  C   UNL     1      32.446 -23.445 -14.781  0.00  0.00    +0.026 C 
ATOM      4  C   UNL     1      34.516 -23.405 -16.027  0.00  0.00    +0.143 C 
ATOM      5  C   UNL     1      32.415 -23.047 -17.164  0.00  0.00    +0.021 C 
ATOM      6  C   UNL     1      33.805 -23.152 -17.200  0.00  0.00    +0.038 C 
ENDROOT
BRANCH   2   7
ATOM      7  S   UNL     1      29.995 -23.060 -15.910  0.00  0.00    +0.010 S 
ATOM      8  O   UNL     1      29.624 -22.445 -14.642  0.00  0.00    -0.169 OA
ATOM      9  O   UNL     1      29.533 -22.473 -17.160  0.00  0.00    -0.169 OA
ATOM     10  C   UNL     1      29.424 -24.744 -15.886  0.00  0.00    +0.182 C 
ENDBRANCH   2   7
BRANCH   1  13
ATOM     11  O   UNL     1      34.068 -24.574 -12.749  0.00  0.00    -0.270 OA
ATOM     12  N   UNL     1      35.794 -23.191 -13.448  0.00  0.00    -0.303 N 
ATOM     13  C   UNL     1      34.559 -23.816 -13.581  0.00  0.00    +0.249 C 
ATOM     14  H   UNL     1      36.104 -22.599 -14.172  0.00  0.00    +0.150 HD
BRANCH  12  15
ATOM     15  C   UNL     1      36.635 -23.372 -12.298  0.00  0.00    +0.067 C 
BRANCH  15  16
ATOM     16  C   UNL     1      37.716 -24.410 -12.563  0.00  0.00    -0.056 C 
BRANCH  16  17
ATOM     17  N   UNL     1      37.595 -24.934 -13.923  0.00  0.00    +0.388 N 
ATOM     18  H   UNL     1      36.866 -24.410 -14.407  0.00  0.00    -0.080 HD
BRANCH  17  19
ATOM     19  C   UNL     1      38.851 -24.762 -14.651  0.00  0.00    -0.077 C 
ATOM     20  C   UNL     1      39.980 -25.533 -13.989  0.00  0.00    -0.025 C 
ENDBRANCH  17  19
BRANCH  17  21
ATOM     21  C   UNL     1      37.209 -26.345 -13.895  0.00  0.00    -0.077 C 
ATOM     22  C   UNL     1      36.705 -26.803 -15.253  0.00  0.00    -0.025 C 
ENDBRANCH  17  21
ENDBRANCH  16  17
ENDBRANCH  15  16
ENDBRANCH  12  15
ENDBRANCH   1  13
BRANCH   4  23
ATOM     23  O   UNL     1      35.874 -23.504 -16.082  0.00  0.00    -0.471 OA
ATOM     24  C   UNL     1      36.581 -22.400 -16.643  0.00  0.00    +0.252 C 
ENDBRANCH   4  23
TORSDOF 8
ENDMDL
MODEL 3
REMARK VINA RESULT:      -8.2      1.099      2.030
REMARK  Name = 5467
REMARK  8 active torsions:
REMARK  status: ('A' for Active; 'I' for Inactive)
REMARK    1  A    between atoms: C_1  and  C_13
REMARK    2  A    between atoms: C_2  and  S_7
REMARK    3  A    between atoms: C_4  and  O_23
REMARK    4  A    between atoms: N_12  and  C_15
REMARK    5  A    between atoms: C_15  and  C_16
REMARK    6  A    between atoms: C_16  and  N_17
REMARK    7  A    between atoms: N_17  and  C_19
REMARK    8  A    between atoms: N_17  and  C_21
REMARK                            x       y       z     vdW  Elec       q    Type
REMARK                         _______ _______ _______ _____ _____    ______ ____
ROOT
ATOM      1  C   UNL     1      33.454 -23.036 -17.149  0.00  0.00    +0.089 C 
ATOM      2  C   UNL     1      32.198 -23.526 -15.175  0.00  0.00    +0.106 C 
ATOM      3  C   UNL     1      32.232 -23.236 -16.539  0.00  0.00    +0.026 C 
ATOM      4  C   UNL     1      34.643 -23.115 -16.453  0.00  0.00    +0.143 C 
ATOM      5  C   UNL     1      33.386 -23.610 -14.450  0.00  0.00    +0.021 C 
ATOM      6  C   UNL     1      34.610 -23.405 -15.089  0.00  0.00    +0.038 C 
ENDROOT
BRANCH   2   7
ATOM      7  S   UNL     1      30.667 -23.783 -14.375  0.00  0.00    +0.010 S 
ATOM      8  O   UNL     1      30.915 -23.842 -12.941  0.00  0.00    -0.169 OA
ATOM      9  O   UNL     1      29.693 -22.837 -14.902  0.00  0.00    -0.169 OA
ATOM     10  C   UNL     1      30.157 -25.402 -14.906  0.00  0.00    +0.182 C 
ENDBRANCH   2   7
BRANCH   1  13
ATOM     11  O   UNL     1      33.924 -23.555 -19.387  0.00  0.00    -0.270 OA
ATOM     12  N   UNL     1      32.926 -21.502 -18.973  0.00  0.00    -0.303 N 
ATOM     13  C   UNL     1      33.468 -22.728 -18.602  0.00  0.00    +0.249 C 
ATOM     14  H   UNL     1      32.585 -20.905 -18.268  0.00  0.00    +0.150 HD
BRANCH  12  15
ATOM     15  C   UNL     1      32.846 -21.072 -20.341  0.00  0.00    +0.067 C 
BRANCH  15  16
ATOM     16  C   UNL     1      33.588 -19.760 -20.551  0.00  0.00    -0.056 C 
BRANCH  16  17
ATOM     17  N   UNL     1      34.738 -19.962 -21.432  0.00  0.00    +0.388 N 
ATOM     18  H   UNL     1      34.783 -20.949 -21.682  0.00  0.00    -0.080 HD
BRANCH  17  19
ATOM     19  C   UNL     1      34.588 -19.179 -22.657  0.00  0.00    -0.077 C 
ATOM     20  C   UNL     1      35.810 -18.312 -22.909  0.00  0.00    -0.025 C 
ENDBRANCH  17  19
BRANCH  17  21
ATOM     21  C   UNL     1      35.978 -19.602 -20.743  0.00  0.00    -0.077 C 
ATOM     22  C   UNL     1      36.524 -20.775 -19.948  0.00  0.00    -0.025 C 
ENDBRANCH  17  21
ENDBRANCH  16  17
ENDBRANCH  15  16
ENDBRANCH  12  15
ENDBRANCH   1  13
BRANCH   4  23
ATOM     23  O   UNL     1      35.847 -22.917 -17.059  0.00  0.00    -0.471 OA
ATOM     24  C   UNL     1      36.796 -22.109 -16.366  0.00  0.00    +0.252 C 
ENDBRANCH   4  23
TORSDOF 8
ENDMDL
MODEL 4
REMARK VINA RESULT:      -8.0      1.883      4.112
REMARK  Name = 5467
REMARK  8 active torsions:
REMARK  status: ('A' for Active; 'I' for Inactive)
REMARK    1  A    between atoms: C_1  and  C_13
REMARK    2  A    between atoms: C_2  and  S_7
REMARK    3  A    between atoms: C_4  and  O_23
REMARK    4  A    between atoms: N_12  and  C_15
REMARK    5  A    between atoms: C_15  and  C_16
REMARK    6  A    between atoms: C_16  and  N_17
REMARK    7  A    between atoms: N_17  and  C_19
REMARK    8  A    between atoms: N_17  and  C_21
REMARK                            x       y       z     vdW  Elec       q    Type
REMARK                         _______ _______ _______ _____ _____    ______ ____
ROOT
ATOM      1  C   UNL     1      33.419 -22.951 -17.285  0.00  0.00    +0.089 C 
ATOM      2  C   UNL     1      34.597 -23.553 -15.293  0.00  0.00    +0.106 C 
ATOM      3  C   UNL     1      34.612 -23.237 -16.652  0.00  0.00    +0.026 C 
ATOM      4  C   UNL     1      32.211 -22.967 -16.617  0.00  0.00    +0.143 C 
ATOM      5  C   UNL     1      33.389 -23.576 -14.596  0.00  0.00    +0.021 C 
ATOM      6  C   UNL     1      32.196 -23.283 -15.257  0.00  0.00    +0.038 C 
ENDROOT
BRANCH   2   7
ATOM      7  S   UNL     1      36.090 -23.919 -14.465  0.00  0.00    +0.010 S 
ATOM      8  O   UNL     1      36.058 -23.254 -13.169  0.00  0.00    -0.169 OA
ATOM      9  O   UNL     1      36.329 -25.354 -14.534  0.00  0.00    -0.169 OA
ATOM     10  C   UNL     1      37.345 -23.135 -15.450  0.00  0.00    +0.182 C 
ENDBRANCH   2   7
BRANCH   1  13
ATOM     11  O   UNL     1      33.905 -23.442 -19.525  0.00  0.00    -0.270 OA
ATOM     12  N   UNL     1      32.949 -21.374 -19.088  0.00  0.00    -0.303 N 
ATOM     13  C   UNL     1      33.458 -22.618 -18.732  0.00  0.00    +0.249 C 
ATOM     14  H   UNL     1      32.612 -20.781 -18.377  0.00  0.00    +0.150 HD
BRANCH  12  15
ATOM     15  C   UNL     1      32.895 -20.919 -20.449  0.00  0.00    +0.067 C 
BRANCH  15  16
ATOM     16  C   UNL     1      33.590 -19.574 -20.609  0.00  0.00    -0.056 C 
BRANCH  16  17
ATOM     17  N   UNL     1      34.768 -19.709 -21.464  0.00  0.00    +0.388 N 
ATOM     18  H   UNL     1      34.765 -20.643 -21.874  0.00  0.00    -0.080 HD
BRANCH  17  19
ATOM     19  C   UNL     1      34.729 -18.728 -22.547  0.00  0.00    -0.077 C 
ATOM     20  C   UNL     1      34.875 -19.398 -23.902  0.00  0.00    -0.025 C 
ENDBRANCH  17  19
BRANCH  17  21
ATOM     21  C   UNL     1      35.992 -19.553 -20.677  0.00  0.00    -0.077 C 
ATOM     22  C   UNL     1      36.434 -20.880 -20.084  0.00  0.00    -0.025 C 
ENDBRANCH  17  21
ENDBRANCH  16  17
ENDBRANCH  15  16
ENDBRANCH  12  15
ENDBRANCH   1  13
BRANCH   4  23
ATOM     23  O   UNL     1      31.036 -22.684 -17.245  0.00  0.00    -0.471 OA
ATOM     24  C   UNL     1      29.840 -22.858 -16.488  0.00  0.00    +0.252 C 
ENDBRANCH   4  23
TORSDOF 8
ENDMDL
MODEL 5
REMARK VINA RESULT:      -8.0      3.709      7.231
REMARK  Name = 5467
REMARK  8 active torsions:
REMARK  status: ('A' for Active; 'I' for Inactive)
REMARK    1  A    between atoms: C_1  and  C_13
REMARK    2  A    between atoms: C_2  and  S_7
REMARK    3  A    between atoms: C_4  and  O_23
REMARK    4  A    between atoms: N_12  and  C_15
REMARK    5  A    between atoms: C_15  and  C_16
REMARK    6  A    between atoms: C_16  and  N_17
REMARK    7  A    between atoms: N_17  and  C_19
REMARK    8  A    between atoms: N_17  and  C_21
REMARK                            x       y       z     vdW  Elec       q    Type
REMARK                         _______ _______ _______ _____ _____    ______ ____
ROOT
ATOM      1  C   UNL     1      34.263 -23.445 -15.013  0.00  0.00    +0.089 C 
ATOM      2  C   UNL     1      33.752 -23.021 -17.310  0.00  0.00    +0.106 C 
ATOM      3  C   UNL     1      34.698 -23.199 -16.300  0.00  0.00    +0.026 C 
ATOM      4  C   UNL     1      32.923 -23.522 -14.693  0.00  0.00    +0.143 C 
ATOM      5  C   UNL     1      32.392 -23.093 -17.011  0.00  0.00    +0.021 C 
ATOM      6  C   UNL     1      31.976 -23.343 -15.703  0.00  0.00    +0.038 C 
ENDROOT
BRANCH   2   7
ATOM      7  S   UNL     1      34.271 -22.707 -18.947  0.00  0.00    +0.010 S 
ATOM      8  O   UNL     1      35.644 -22.223 -18.898  0.00  0.00    -0.169 OA
ATOM      9  O   UNL     1      33.940 -23.858 -19.776  0.00  0.00    -0.169 OA
ATOM     10  C   UNL     1      33.238 -21.364 -19.489  0.00  0.00    +0.182 C 
ENDBRANCH   2   7
BRANCH   1  13
ATOM     11  O   UNL     1      36.203 -22.819 -13.855  0.00  0.00    -0.270 OA
ATOM     12  N   UNL     1      35.110 -24.728 -13.117  0.00  0.00    -0.303 N 
ATOM     13  C   UNL     1      35.287 -23.631 -13.953  0.00  0.00    +0.249 C 
ATOM     14  H   UNL     1      34.343 -25.324 -13.276  0.00  0.00    +0.150 HD
BRANCH  12  15
ATOM     15  C   UNL     1      36.002 -25.027 -12.031  0.00  0.00    +0.067 C 
BRANCH  15  16
ATOM     16  C   UNL     1      37.050 -26.051 -12.444  0.00  0.00    -0.056 C 
BRANCH  16  17
ATOM     17  N   UNL     1      37.778 -25.585 -13.624  0.00  0.00    +0.388 N 
ATOM     18  H   UNL     1      37.248 -24.827 -14.052  0.00  0.00    -0.080 HD
BRANCH  17  19
ATOM     19  C   UNL     1      39.094 -25.075 -13.245  0.00  0.00    -0.077 C 
ATOM     20  C   UNL     1      40.162 -25.520 -14.229  0.00  0.00    -0.025 C 
ENDBRANCH  17  19
BRANCH  17  21
ATOM     21  C   UNL     1      37.911 -26.666 -14.602  0.00  0.00    -0.077 C 
ATOM     22  C   UNL     1      36.661 -26.790 -15.456  0.00  0.00    -0.025 C 
ENDBRANCH  17  21
ENDBRANCH  16  17
ENDBRANCH  15  16
ENDBRANCH  12  15
ENDBRANCH   1  13
BRANCH   4  23
ATOM     23  O   UNL     1      32.498 -23.766 -13.422  0.00  0.00    -0.471 OA
ATOM     24  C   UNL     1      31.094 -23.925 -13.229  0.00  0.00    +0.252 C 
ENDBRANCH   4  23
TORSDOF 8
ENDMDL
MODEL 6
REMARK VINA RESULT:      -8.0      2.933      5.177
REMARK  Name = 5467
REMARK  8 active torsions:
REMARK  status: ('A' for Active; 'I' for Inactive)
REMARK    1  A    between atoms: C_1  and  C_13
REMARK    2  A    between atoms: C_2  and  S_7
REMARK    3  A    between atoms: C_4  and  O_23
REMARK    4  A    between atoms: N_12  and  C_15
REMARK    5  A    between atoms: C_15  and  C_16
REMARK    6  A    between atoms: C_16  and  N_17
REMARK    7  A    between atoms: N_17  and  C_19
REMARK    8  A    between atoms: N_17  and  C_21
REMARK                            x       y       z     vdW  Elec       q    Type
REMARK                         _______ _______ _______ _____ _____    ______ ____
ROOT
ATOM      1  C   UNL     1      36.541 -22.745 -16.286  0.00  0.00    +0.089 C 
ATOM      2  C   UNL     1      37.284 -24.361 -14.687  0.00  0.00    +0.106 C 
ATOM      3  C   UNL     1      37.572 -23.318 -15.568  0.00  0.00    +0.026 C 
ATOM      4  C   UNL     1      35.234 -23.171 -16.160  0.00  0.00    +0.143 C 
ATOM      5  C   UNL     1      35.971 -24.809 -14.543  0.00  0.00    +0.021 C 
ATOM      6  C   UNL     1      34.945 -24.214 -15.280  0.00  0.00    +0.038 C 
ENDROOT
BRANCH   2   7
ATOM      7  S   UNL     1      38.566 -25.106 -13.765  0.00  0.00    +0.010 S 
ATOM      8  O   UNL     1      38.985 -24.163 -12.738  0.00  0.00    -0.169 OA
ATOM      9  O   UNL     1      38.156 -26.451 -13.387  0.00  0.00    -0.169 OA
ATOM     10  C   UNL     1      39.902 -25.278 -14.926  0.00  0.00    +0.182 C 
ENDBRANCH   2   7
BRANCH   1  13
ATOM     11  O   UNL     1      37.526 -20.682 -16.808  0.00  0.00    -0.270 OA
ATOM     12  N   UNL     1      36.420 -21.782 -18.525  0.00  0.00    -0.303 N 
ATOM     13  C   UNL     1      36.871 -21.637 -17.218  0.00  0.00    +0.249 C 
ATOM     14  H   UNL     1      35.900 -22.586 -18.759  0.00  0.00    +0.150 HD
BRANCH  12  15
ATOM     15  C   UNL     1      36.679 -20.807 -19.548  0.00  0.00    +0.067 C 
BRANCH  15  16
ATOM     16  C   UNL     1      35.505 -20.690 -20.509  0.00  0.00    -0.056 C 
BRANCH  16  17
ATOM     17  N   UNL     1      35.108 -19.290 -20.658  0.00  0.00    +0.388 N 
ATOM     18  H   UNL     1      35.195 -18.831 -19.751  0.00  0.00    -0.080 HD
BRANCH  17  19
ATOM     19  C   UNL     1      35.985 -18.608 -21.608  0.00  0.00    -0.077 C 
ATOM     20  C   UNL     1      35.367 -18.567 -22.996  0.00  0.00    -0.025 C 
ENDBRANCH  17  19
BRANCH  17  21
ATOM     21  C   UNL     1      33.714 -19.197 -21.092  0.00  0.00    -0.077 C 
ATOM     22  C   UNL     1      32.843 -20.201 -20.356  0.00  0.00    -0.025 C 
ENDBRANCH  17  21
ENDBRANCH  16  17
ENDBRANCH  15  16
ENDBRANCH  12  15
ENDBRANCH   1  13
BRANCH   4  23
ATOM     23  O   UNL     1      34.220 -22.602 -16.870  0.00  0.00    -0.471 OA
ATOM     24  C   UNL     1      33.367 -23.484 -17.598  0.00  0.00    +0.252 C 
ENDBRANCH   4  23
TORSDOF 8
ENDMDL
MODEL 7
REMARK VINA RESULT:      -7.9      8.016     11.150
REMARK  Name = 5467
REMARK  8 active torsions:
REMARK  status: ('A' for Active; 'I' for Inactive)
REMARK    1  A    between atoms: C_1  and  C_13
REMARK    2  A    between atoms: C_2  and  S_7
REMARK    3  A    between atoms: C_4  and  O_23
REMARK    4  A    between atoms: N_12  and  C_15
REMARK    5  A    between atoms: C_15  and  C_16
REMARK    6  A    between atoms: C_16  and  N_17
REMARK    7  A    between atoms: N_17  and  C_19
REMARK    8  A    between atoms: N_17  and  C_21
REMARK                            x       y       z     vdW  Elec       q    Type
REMARK                         _______ _______ _______ _____ _____    ______ ____
ROOT
ATOM      1  C   UNL     1      33.402 -14.672 -23.403  0.00  0.00    +0.089 C 
ATOM      2  C   UNL     1      34.610 -16.709 -23.072  0.00  0.00    +0.106 C 
ATOM      3  C   UNL     1      34.008 -15.566 -22.543  0.00  0.00    +0.026 C 
ATOM      4  C   UNL     1      33.372 -14.871 -24.768  0.00  0.00    +0.143 C 
ATOM      5  C   UNL     1      34.593 -16.931 -24.449  0.00  0.00    +0.021 C 
ATOM      6  C   UNL     1      33.975 -16.013 -25.297  0.00  0.00    +0.038 C 
ENDROOT
BRANCH   2   7
ATOM      7  S   UNL     1      35.384 -17.859 -22.011  0.00  0.00    +0.010 S 
ATOM      8  O   UNL     1      36.652 -18.243 -22.615  0.00  0.00    -0.169 OA
ATOM      9  O   UNL     1      35.360 -17.338 -20.651  0.00  0.00    -0.169 OA
ATOM     10  C   UNL     1      34.313 -19.278 -22.041  0.00  0.00    +0.182 C 
ENDBRANCH   2   7
BRANCH   1  13
ATOM     11  O   UNL     1      32.030 -13.582 -21.844  0.00  0.00    -0.270 OA
ATOM     12  N   UNL     1      33.086 -12.251 -23.424  0.00  0.00    -0.303 N 
ATOM     13  C   UNL     1      32.768 -13.462 -22.819  0.00  0.00    +0.249 C 
ATOM     14  H   UNL     1      33.688 -12.257 -24.204  0.00  0.00    +0.150 HD
BRANCH  12  15
ATOM     15  C   UNL     1      32.571 -10.993 -22.960  0.00  0.00    +0.067 C 
BRANCH  15  16
ATOM     16  C   UNL     1      33.327  -9.826 -23.578  0.00  0.00    -0.056 C 
BRANCH  16  17
ATOM     17  N   UNL     1      32.927  -8.569 -22.946  0.00  0.00    +0.388 N 
ATOM     18  H   UNL     1      32.236  -8.114 -23.542  0.00  0.00    -0.080 HD
BRANCH  17  19
ATOM     19  C   UNL     1      32.318  -8.824 -21.641  0.00  0.00    -0.077 C 
ATOM     20  C   UNL     1      32.705  -7.754 -20.635  0.00  0.00    -0.025 C 
ENDBRANCH  17  19
BRANCH  17  21
ATOM     21  C   UNL     1      34.079  -7.678 -22.807  0.00  0.00    -0.077 C 
ATOM     22  C   UNL     1      34.615  -7.261 -24.166  0.00  0.00    -0.025 C 
ENDBRANCH  17  21
ENDBRANCH  16  17
ENDBRANCH  15  16
ENDBRANCH  12  15
ENDBRANCH   1  13
BRANCH   4  23
ATOM     23  O   UNL     1      32.773 -13.985 -25.613  0.00  0.00    -0.471 OA
ATOM     24  C   UNL     1      33.372 -13.807 -26.895  0.00  0.00    +0.252 C 
ENDBRANCH   4  23
TORSDOF 8
ENDMDL
MODEL 8
REMARK VINA RESULT:      -7.8      2.910      6.257
REMARK  Name = 5467
REMARK  8 active torsions:
REMARK  status: ('A' for Active; 'I' for Inactive)
REMARK    1  A    between atoms: C_1  and  C_13
REMARK    2  A    between atoms: C_2  and  S_7
REMARK    3  A    between atoms: C_4  and  O_23
REMARK    4  A    between atoms: N_12  and  C_15
REMARK    5  A    between atoms: C_15  and  C_16
REMARK    6  A    between atoms: C_16  and  N_17
REMARK    7  A    between atoms: N_17  and  C_19
REMARK    8  A    between atoms: N_17  and  C_21
REMARK                            x       y       z     vdW  Elec       q    Type
REMARK                         _______ _______ _______ _____ _____    ______ ____
ROOT
ATOM      1  C   UNL     1      34.044 -23.666 -16.014  0.00  0.00    +0.089 C 
ATOM      2  C   UNL     1      31.724 -23.390 -15.502  0.00  0.00    +0.106 C 
ATOM      3  C   UNL     1      32.996 -23.826 -15.128  0.00  0.00    +0.026 C 
ATOM      4  C   UNL     1      33.873 -23.088 -17.256  0.00  0.00    +0.143 C 
ATOM      5  C   UNL     1      31.527 -22.804 -16.751  0.00  0.00    +0.021 C 
ATOM      6  C   UNL     1      32.601 -22.652 -17.629  0.00  0.00    +0.038 C 
ENDROOT
BRANCH   2   7
ATOM      7  S   UNL     1      30.380 -23.580 -14.404  0.00  0.00    +0.010 S 
ATOM      8  O   UNL     1      30.910 -23.625 -13.048  0.00  0.00    -0.169 OA
ATOM      9  O   UNL     1      29.351 -22.607 -14.745  0.00  0.00    -0.169 OA
ATOM     10  C   UNL     1      29.720 -25.187 -14.786  0.00  0.00    +0.182 C 
ENDBRANCH   2   7
BRANCH   1  13
ATOM     11  O   UNL     1      35.605 -25.344 -15.520  0.00  0.00    -0.270 OA
ATOM     12  N   UNL     1      36.332 -23.148 -15.342  0.00  0.00    -0.303 N 
ATOM     13  C   UNL     1      35.389 -24.137 -15.597  0.00  0.00    +0.249 C 
ATOM     14  H   UNL     1      36.063 -22.205 -15.430  0.00  0.00    +0.150 HD
BRANCH  12  15
ATOM     15  C   UNL     1      37.683 -23.446 -14.953  0.00  0.00    +0.067 C 
BRANCH  15  16
ATOM     16  C   UNL     1      37.789 -23.667 -13.451  0.00  0.00    -0.056 C 
BRANCH  16  17
ATOM     17  N   UNL     1      38.410 -24.962 -13.171  0.00  0.00    +0.388 N 
ATOM     18  H   UNL     1      39.190 -24.813 -12.531  0.00  0.00    -0.080 HD
BRANCH  17  19
ATOM     19  C   UNL     1      37.451 -25.861 -12.531  0.00  0.00    -0.077 C 
ATOM     20  C   UNL     1      36.247 -25.097 -12.006  0.00  0.00    -0.025 C 
ENDBRANCH  17  19
BRANCH  17  21
ATOM     21  C   UNL     1      38.927 -25.558 -14.402  0.00  0.00    -0.077 C 
ATOM     22  C   UNL     1      40.408 -25.872 -14.279  0.00  0.00    -0.025 C 
ENDBRANCH  17  21
ENDBRANCH  16  17
ENDBRANCH  15  16
ENDBRANCH  12  15
ENDBRANCH   1  13
BRANCH   4  23
ATOM     23  O   UNL     1      34.910 -22.931 -18.126  0.00  0.00    -0.471 OA
ATOM     24  C   UNL     1      34.699 -22.055 -19.231  0.00  0.00    +0.252 C 
ENDBRANCH   4  23
TORSDOF 8
ENDMDL
MODEL 9
REMARK VINA RESULT:      -7.7      7.992     10.742
REMARK  Name = 5467
REMARK  8 active torsions:
REMARK  status: ('A' for Active; 'I' for Inactive)
REMARK    1  A    between atoms: C_1  and  C_13
REMARK    2  A    between atoms: C_2  and  S_7
REMARK    3  A    between atoms: C_4  and  O_23
REMARK    4  A    between atoms: N_12  and  C_15
REMARK    5  A    between atoms: C_15  and  C_16
REMARK    6  A    between atoms: C_16  and  N_17
REMARK    7  A    between atoms: N_17  and  C_19
REMARK    8  A    between atoms: N_17  and  C_21
REMARK                            x       y       z     vdW  Elec       q    Type
REMARK                         _______ _______ _______ _____ _____    ______ ____
ROOT
ATOM      1  C   UNL     1      33.468 -14.273 -22.887  0.00  0.00    +0.089 C 
ATOM      2  C   UNL     1      34.149 -16.294 -21.805  0.00  0.00    +0.106 C 
ATOM      3  C   UNL     1      34.208 -15.439 -22.906  0.00  0.00    +0.026 C 
ATOM      4  C   UNL     1      32.672 -13.927 -21.814  0.00  0.00    +0.143 C 
ATOM      5  C   UNL     1      33.352 -15.965 -20.709  0.00  0.00    +0.021 C 
ATOM      6  C   UNL     1      32.613 -14.782 -20.713  0.00  0.00    +0.038 C 
ENDROOT
BRANCH   2   7
ATOM      7  S   UNL     1      35.073 -17.775 -21.800  0.00  0.00    +0.010 S 
ATOM      8  O   UNL     1      35.781 -17.867 -23.070  0.00  0.00    -0.169 OA
ATOM      9  O   UNL     1      35.817 -17.863 -20.551  0.00  0.00    -0.169 OA
ATOM     10  C   UNL     1      33.846 -19.062 -21.764  0.00  0.00    +0.182 C 
ENDBRANCH   2   7
BRANCH   1  13
ATOM     11  O   UNL     1      33.126 -13.778 -25.153  0.00  0.00    -0.270 OA
ATOM     12  N   UNL     1      34.076 -12.113 -23.846  0.00  0.00    -0.303 N 
ATOM     13  C   UNL     1      33.544 -13.378 -24.070  0.00  0.00    +0.249 C 
ATOM     14  H   UNL     1      34.386 -11.885 -22.940  0.00  0.00    +0.150 HD
BRANCH  12  15
ATOM     15  C   UNL     1      34.194 -11.127 -24.884  0.00  0.00    +0.067 C 
BRANCH  15  16
ATOM     16  C   UNL     1      34.756  -9.820 -24.343  0.00  0.00    -0.056 C 
BRANCH  16  17
ATOM     17  N   UNL     1      33.835  -9.235 -23.369  0.00  0.00    +0.388 N 
ATOM     18  H   UNL     1      33.878  -9.787 -22.512  0.00  0.00    -0.080 HD
BRANCH  17  19
ATOM     19  C   UNL     1      34.226  -7.862 -23.056  0.00  0.00    -0.077 C 
ATOM     20  C   UNL     1      34.538  -7.078 -24.320  0.00  0.00    -0.025 C 
ENDBRANCH  17  19
BRANCH  17  21
ATOM     21  C   UNL     1      32.463  -9.274 -23.876  0.00  0.00    -0.077 C 
ATOM     22  C   UNL     1      31.457  -9.155 -22.743  0.00  0.00    -0.025 C 
ENDBRANCH  17  21
ENDBRANCH  16  17
ENDBRANCH  15  16
ENDBRANCH  12  15
ENDBRANCH   1  13
BRANCH   4  23
ATOM     23  O   UNL     1      31.943 -12.776 -21.799  0.00  0.00    -0.471 OA
ATOM     24  C   UNL     1      31.736 -12.158 -20.531  0.00  0.00    +0.252 C 
ENDBRANCH   4  23
TORSDOF 8
ENDMDL
