MODEL 1
REMARK VINA RESULT:      -9.7      0.000      0.000
REMARK  Name = 4830
REMARK  7 active torsions:
REMARK  status: ('A' for Active; 'I' for Inactive)
REMARK    1  A    between atoms: N_1  and  C_20
REMARK    2  A    between atoms: C_2  and  N_8
REMARK    3  A    between atoms: C_2  and  C_17
REMARK    4  A    between atoms: C_20  and  C_21
REMARK    5  A    between atoms: C_21  and  C_22
REMARK    6  A    between atoms: C_22  and  C_24
REMARK    7  A    between atoms: C_24  and  C_26
REMARK                            x       y       z     vdW  Elec       q    Type
REMARK                         _______ _______ _______ _____ _____    ______ ____
ROOT
ATOM      1  N   UNL     1      34.606 -22.741 -16.862  0.00  0.00    +0.387 N 
ATOM      2  C   UNL     1      36.020 -24.204 -14.741  0.00  0.00    +0.024 C 
ATOM      3  C   UNL     1      36.618 -22.975 -15.436  0.00  0.00    -0.033 C 
ATOM      4  C   UNL     1      34.491 -24.195 -14.859  0.00  0.00    -0.033 C 
ATOM      5  C   UNL     1      36.073 -22.797 -16.859  0.00  0.00    -0.079 C 
ATOM      6  C   UNL     1      34.027 -23.971 -16.303  0.00  0.00    -0.079 C 
ATOM      7  H   UNL     1      34.319 -21.961 -16.270  0.00  0.00    -0.080 HD
ENDROOT
BRANCH   2   8
ATOM      8  N   UNL     1      36.409 -24.215 -13.331  0.00  0.00    +0.395 N 
ATOM      9  C   UNL     1      37.083 -22.958 -12.974  0.00  0.00    -0.077 C 
ATOM     10  C   UNL     1      35.236 -24.451 -12.476  0.00  0.00    -0.077 C 
ATOM     11  C   UNL     1      37.540 -22.973 -11.515  0.00  0.00    -0.023 C 
ATOM     12  C   UNL     1      35.634 -24.514 -10.999  0.00  0.00    -0.023 C 
ATOM     13  C   UNL     1      36.376 -23.254 -10.571  0.00  0.00    -0.004 C 
ATOM     14  H   UNL     1      37.067 -24.979 -13.179  0.00  0.00    -0.079 HD
ENDBRANCH   2   8
BRANCH   2  17
ATOM     15  O   UNL     1      35.872 -26.387 -15.722  0.00  0.00    -0.277 OA
ATOM     16  N   UNL     1      37.963 -25.507 -15.342  0.00  0.00    -0.330 N 
ATOM     17  C   UNL     1      36.589 -25.473 -15.323  0.00  0.00    +0.201 C 
ATOM     18  H   UNL     1      38.431 -26.294 -15.704  0.00  0.00    +0.145 HD
ATOM     19  H   UNL     1      38.480 -24.744 -14.994  0.00  0.00    +0.145 HD
ENDBRANCH   2  17
BRANCH   1  20
ATOM     20  C   UNL     1      34.105 -22.511 -18.217  0.00  0.00    -0.077 C 
BRANCH  20  21
ATOM     21  C   UNL     1      35.193 -21.873 -19.082  0.00  0.00    -0.015 C 
BRANCH  21  22
ATOM     22  C   UNL     1      34.631 -20.816 -20.036  0.00  0.00    +0.067 C 
BRANCH  22  24
ATOM     23  O   UNL     1      36.809 -19.775 -20.050  0.00  0.00    -0.291 OA
ATOM     24  C   UNL     1      35.681 -19.832 -20.534  0.00  0.00    +0.173 C 
BRANCH  24  26
ATOM     25  F   UNL     1      34.371 -16.426 -24.760  0.00  0.00    -0.204 F 
ATOM     26  C   UNL     1      35.330 -18.923 -21.662  0.00  0.00    +0.035 C 
ATOM     27  C   UNL     1      35.328 -17.564 -21.440  0.00  0.00    +0.005 C 
ATOM     28  C   UNL     1      35.023 -19.475 -22.885  0.00  0.00    +0.005 C 
ATOM     29  C   UNL     1      35.001 -16.713 -22.495  0.00  0.00    +0.030 C 
ATOM     30  C   UNL     1      34.697 -18.623 -23.942  0.00  0.00    +0.030 C 
ATOM     31  C   UNL     1      34.686 -17.243 -23.747  0.00  0.00    +0.140 C 
ENDBRANCH  24  26
ENDBRANCH  22  24
ENDBRANCH  21  22
ENDBRANCH  20  21
ENDBRANCH   1  20
TORSDOF 7
ENDMDL
MODEL 2
REMARK VINA RESULT:      -9.4      9.630     15.340
REMARK  Name = 4830
REMARK  7 active torsions:
REMARK  status: ('A' for Active; 'I' for Inactive)
REMARK    1  A    between atoms: N_1  and  C_20
REMARK    2  A    between atoms: C_2  and  N_8
REMARK    3  A    between atoms: C_2  and  C_17
REMARK    4  A    between atoms: C_20  and  C_21
REMARK    5  A    between atoms: C_21  and  C_22
REMARK    6  A    between atoms: C_22  and  C_24
REMARK    7  A    between atoms: C_24  and  C_26
REMARK                            x       y       z     vdW  Elec       q    Type
REMARK                         _______ _______ _______ _____ _____    ______ ____
ROOT
ATOM      1  N   UNL     1      31.504  -9.567 -20.819  0.00  0.00    +0.387 N 
ATOM      2  C   UNL     1      32.635  -7.604 -22.692  0.00  0.00    +0.024 C 
ATOM      3  C   UNL     1      31.418  -8.470 -23.039  0.00  0.00    -0.033 C 
ATOM      4  C   UNL     1      32.784  -7.475 -21.172  0.00  0.00    -0.033 C 
ATOM      5  C   UNL     1      31.417  -9.796 -22.267  0.00  0.00    -0.079 C 
ATOM      6  C   UNL     1      32.731  -8.837 -20.470  0.00  0.00    -0.079 C 
ATOM      7  H   UNL     1      30.708  -8.992 -20.542  0.00  0.00    -0.080 HD
ENDROOT
BRANCH   2   8
ATOM      8  N   UNL     1      32.486  -6.278 -23.291  0.00  0.00    +0.395 N 
ATOM      9  C   UNL     1      32.063  -6.392 -24.694  0.00  0.00    -0.077 C 
ATOM     10  C   UNL     1      31.538  -5.466 -22.514  0.00  0.00    -0.077 C 
ATOM     11  C   UNL     1      31.950  -5.014 -25.349  0.00  0.00    -0.023 C 
ATOM     12  C   UNL     1      31.408  -4.058 -23.098  0.00  0.00    -0.023 C 
ATOM     13  C   UNL     1      31.009  -4.103 -24.569  0.00  0.00    -0.004 C 
ATOM     14  H   UNL     1      33.392  -5.808 -23.273  0.00  0.00    -0.079 HD
ENDBRANCH   2   8
BRANCH   2  17
ATOM     15  O   UNL     1      33.880  -9.232 -23.936  0.00  0.00    -0.277 OA
ATOM     16  N   UNL     1      35.016  -7.433 -23.062  0.00  0.00    -0.330 N 
ATOM     17  C   UNL     1      33.888  -8.180 -23.302  0.00  0.00    +0.201 C 
ATOM     18  H   UNL     1      35.886  -7.725 -23.419  0.00  0.00    +0.145 HD
ATOM     19  H   UNL     1      34.955  -6.604 -22.534  0.00  0.00    +0.145 HD
ENDBRANCH   2  17
BRANCH   1  20
ATOM     20  C   UNL     1      31.442 -10.837 -20.095  0.00  0.00    -0.077 C 
BRANCH  20  21
ATOM     21  C   UNL     1      31.198 -11.990 -21.070  0.00  0.00    -0.015 C 
BRANCH  21  22
ATOM     22  C   UNL     1      32.232 -13.108 -20.918  0.00  0.00    +0.067 C 
BRANCH  22  24
ATOM     23  O   UNL     1      32.275 -13.280 -23.325  0.00  0.00    -0.291 OA
ATOM     24  C   UNL     1      32.661 -13.719 -22.244  0.00  0.00    +0.173 C 
BRANCH  24  26
ATOM     25  F   UNL     1      36.181 -18.053 -22.180  0.00  0.00    -0.204 F 
ATOM     26  C   UNL     1      33.602 -14.875 -22.228  0.00  0.00    +0.035 C 
ATOM     27  C   UNL     1      33.938 -15.436 -21.016  0.00  0.00    +0.005 C 
ATOM     28  C   UNL     1      34.099 -15.341 -23.424  0.00  0.00    +0.005 C 
ATOM     29  C   UNL     1      34.817 -16.519 -21.000  0.00  0.00    +0.030 C 
ATOM     30  C   UNL     1      34.977 -16.425 -23.408  0.00  0.00    +0.030 C 
ATOM     31  C   UNL     1      35.336 -17.014 -22.196  0.00  0.00    +0.140 C 
ENDBRANCH  24  26
ENDBRANCH  22  24
ENDBRANCH  21  22
ENDBRANCH  20  21
ENDBRANCH   1  20
TORSDOF 7
ENDMDL
MODEL 3
REMARK VINA RESULT:      -9.3      4.288      9.551
REMARK  Name = 4830
REMARK  7 active torsions:
REMARK  status: ('A' for Active; 'I' for Inactive)
REMARK    1  A    between atoms: N_1  and  C_20
REMARK    2  A    between atoms: C_2  and  N_8
REMARK    3  A    between atoms: C_2  and  C_17
REMARK    4  A    between atoms: C_20  and  C_21
REMARK    5  A    between atoms: C_21  and  C_22
REMARK    6  A    between atoms: C_22  and  C_24
REMARK    7  A    between atoms: C_24  and  C_26
REMARK                            x       y       z     vdW  Elec       q    Type
REMARK                         _______ _______ _______ _____ _____    ______ ____
ROOT
ATOM      1  N   UNL     1      35.622 -20.256 -19.910  0.00  0.00    +0.387 N 
ATOM      2  C   UNL     1      34.597 -18.210 -21.754  0.00  0.00    +0.024 C 
ATOM      3  C   UNL     1      33.680 -19.209 -21.038  0.00  0.00    -0.033 C 
ATOM      4  C   UNL     1      35.912 -18.042 -20.983  0.00  0.00    -0.033 C 
ATOM      5  C   UNL     1      34.409 -20.515 -20.696  0.00  0.00    -0.079 C 
ATOM      6  C   UNL     1      36.556 -19.391 -20.644  0.00  0.00    -0.079 C 
ATOM      7  H   UNL     1      35.346 -19.767 -19.057  0.00  0.00    -0.080 HD
ENDROOT
BRANCH   2   8
ATOM      8  N   UNL     1      33.923 -16.916 -21.873  0.00  0.00    +0.395 N 
ATOM      9  C   UNL     1      33.006 -16.708 -20.744  0.00  0.00    -0.077 C 
ATOM     10  C   UNL     1      34.909 -15.830 -21.965  0.00  0.00    -0.077 C 
ATOM     11  C   UNL     1      32.257 -15.382 -20.880  0.00  0.00    -0.023 C 
ATOM     12  C   UNL     1      34.221 -14.474 -22.140  0.00  0.00    -0.023 C 
ATOM     13  C   UNL     1      33.222 -14.210 -21.020  0.00  0.00    -0.004 C 
ATOM     14  H   UNL     1      33.371 -16.914 -22.732  0.00  0.00    -0.079 HD
ENDBRANCH   2   8
BRANCH   2  17
ATOM     15  O   UNL     1      34.065 -19.345 -23.797  0.00  0.00    -0.277 OA
ATOM     16  N   UNL     1      36.074 -18.231 -23.665  0.00  0.00    -0.330 N 
ATOM     17  C   UNL     1      34.864 -18.654 -23.169  0.00  0.00    +0.201 C 
ATOM     18  H   UNL     1      36.341 -18.470 -24.582  0.00  0.00    +0.145 HD
ATOM     19  H   UNL     1      36.674 -17.689 -23.103  0.00  0.00    +0.145 HD
ENDBRANCH   2  17
BRANCH   1  20
ATOM     20  C   UNL     1      36.272 -21.514 -19.542  0.00  0.00    -0.077 C 
BRANCH  20  21
ATOM     21  C   UNL     1      35.864 -21.925 -18.126  0.00  0.00    -0.015 C 
BRANCH  21  22
ATOM     22  C   UNL     1      34.525 -22.667 -18.099  0.00  0.00    +0.067 C 
BRANCH  22  24
ATOM     23  O   UNL     1      35.096 -24.053 -16.207  0.00  0.00    -0.291 OA
ATOM     24  C   UNL     1      34.249 -23.368 -16.776  0.00  0.00    +0.173 C 
BRANCH  24  26
ATOM     25  F   UNL     1      29.240 -22.717 -14.398  0.00  0.00    -0.204 F 
ATOM     26  C   UNL     1      32.911 -23.195 -16.141  0.00  0.00    +0.035 C 
ATOM     27  C   UNL     1      32.827 -23.201 -14.767  0.00  0.00    +0.005 C 
ATOM     28  C   UNL     1      31.810 -23.035 -16.952  0.00  0.00    +0.005 C 
ATOM     29  C   UNL     1      31.575 -23.038 -14.173  0.00  0.00    +0.030 C 
ATOM     30  C   UNL     1      30.559 -22.872 -16.358  0.00  0.00    +0.030 C 
ATOM     31  C   UNL     1      30.441 -22.873 -14.969  0.00  0.00    +0.140 C 
ENDBRANCH  24  26
ENDBRANCH  22  24
ENDBRANCH  21  22
ENDBRANCH  20  21
ENDBRANCH   1  20
TORSDOF 7
ENDMDL
MODEL 4
REMARK VINA RESULT:      -9.3      2.135      3.534
REMARK  Name = 4830
REMARK  7 active torsions:
REMARK  status: ('A' for Active; 'I' for Inactive)
REMARK    1  A    between atoms: N_1  and  C_20
REMARK    2  A    between atoms: C_2  and  N_8
REMARK    3  A    between atoms: C_2  and  C_17
REMARK    4  A    between atoms: C_20  and  C_21
REMARK    5  A    between atoms: C_21  and  C_22
REMARK    6  A    between atoms: C_22  and  C_24
REMARK    7  A    between atoms: C_24  and  C_26
REMARK                            x       y       z     vdW  Elec       q    Type
REMARK                         _______ _______ _______ _____ _____    ______ ____
ROOT
ATOM      1  N   UNL     1      34.199 -23.808 -15.658  0.00  0.00    +0.387 N 
ATOM      2  C   UNL     1      36.577 -24.226 -13.983  0.00  0.00    +0.024 C 
ATOM      3  C   UNL     1      35.846 -25.379 -14.680  0.00  0.00    -0.033 C 
ATOM      4  C   UNL     1      36.297 -22.901 -14.702  0.00  0.00    -0.033 C 
ATOM      5  C   UNL     1      34.363 -25.063 -14.913  0.00  0.00    -0.079 C 
ATOM      6  C   UNL     1      34.798 -22.678 -14.934  0.00  0.00    -0.079 C 
ATOM      7  H   UNL     1      34.687 -23.905 -16.549  0.00  0.00    -0.080 HD
ENDROOT
BRANCH   2   8
ATOM      8  N   UNL     1      38.017 -24.488 -13.969  0.00  0.00    +0.395 N 
ATOM      9  C   UNL     1      38.288 -25.839 -13.459  0.00  0.00    -0.077 C 
ATOM     10  C   UNL     1      38.586 -24.302 -15.311  0.00  0.00    -0.077 C 
ATOM     11  C   UNL     1      39.791 -26.112 -13.391  0.00  0.00    -0.023 C 
ATOM     12  C   UNL     1      40.100 -24.524 -15.304  0.00  0.00    -0.023 C 
ATOM     13  C   UNL     1      40.456 -25.898 -14.746  0.00  0.00    -0.004 C 
ATOM     14  H   UNL     1      38.464 -23.819 -13.341  0.00  0.00    -0.079 HD
ENDBRANCH   2   8
BRANCH   2  17
ATOM     15  O   UNL     1      35.453 -24.984 -12.006  0.00  0.00    -0.277 OA
ATOM     16  N   UNL     1      36.664 -23.031 -11.885  0.00  0.00    -0.330 N 
ATOM     17  C   UNL     1      36.172 -24.139 -12.533  0.00  0.00    +0.201 C 
ATOM     18  H   UNL     1      36.455 -22.885 -10.934  0.00  0.00    +0.145 HD
ATOM     19  H   UNL     1      37.225 -22.385 -12.371  0.00  0.00    +0.145 HD
ENDBRANCH   2  17
BRANCH   1  20
ATOM     20  C   UNL     1      32.783 -23.552 -15.923  0.00  0.00    -0.077 C 
BRANCH  20  21
ATOM     21  C   UNL     1      32.628 -22.682 -17.172  0.00  0.00    -0.015 C 
BRANCH  21  22
ATOM     22  C   UNL     1      33.482 -23.183 -18.339  0.00  0.00    +0.067 C 
BRANCH  22  24
ATOM     23  O   UNL     1      35.767 -22.448 -18.090  0.00  0.00    -0.291 OA
ATOM     24  C   UNL     1      34.679 -22.291 -18.639  0.00  0.00    +0.173 C 
BRANCH  24  26
ATOM     25  F   UNL     1      34.106 -18.226 -22.422  0.00  0.00    -0.204 F 
ATOM     26  C   UNL     1      34.526 -21.206 -19.650  0.00  0.00    +0.035 C 
ATOM     27  C   UNL     1      33.258 -20.788 -19.983  0.00  0.00    +0.005 C 
ATOM     28  C   UNL     1      35.659 -20.662 -20.212  0.00  0.00    +0.005 C 
ATOM     29  C   UNL     1      33.114 -19.772 -20.928  0.00  0.00    +0.030 C 
ATOM     30  C   UNL     1      35.516 -19.645 -21.156  0.00  0.00    +0.030 C 
ATOM     31  C   UNL     1      34.244 -19.201 -21.514  0.00  0.00    +0.140 C 
ENDBRANCH  24  26
ENDBRANCH  22  24
ENDBRANCH  21  22
ENDBRANCH  20  21
ENDBRANCH   1  20
TORSDOF 7
ENDMDL
MODEL 5
REMARK VINA RESULT:      -9.2     10.941     15.962
REMARK  Name = 4830
REMARK  7 active torsions:
REMARK  status: ('A' for Active; 'I' for Inactive)
REMARK    1  A    between atoms: N_1  and  C_20
REMARK    2  A    between atoms: C_2  and  N_8
REMARK    3  A    between atoms: C_2  and  C_17
REMARK    4  A    between atoms: C_20  and  C_21
REMARK    5  A    between atoms: C_21  and  C_22
REMARK    6  A    between atoms: C_22  and  C_24
REMARK    7  A    between atoms: C_24  and  C_26
REMARK                            x       y       z     vdW  Elec       q    Type
REMARK                         _______ _______ _______ _____ _____    ______ ____
ROOT
ATOM      1  N   UNL     1      32.104  -9.591 -21.733  0.00  0.00    +0.387 N 
ATOM      2  C   UNL     1      32.199  -6.913 -22.941  0.00  0.00    +0.024 C 
ATOM      3  C   UNL     1      33.234  -7.394 -21.916  0.00  0.00    -0.033 C 
ATOM      4  C   UNL     1      31.540  -8.109 -23.638  0.00  0.00    -0.033 C 
ATOM      5  C   UNL     1      32.658  -8.462 -20.976  0.00  0.00    -0.079 C 
ATOM      6  C   UNL     1      31.029  -9.150 -22.634  0.00  0.00    -0.079 C 
ATOM      7  H   UNL     1      32.852  -9.985 -22.306  0.00  0.00    -0.080 HD
ENDROOT
BRANCH   2   8
ATOM      8  N   UNL     1      32.847  -6.056 -23.934  0.00  0.00    +0.395 N 
ATOM      9  C   UNL     1      33.879  -6.805 -24.665  0.00  0.00    -0.077 C 
ATOM     10  C   UNL     1      31.849  -5.490 -24.853  0.00  0.00    -0.077 C 
ATOM     11  C   UNL     1      34.599  -5.909 -25.674  0.00  0.00    -0.023 C 
ATOM     12  C   UNL     1      32.504  -4.551 -25.869  0.00  0.00    -0.023 C 
ATOM     13  C   UNL     1      33.616  -5.255 -26.638  0.00  0.00    -0.004 C 
ATOM     14  H   UNL     1      33.303  -5.282 -23.450  0.00  0.00    -0.079 HD
ENDBRANCH   2   8
BRANCH   2  17
ATOM     15  O   UNL     1      29.988  -6.034 -22.650  0.00  0.00    -0.277 OA
ATOM     16  N   UNL     1      31.652  -5.271 -21.256  0.00  0.00    -0.330 N 
ATOM     17  C   UNL     1      31.159  -6.045 -22.280  0.00  0.00    +0.201 C 
ATOM     18  H   UNL     1      31.051  -4.669 -20.760  0.00  0.00    +0.145 HD
ATOM     19  H   UNL     1      32.606  -5.318 -21.018  0.00  0.00    +0.145 HD
ENDBRANCH   2  17
BRANCH   1  20
ATOM     20  C   UNL     1      31.614 -10.626 -20.823  0.00  0.00    -0.077 C 
BRANCH  20  21
ATOM     21  C   UNL     1      31.150 -11.850 -21.615  0.00  0.00    -0.015 C 
BRANCH  21  22
ATOM     22  C   UNL     1      32.258 -12.894 -21.775  0.00  0.00    +0.067 C 
BRANCH  22  24
ATOM     23  O   UNL     1      33.222 -11.725 -23.654  0.00  0.00    -0.291 OA
ATOM     24  C   UNL     1      32.988 -12.800 -23.108  0.00  0.00    +0.173 C 
BRANCH  24  26
ATOM     25  F   UNL     1      34.724 -17.513 -25.548  0.00  0.00    -0.204 F 
ATOM     26  C   UNL     1      33.451 -14.059 -23.759  0.00  0.00    +0.035 C 
ATOM     27  C   UNL     1      33.098 -14.294 -25.069  0.00  0.00    +0.005 C 
ATOM     28  C   UNL     1      34.214 -14.940 -23.027  0.00  0.00    +0.005 C 
ATOM     29  C   UNL     1      33.532 -15.471 -25.679  0.00  0.00    +0.030 C 
ATOM     30  C   UNL     1      34.649 -16.117 -23.637  0.00  0.00    +0.030 C 
ATOM     31  C   UNL     1      34.308 -16.382 -24.963  0.00  0.00    +0.140 C 
ENDBRANCH  24  26
ENDBRANCH  22  24
ENDBRANCH  21  22
ENDBRANCH  20  21
ENDBRANCH   1  20
TORSDOF 7
ENDMDL
MODEL 6
REMARK VINA RESULT:      -9.2      6.624     11.930
REMARK  Name = 4830
REMARK  7 active torsions:
REMARK  status: ('A' for Active; 'I' for Inactive)
REMARK    1  A    between atoms: N_1  and  C_20
REMARK    2  A    between atoms: C_2  and  N_8
REMARK    3  A    between atoms: C_2  and  C_17
REMARK    4  A    between atoms: C_20  and  C_21
REMARK    5  A    between atoms: C_21  and  C_22
REMARK    6  A    between atoms: C_22  and  C_24
REMARK    7  A    between atoms: C_24  and  C_26
REMARK                            x       y       z     vdW  Elec       q    Type
REMARK                         _______ _______ _______ _____ _____    ______ ____
ROOT
ATOM      1  N   UNL     1      34.012 -15.821 -24.312  0.00  0.00    +0.387 N 
ATOM      2  C   UNL     1      33.079 -13.084 -23.784  0.00  0.00    +0.024 C 
ATOM      3  C   UNL     1      32.276 -14.082 -24.628  0.00  0.00    -0.033 C 
ATOM      4  C   UNL     1      34.034 -13.826 -22.842  0.00  0.00    -0.033 C 
ATOM      5  C   UNL     1      33.179 -15.124 -25.300  0.00  0.00    -0.079 C 
ATOM      6  C   UNL     1      34.870 -14.878 -23.581  0.00  0.00    -0.079 C 
ATOM      7  H   UNL     1      33.391 -16.269 -23.636  0.00  0.00    -0.080 HD
ENDROOT
BRANCH   2   8
ATOM      8  N   UNL     1      32.167 -12.245 -23.007  0.00  0.00    +0.395 N 
ATOM      9  C   UNL     1      32.138 -12.680 -21.603  0.00  0.00    -0.077 C 
ATOM     10  C   UNL     1      32.551 -10.830 -23.117  0.00  0.00    -0.077 C 
ATOM     11  C   UNL     1      31.152 -11.844 -20.787  0.00  0.00    -0.023 C 
ATOM     12  C   UNL     1      31.577  -9.933 -22.349  0.00  0.00    -0.023 C 
ATOM     13  C   UNL     1      31.468 -10.356 -20.889  0.00  0.00    -0.004 C 
ATOM     14  H   UNL     1      31.226 -12.346 -23.387  0.00  0.00    -0.079 HD
ENDBRANCH   2   8
BRANCH   2  17
ATOM     15  O   UNL     1      33.687 -12.111 -25.889  0.00  0.00    -0.277 OA
ATOM     16  N   UNL     1      34.719 -11.323 -23.990  0.00  0.00    -0.330 N 
ATOM     17  C   UNL     1      33.842 -12.132 -24.670  0.00  0.00    +0.201 C 
ATOM     18  H   UNL     1      35.264 -10.665 -24.480  0.00  0.00    +0.145 HD
ATOM     19  H   UNL     1      34.803 -11.399 -23.012  0.00  0.00    +0.145 HD
ENDBRANCH   2  17
BRANCH   1  20
ATOM     20  C   UNL     1      34.823 -16.851 -24.961  0.00  0.00    -0.077 C 
BRANCH  20  21
ATOM     21  C   UNL     1      34.483 -18.229 -24.389  0.00  0.00    -0.015 C 
BRANCH  21  22
ATOM     22  C   UNL     1      35.343 -18.582 -23.173  0.00  0.00    +0.067 C 
BRANCH  22  24
ATOM     23  O   UNL     1      34.060 -17.397 -21.508  0.00  0.00    -0.291 OA
ATOM     24  C   UNL     1      34.604 -18.444 -21.850  0.00  0.00    +0.173 C 
BRANCH  24  26
ATOM     25  F   UNL     1      34.291 -22.888 -18.484  0.00  0.00    -0.204 F 
ATOM     26  C   UNL     1      34.521 -19.630 -20.950  0.00  0.00    +0.035 C 
ATOM     27  C   UNL     1      33.279 -20.064 -20.542  0.00  0.00    +0.005 C 
ATOM     28  C   UNL     1      35.688 -20.249 -20.562  0.00  0.00    +0.005 C 
ATOM     29  C   UNL     1      33.201 -21.174 -19.701  0.00  0.00    +0.030 C 
ATOM     30  C   UNL     1      35.609 -21.361 -19.722  0.00  0.00    +0.030 C 
ATOM     31  C   UNL     1      34.366 -21.823 -19.292  0.00  0.00    +0.140 C 
ENDBRANCH  24  26
ENDBRANCH  22  24
ENDBRANCH  21  22
ENDBRANCH  20  21
ENDBRANCH   1  20
TORSDOF 7
ENDMDL
MODEL 7
REMARK VINA RESULT:      -9.1      8.709     14.379
REMARK  Name = 4830
REMARK  7 active torsions:
REMARK  status: ('A' for Active; 'I' for Inactive)
REMARK    1  A    between atoms: N_1  and  C_20
REMARK    2  A    between atoms: C_2  and  N_8
REMARK    3  A    between atoms: C_2  and  C_17
REMARK    4  A    between atoms: C_20  and  C_21
REMARK    5  A    between atoms: C_21  and  C_22
REMARK    6  A    between atoms: C_22  and  C_24
REMARK    7  A    between atoms: C_24  and  C_26
REMARK                            x       y       z     vdW  Elec       q    Type
REMARK                         _______ _______ _______ _____ _____    ______ ____
ROOT
ATOM      1  N   UNL     1      32.232 -11.684 -22.851  0.00  0.00    +0.387 N 
ATOM      2  C   UNL     1      32.025  -8.776 -22.480  0.00  0.00    +0.024 C 
ATOM      3  C   UNL     1      32.659  -9.406 -23.726  0.00  0.00    -0.033 C 
ATOM      4  C   UNL     1      31.061  -9.763 -21.812  0.00  0.00    -0.033 C 
ATOM      5  C   UNL     1      33.244 -10.794 -23.434  0.00  0.00    -0.079 C 
ATOM      6  C   UNL     1      31.706 -11.137 -21.592  0.00  0.00    -0.079 C 
ATOM      7  H   UNL     1      31.457 -11.755 -23.511  0.00  0.00    -0.080 HD
ENDROOT
BRANCH   2   8
ATOM      8  N   UNL     1      31.307  -7.556 -22.852  0.00  0.00    +0.395 N 
ATOM      9  C   UNL     1      31.361  -6.575 -21.759  0.00  0.00    -0.077 C 
ATOM     10  C   UNL     1      31.855  -6.997 -24.097  0.00  0.00    -0.077 C 
ATOM     11  C   UNL     1      30.574  -5.313 -22.113  0.00  0.00    -0.023 C 
ATOM     12  C   UNL     1      31.084  -5.748 -24.527  0.00  0.00    -0.023 C 
ATOM     13  C   UNL     1      31.065  -4.700 -23.420  0.00  0.00    -0.004 C 
ATOM     14  H   UNL     1      30.328  -7.791 -23.017  0.00  0.00    -0.079 HD
ENDBRANCH   2   8
BRANCH   2  17
ATOM     15  O   UNL     1      34.148  -7.835 -21.884  0.00  0.00    -0.277 OA
ATOM     16  N   UNL     1      32.767  -8.557 -20.191  0.00  0.00    -0.330 N 
ATOM     17  C   UNL     1      33.090  -8.333 -21.509  0.00  0.00    +0.201 C 
ATOM     18  H   UNL     1      33.397  -8.302 -19.480  0.00  0.00    +0.145 HD
ATOM     19  H   UNL     1      31.905  -8.972 -19.959  0.00  0.00    +0.145 HD
ENDBRANCH   2  17
BRANCH   1  20
ATOM     20  C   UNL     1      32.789 -13.020 -22.634  0.00  0.00    -0.077 C 
BRANCH  20  21
ATOM     21  C   UNL     1      32.555 -13.462 -21.188  0.00  0.00    -0.015 C 
BRANCH  21  22
ATOM     22  C   UNL     1      32.593 -14.985 -21.034  0.00  0.00    +0.067 C 
BRANCH  22  24
ATOM     23  O   UNL     1      34.893 -15.110 -20.313  0.00  0.00    -0.291 OA
ATOM     24  C   UNL     1      34.004 -15.557 -21.034  0.00  0.00    +0.173 C 
BRANCH  24  26
ATOM     25  F   UNL     1      35.139 -19.887 -24.369  0.00  0.00    -0.204 F 
ATOM     26  C   UNL     1      34.306 -16.713 -21.924  0.00  0.00    +0.035 C 
ATOM     27  C   UNL     1      34.599 -16.469 -23.247  0.00  0.00    +0.005 C 
ATOM     28  C   UNL     1      34.283 -17.982 -21.391  0.00  0.00    +0.005 C 
ATOM     29  C   UNL     1      34.883 -17.551 -24.081  0.00  0.00    +0.030 C 
ATOM     30  C   UNL     1      34.568 -19.064 -22.225  0.00  0.00    +0.030 C 
ATOM     31  C   UNL     1      34.868 -18.849 -23.569  0.00  0.00    +0.140 C 
ENDBRANCH  24  26
ENDBRANCH  22  24
ENDBRANCH  21  22
ENDBRANCH  20  21
ENDBRANCH   1  20
TORSDOF 7
ENDMDL
MODEL 8
REMARK VINA RESULT:      -9.0      4.418     10.310
REMARK  Name = 4830
REMARK  7 active torsions:
REMARK  status: ('A' for Active; 'I' for Inactive)
REMARK    1  A    between atoms: N_1  and  C_20
REMARK    2  A    between atoms: C_2  and  N_8
REMARK    3  A    between atoms: C_2  and  C_17
REMARK    4  A    between atoms: C_20  and  C_21
REMARK    5  A    between atoms: C_21  and  C_22
REMARK    6  A    between atoms: C_22  and  C_24
REMARK    7  A    between atoms: C_24  and  C_26
REMARK                            x       y       z     vdW  Elec       q    Type
REMARK                         _______ _______ _______ _____ _____    ______ ____
ROOT
ATOM      1  N   UNL     1      35.303 -20.371 -20.890  0.00  0.00    +0.387 N 
ATOM      2  C   UNL     1      34.838 -17.687 -21.994  0.00  0.00    +0.024 C 
ATOM      3  C   UNL     1      36.245 -18.241 -21.735  0.00  0.00    -0.033 C 
ATOM      4  C   UNL     1      33.834 -18.833 -22.161  0.00  0.00    -0.033 C 
ATOM      5  C   UNL     1      36.253 -19.287 -20.613  0.00  0.00    -0.079 C 
ATOM      6  C   UNL     1      33.933 -19.856 -21.023  0.00  0.00    -0.079 C 
ATOM      7  H   UNL     1      35.565 -20.800 -21.779  0.00  0.00    -0.080 HD
ENDROOT
BRANCH   2   8
ATOM      8  N   UNL     1      34.847 -16.855 -23.198  0.00  0.00    +0.395 N 
ATOM      9  C   UNL     1      34.624 -17.679 -24.394  0.00  0.00    -0.077 C 
ATOM     10  C   UNL     1      33.841 -15.788 -23.092  0.00  0.00    -0.077 C 
ATOM     11  C   UNL     1      34.679 -16.832 -25.665  0.00  0.00    -0.023 C 
ATOM     12  C   UNL     1      33.870 -14.879 -24.322  0.00  0.00    -0.023 C 
ATOM     13  C   UNL     1      33.685 -15.677 -25.607  0.00  0.00    -0.004 C 
ATOM     14  H   UNL     1      35.764 -16.416 -23.285  0.00  0.00    -0.079 HD
ENDBRANCH   2   8
BRANCH   2  17
ATOM     15  O   UNL     1      35.232 -16.176 -20.175  0.00  0.00    -0.277 OA
ATOM     16  N   UNL     1      33.053 -16.681 -20.715  0.00  0.00    -0.330 N 
ATOM     17  C   UNL     1      34.415 -16.769 -20.876  0.00  0.00    +0.201 C 
ATOM     18  H   UNL     1      32.677 -16.105 -20.011  0.00  0.00    +0.145 HD
ATOM     19  H   UNL     1      32.453 -17.193 -21.304  0.00  0.00    +0.145 HD
ENDBRANCH   2  17
BRANCH   1  20
ATOM     20  C   UNL     1      35.366 -21.389 -19.841  0.00  0.00    -0.077 C 
BRANCH  20  21
ATOM     21  C   UNL     1      33.988 -21.580 -19.206  0.00  0.00    -0.015 C 
BRANCH  21  22
ATOM     22  C   UNL     1      33.804 -22.987 -18.630  0.00  0.00    +0.067 C 
BRANCH  22  24
ATOM     23  O   UNL     1      35.448 -23.055 -16.864  0.00  0.00    -0.291 OA
ATOM     24  C   UNL     1      34.263 -23.112 -17.183  0.00  0.00    +0.173 C 
BRANCH  24  26
ATOM     25  F   UNL     1      30.407 -23.771 -13.200  0.00  0.00    -0.204 F 
ATOM     26  C   UNL     1      33.234 -23.287 -16.119  0.00  0.00    +0.035 C 
ATOM     27  C   UNL     1      31.904 -23.206 -16.467  0.00  0.00    +0.005 C 
ATOM     28  C   UNL     1      33.651 -23.525 -14.829  0.00  0.00    +0.005 C 
ATOM     29  C   UNL     1      30.941 -23.371 -15.472  0.00  0.00    +0.030 C 
ATOM     30  C   UNL     1      32.687 -23.691 -13.834  0.00  0.00    +0.030 C 
ATOM     31  C   UNL     1      31.332 -23.614 -14.155  0.00  0.00    +0.140 C 
ENDBRANCH  24  26
ENDBRANCH  22  24
ENDBRANCH  21  22
ENDBRANCH  20  21
ENDBRANCH   1  20
TORSDOF 7
ENDMDL
MODEL 9
REMARK VINA RESULT:      -9.0      5.285      8.813
REMARK  Name = 4830
REMARK  7 active torsions:
REMARK  status: ('A' for Active; 'I' for Inactive)
REMARK    1  A    between atoms: N_1  and  C_20
REMARK    2  A    between atoms: C_2  and  N_8
REMARK    3  A    between atoms: C_2  and  C_17
REMARK    4  A    between atoms: C_20  and  C_21
REMARK    5  A    between atoms: C_21  and  C_22
REMARK    6  A    between atoms: C_22  and  C_24
REMARK    7  A    between atoms: C_24  and  C_26
REMARK                            x       y       z     vdW  Elec       q    Type
REMARK                         _______ _______ _______ _____ _____    ______ ____
ROOT
ATOM      1  N   UNL     1      34.232 -16.974 -23.420  0.00  0.00    +0.387 N 
ATOM      2  C   UNL     1      35.117 -18.850 -21.338  0.00  0.00    +0.024 C 
ATOM      3  C   UNL     1      34.536 -17.468 -21.011  0.00  0.00    -0.033 C 
ATOM      4  C   UNL     1      34.649 -19.314 -22.722  0.00  0.00    -0.033 C 
ATOM      5  C   UNL     1      34.764 -16.465 -22.149  0.00  0.00    -0.079 C 
ATOM      6  C   UNL     1      34.873 -18.242 -23.795  0.00  0.00    -0.079 C 
ATOM      7  H   UNL     1      33.234 -17.151 -23.295  0.00  0.00    -0.080 HD
ENDROOT
BRANCH   2   8
ATOM      8  N   UNL     1      34.699 -19.816 -20.322  0.00  0.00    +0.395 N 
ATOM      9  C   UNL     1      33.281 -20.164 -20.496  0.00  0.00    -0.077 C 
ATOM     10  C   UNL     1      35.550 -21.014 -20.371  0.00  0.00    -0.077 C 
ATOM     11  C   UNL     1      32.815 -21.137 -19.412  0.00  0.00    -0.023 C 
ATOM     12  C   UNL     1      35.157 -22.015 -19.282  0.00  0.00    -0.023 C 
ATOM     13  C   UNL     1      33.683 -22.389 -19.379  0.00  0.00    -0.004 C 
ATOM     14  H   UNL     1      34.808 -19.390 -19.401  0.00  0.00    -0.079 HD
ENDBRANCH   2   8
BRANCH   2  17
ATOM     15  O   UNL     1      37.230 -19.016 -20.218  0.00  0.00    -0.277 OA
ATOM     16  N   UNL     1      37.229 -18.547 -22.470  0.00  0.00    -0.330 N 
ATOM     17  C   UNL     1      36.623 -18.823 -21.268  0.00  0.00    +0.201 C 
ATOM     18  H   UNL     1      38.211 -18.508 -22.529  0.00  0.00    +0.145 HD
ATOM     19  H   UNL     1      36.682 -18.389 -23.274  0.00  0.00    +0.145 HD
ENDBRANCH   2  17
BRANCH   1  20
ATOM     20  C   UNL     1      34.404 -15.982 -24.481  0.00  0.00    -0.077 C 
BRANCH  20  21
ATOM     21  C   UNL     1      34.192 -14.572 -23.926  0.00  0.00    -0.015 C 
BRANCH  21  22
ATOM     22  C   UNL     1      33.024 -13.850 -24.602  0.00  0.00    +0.067 C 
BRANCH  22  24
ATOM     23  O   UNL     1      33.445 -12.966 -26.808  0.00  0.00    -0.291 OA
ATOM     24  C   UNL     1      33.466 -12.783 -25.594  0.00  0.00    +0.173 C 
BRANCH  24  26
ATOM     25  F   UNL     1      35.154  -7.836 -23.630  0.00  0.00    -0.204 F 
ATOM     26  C   UNL     1      33.917 -11.462 -25.069  0.00  0.00    +0.035 C 
ATOM     27  C   UNL     1      34.983 -10.839 -25.677  0.00  0.00    +0.005 C 
ATOM     28  C   UNL     1      33.250 -10.914 -23.996  0.00  0.00    +0.005 C 
ATOM     29  C   UNL     1      35.405  -9.603 -25.187  0.00  0.00    +0.030 C 
ATOM     30  C   UNL     1      33.671  -9.678 -23.506  0.00  0.00    +0.030 C 
ATOM     31  C   UNL     1      34.748  -9.022 -24.101  0.00  0.00    +0.140 C 
ENDBRANCH  24  26
ENDBRANCH  22  24
ENDBRANCH  21  22
ENDBRANCH  20  21
ENDBRANCH   1  20
TORSDOF 7
ENDMDL
