MODEL 1
REMARK VINA RESULT:      -9.7      0.000      0.000
REMARK  Name = 89683805
REMARK  7 active torsions:
REMARK  status: ('A' for Active; 'I' for Inactive)
REMARK    1  A    between atoms: N_1  and  C_31
REMARK    2  A    between atoms: N_4  and  C_22
REMARK    3  A    between atoms: C_7  and  C_12
REMARK    4  A    between atoms: C_14  and  C_20
REMARK    5  A    between atoms: C_25  and  C_30
REMARK    6  A    between atoms: C_31  and  C_32
REMARK    7  A    between atoms: C_32  and  O_35
REMARK                            x       y       z     vdW  Elec       q    Type
REMARK                         _______ _______ _______ _____ _____    ______ ____
ROOT
ATOM      1  N   UNL     1      36.793 -24.511 -14.231  0.00  0.00    -0.255 N 
ATOM      2  N   UNL     1      35.599 -23.544 -15.972  0.00  0.00    -0.258 NA
ATOM      3  N   UNL     1      34.480 -24.712 -14.200  0.00  0.00    -0.247 NA
ATOM      4  N   UNL     1      32.141 -24.875 -14.236  0.00  0.00    -0.237 N 
ATOM      5  N   UNL     1      33.208 -23.729 -15.982  0.00  0.00    -0.257 NA
ATOM      6  C   UNL     1      35.572 -24.243 -14.826  0.00  0.00    +0.221 C 
ATOM      7  C   UNL     1      34.381 -23.324 -16.492  0.00  0.00    +0.193 C 
ATOM      8  C   UNL     1      33.334 -24.417 -14.835  0.00  0.00    +0.224 C 
ATOM      9  H   UNL     1      36.798 -25.023 -13.391  0.00  0.00    +0.160 HD
ATOM     10  H   UNL     1      32.283 -25.373 -13.399  0.00  0.00    +0.166 HD
ENDROOT
BRANCH   7  12
ATOM     11  N   UNL     1      35.511 -22.072 -18.134  0.00  0.00    -0.390 NA
ATOM     12  C   UNL     1      34.328 -22.580 -17.722  0.00  0.00    +0.217 C 
ATOM     13  C   UNL     1      33.134 -22.417 -18.407  0.00  0.00    +0.040 C 
ATOM     14  C   UNL     1      35.493 -21.367 -19.287  0.00  0.00    +0.185 C 
ATOM     15  C   UNL     1      33.156 -21.686 -19.589  0.00  0.00    -0.015 C 
ATOM     16  C   UNL     1      34.354 -21.147 -20.045  0.00  0.00    +0.089 C 
BRANCH  14  20
ATOM     17  F   UNL     1      37.508 -20.232 -18.730  0.00  0.00    -0.164 F 
ATOM     18  F   UNL     1      37.630 -21.731 -20.301  0.00  0.00    -0.164 F 
ATOM     19  F   UNL     1      36.667 -19.828 -20.695  0.00  0.00    -0.164 F 
ATOM     20  C   UNL     1      36.797 -20.802 -19.746  0.00  0.00    +0.443 C 
ENDBRANCH  14  20
ENDBRANCH   7  12
BRANCH   4  22
ATOM     21  N   UNL     1      28.096 -24.528 -15.327  0.00  0.00    -0.240 NA
ATOM     22  C   UNL     1      30.786 -24.758 -14.602  0.00  0.00    +0.061 C 
ATOM     23  C   UNL     1      30.371 -23.714 -15.419  0.00  0.00    +0.038 C 
ATOM     24  C   UNL     1      29.858 -25.688 -14.146  0.00  0.00    +0.036 C 
ATOM     25  C   UNL     1      29.026 -23.643 -15.749  0.00  0.00    +0.154 C 
ATOM     26  C   UNL     1      28.537 -25.531 -14.533  0.00  0.00    +0.100 C 
BRANCH  25  30
ATOM     27  F   UNL     1      27.861 -22.966 -17.726  0.00  0.00    -0.164 F 
ATOM     28  F   UNL     1      27.699 -21.669 -15.995  0.00  0.00    -0.164 F 
ATOM     29  F   UNL     1      29.565 -21.766 -17.106  0.00  0.00    -0.164 F 
ATOM     30  C   UNL     1      28.545 -22.536 -16.625  0.00  0.00    +0.435 C 
ENDBRANCH  25  30
ENDBRANCH   4  22
BRANCH   1  31
ATOM     31  C   UNL     1      38.061 -24.079 -14.777  0.00  0.00    +0.125 C 
BRANCH  31  32
ATOM     32  C   UNL     1      39.105 -25.205 -14.728  0.00  0.00    +0.107 C 
ATOM     33  C   UNL     1      40.404 -24.729 -15.387  0.00  0.00    +0.031 C 
ATOM     34  C   UNL     1      39.385 -25.681 -13.300  0.00  0.00    +0.031 C 
BRANCH  32  35
ATOM     35  O   UNL     1      38.609 -26.307 -15.491  0.00  0.00    -0.385 OA
ATOM     36  H   UNL     1      39.334 -26.697 -16.005  0.00  0.00    +0.210 HD
ENDBRANCH  32  35
ENDBRANCH  31  32
ENDBRANCH   1  31
TORSDOF 7
ENDMDL
MODEL 2
REMARK VINA RESULT:      -9.6      3.780      6.223
REMARK  Name = 89683805
REMARK  7 active torsions:
REMARK  status: ('A' for Active; 'I' for Inactive)
REMARK    1  A    between atoms: N_1  and  C_31
REMARK    2  A    between atoms: N_4  and  C_22
REMARK    3  A    between atoms: C_7  and  C_12
REMARK    4  A    between atoms: C_14  and  C_20
REMARK    5  A    between atoms: C_25  and  C_30
REMARK    6  A    between atoms: C_31  and  C_32
REMARK    7  A    between atoms: C_32  and  O_35
REMARK                            x       y       z     vdW  Elec       q    Type
REMARK                         _______ _______ _______ _____ _____    ______ ____
ROOT
ATOM      1  N   UNL     1      34.286 -20.452 -20.662  0.00  0.00    -0.255 N 
ATOM      2  N   UNL     1      35.059 -21.580 -18.785  0.00  0.00    -0.258 NA
ATOM      3  N   UNL     1      32.713 -21.447 -19.274  0.00  0.00    -0.247 NA
ATOM      4  N   UNL     1      31.183 -22.476 -17.825  0.00  0.00    -0.237 N 
ATOM      5  N   UNL     1      33.469 -22.621 -17.322  0.00  0.00    -0.257 NA
ATOM      6  C   UNL     1      34.008 -21.192 -19.525  0.00  0.00    +0.221 C 
ATOM      7  C   UNL     1      34.714 -22.290 -17.700  0.00  0.00    +0.193 C 
ATOM      8  C   UNL     1      32.519 -22.165 -18.156  0.00  0.00    +0.224 C 
ATOM      9  H   UNL     1      33.532 -20.155 -21.220  0.00  0.00    +0.160 HD
ATOM     10  H   UNL     1      30.524 -22.121 -18.464  0.00  0.00    +0.166 HD
ENDROOT
BRANCH   7  12
ATOM     11  N   UNL     1      35.476 -23.780 -16.045  0.00  0.00    -0.390 NA
ATOM     12  C   UNL     1      35.786 -22.743 -16.855  0.00  0.00    +0.217 C 
ATOM     13  C   UNL     1      37.032 -22.137 -16.896  0.00  0.00    +0.040 C 
ATOM     14  C   UNL     1      36.464 -24.229 -15.238  0.00  0.00    +0.185 C 
ATOM     15  C   UNL     1      38.022 -22.626 -16.052  0.00  0.00    -0.015 C 
ATOM     16  C   UNL     1      37.741 -23.692 -15.203  0.00  0.00    +0.089 C 
BRANCH  14  20
ATOM     17  F   UNL     1      35.065 -25.104 -13.525  0.00  0.00    -0.164 F 
ATOM     18  F   UNL     1      35.794 -26.514 -15.012  0.00  0.00    -0.164 F 
ATOM     19  F   UNL     1      37.147 -25.733 -13.508  0.00  0.00    -0.164 F 
ATOM     20  C   UNL     1      36.127 -25.373 -14.341  0.00  0.00    +0.443 C 
ENDBRANCH  14  20
ENDBRANCH   7  12
BRANCH   4  22
ATOM     21  N   UNL     1      29.465 -24.617 -14.643  0.00  0.00    -0.240 NA
ATOM     22  C   UNL     1      30.608 -23.193 -16.759  0.00  0.00    +0.061 C 
ATOM     23  C   UNL     1      31.294 -23.328 -15.558  0.00  0.00    +0.038 C 
ATOM     24  C   UNL     1      29.351 -23.770 -16.904  0.00  0.00    +0.036 C 
ATOM     25  C   UNL     1      30.684 -24.044 -14.539  0.00  0.00    +0.154 C 
ATOM     26  C   UNL     1      28.827 -24.465 -15.826  0.00  0.00    +0.100 C 
BRANCH  25  30
ATOM     27  F   UNL     1      32.068 -25.390 -13.126  0.00  0.00    -0.164 F 
ATOM     28  F   UNL     1      32.322 -23.240 -12.992  0.00  0.00    -0.164 F 
ATOM     29  F   UNL     1      30.540 -24.175 -12.169  0.00  0.00    -0.164 F 
ATOM     30  C   UNL     1      31.391 -24.209 -13.236  0.00  0.00    +0.435 C 
ENDBRANCH  25  30
ENDBRANCH   4  22
BRANCH   1  31
ATOM     31  C   UNL     1      35.626 -20.090 -21.074  0.00  0.00    +0.125 C 
BRANCH  31  32
ATOM     32  C   UNL     1      35.627 -18.799 -21.906  0.00  0.00    +0.107 C 
ATOM     33  C   UNL     1      34.911 -19.047 -23.238  0.00  0.00    +0.031 C 
ATOM     34  C   UNL     1      34.971 -17.628 -21.169  0.00  0.00    +0.031 C 
BRANCH  32  35
ATOM     35  O   UNL     1      36.983 -18.457 -22.198  0.00  0.00    -0.385 OA
ATOM     36  H   UNL     1      37.534 -18.623 -21.417  0.00  0.00    +0.210 HD
ENDBRANCH  32  35
ENDBRANCH  31  32
ENDBRANCH   1  31
TORSDOF 7
ENDMDL
MODEL 3
REMARK VINA RESULT:      -9.4     11.122     14.038
REMARK  Name = 89683805
REMARK  7 active torsions:
REMARK  status: ('A' for Active; 'I' for Inactive)
REMARK    1  A    between atoms: N_1  and  C_31
REMARK    2  A    between atoms: N_4  and  C_22
REMARK    3  A    between atoms: C_7  and  C_12
REMARK    4  A    between atoms: C_14  and  C_20
REMARK    5  A    between atoms: C_25  and  C_30
REMARK    6  A    between atoms: C_31  and  C_32
REMARK    7  A    between atoms: C_32  and  O_35
REMARK                            x       y       z     vdW  Elec       q    Type
REMARK                         _______ _______ _______ _____ _____    ______ ____
ROOT
ATOM      1  N   UNL     1      32.631 -15.607 -20.804  0.00  0.00    -0.255 N 
ATOM      2  N   UNL     1      33.004 -14.261 -22.658  0.00  0.00    -0.258 NA
ATOM      3  N   UNL     1      32.305 -13.320 -20.565  0.00  0.00    -0.247 NA
ATOM      4  N   UNL     1      31.995 -11.002 -20.399  0.00  0.00    -0.237 N 
ATOM      5  N   UNL     1      32.678 -11.893 -22.458  0.00  0.00    -0.257 NA
ATOM      6  C   UNL     1      32.649 -14.342 -21.366  0.00  0.00    +0.221 C 
ATOM      7  C   UNL     1      32.997 -13.006 -23.136  0.00  0.00    +0.193 C 
ATOM      8  C   UNL     1      32.342 -12.126 -21.178  0.00  0.00    +0.224 C 
ATOM      9  H   UNL     1      32.373 -15.692 -19.858  0.00  0.00    +0.160 HD
ATOM     10  H   UNL     1      31.757 -11.222 -19.470  0.00  0.00    +0.166 HD
ENDROOT
BRANCH   7  12
ATOM     11  N   UNL     1      34.194 -11.796 -24.761  0.00  0.00    -0.390 NA
ATOM     12  C   UNL     1      33.368 -12.837 -24.516  0.00  0.00    +0.217 C 
ATOM     13  C   UNL     1      32.894 -13.698 -25.493  0.00  0.00    +0.040 C 
ATOM     14  C   UNL     1      34.561 -11.610 -26.050  0.00  0.00    +0.185 C 
ATOM     15  C   UNL     1      33.294 -13.476 -26.806  0.00  0.00    -0.015 C 
ATOM     16  C   UNL     1      34.142 -12.414 -27.098  0.00  0.00    +0.089 C 
BRANCH  14  20
ATOM     17  F   UNL     1      35.776 -10.340 -27.652  0.00  0.00    -0.164 F 
ATOM     18  F   UNL     1      34.955  -9.252 -25.957  0.00  0.00    -0.164 F 
ATOM     19  F   UNL     1      36.672 -10.548 -25.681  0.00  0.00    -0.164 F 
ATOM     20  C   UNL     1      35.472 -10.461 -26.326  0.00  0.00    +0.443 C 
ENDBRANCH  14  20
ENDBRANCH   7  12
BRANCH   4  22
ATOM     21  N   UNL     1      31.779  -6.896 -21.270  0.00  0.00    -0.240 NA
ATOM     22  C   UNL     1      31.923  -9.626 -20.691  0.00  0.00    +0.061 C 
ATOM     23  C   UNL     1      31.623  -9.202 -21.980  0.00  0.00    +0.038 C 
ATOM     24  C   UNL     1      32.151  -8.688 -19.691  0.00  0.00    +0.036 C 
ATOM     25  C   UNL     1      31.563  -7.837 -22.216  0.00  0.00    +0.154 C 
ATOM     26  C   UNL     1      32.068  -7.346 -20.028  0.00  0.00    +0.100 C 
BRANCH  25  30
ATOM     27  F   UNL     1      32.300  -7.405 -24.450  0.00  0.00    -0.164 F 
ATOM     28  F   UNL     1      30.242  -8.041 -24.198  0.00  0.00    -0.164 F 
ATOM     29  F   UNL     1      30.839  -6.040 -23.595  0.00  0.00    -0.164 F 
ATOM     30  C   UNL     1      31.244  -7.344 -23.587  0.00  0.00    +0.435 C 
ENDBRANCH  25  30
ENDBRANCH   4  22
BRANCH   1  31
ATOM     31  C   UNL     1      32.972 -16.811 -21.530  0.00  0.00    +0.125 C 
BRANCH  31  32
ATOM     32  C   UNL     1      34.464 -17.149 -21.387  0.00  0.00    +0.107 C 
ATOM     33  C   UNL     1      34.623 -18.638 -21.062  0.00  0.00    +0.031 C 
ATOM     34  C   UNL     1      35.266 -16.798 -22.643  0.00  0.00    +0.031 C 
BRANCH  32  35
ATOM     35  O   UNL     1      34.987 -16.405 -20.284  0.00  0.00    -0.385 OA
ATOM     36  H   UNL     1      35.903 -16.676 -20.116  0.00  0.00    +0.210 HD
ENDBRANCH  32  35
ENDBRANCH  31  32
ENDBRANCH   1  31
TORSDOF 7
ENDMDL
MODEL 4
REMARK VINA RESULT:      -9.2      1.668      2.214
REMARK  Name = 89683805
REMARK  7 active torsions:
REMARK  status: ('A' for Active; 'I' for Inactive)
REMARK    1  A    between atoms: N_1  and  C_31
REMARK    2  A    between atoms: N_4  and  C_22
REMARK    3  A    between atoms: C_7  and  C_12
REMARK    4  A    between atoms: C_14  and  C_20
REMARK    5  A    between atoms: C_25  and  C_30
REMARK    6  A    between atoms: C_31  and  C_32
REMARK    7  A    between atoms: C_32  and  O_35
REMARK                            x       y       z     vdW  Elec       q    Type
REMARK                         _______ _______ _______ _____ _____    ______ ____
ROOT
ATOM      1  N   UNL     1      36.440 -24.480 -12.812  0.00  0.00    -0.255 N 
ATOM      2  N   UNL     1      35.855 -23.547 -14.855  0.00  0.00    -0.258 NA
ATOM      3  N   UNL     1      34.217 -24.620 -13.468  0.00  0.00    -0.247 NA
ATOM      4  N   UNL     1      31.991 -24.723 -14.197  0.00  0.00    -0.237 N 
ATOM      5  N   UNL     1      33.570 -23.670 -15.574  0.00  0.00    -0.257 NA
ATOM      6  C   UNL     1      35.462 -24.203 -13.752  0.00  0.00    +0.221 C 
ATOM      7  C   UNL     1      34.856 -23.315 -15.722  0.00  0.00    +0.193 C 
ATOM      8  C   UNL     1      33.324 -24.319 -14.424  0.00  0.00    +0.224 C 
ATOM      9  H   UNL     1      36.177 -24.961 -11.995  0.00  0.00    +0.160 HD
ATOM     10  H   UNL     1      31.860 -25.195 -13.343  0.00  0.00    +0.166 HD
ENDROOT
BRANCH   7  12
ATOM     11  N   UNL     1      34.154 -22.336 -17.744  0.00  0.00    -0.390 NA
ATOM     12  C   UNL     1      35.198 -22.615 -16.931  0.00  0.00    +0.217 C 
ATOM     13  C   UNL     1      36.510 -22.267 -17.208  0.00  0.00    +0.040 C 
ATOM     14  C   UNL     1      34.443 -21.679 -18.889  0.00  0.00    +0.185 C 
ATOM     15  C   UNL     1      36.768 -21.592 -18.395  0.00  0.00    -0.015 C 
ATOM     16  C   UNL     1      35.720 -21.288 -19.258  0.00  0.00    +0.089 C 
BRANCH  14  20
ATOM     17  F   UNL     1      33.657 -20.595 -20.855  0.00  0.00    -0.164 F 
ATOM     18  F   UNL     1      32.707 -22.479 -20.328  0.00  0.00    -0.164 F 
ATOM     19  F   UNL     1      32.282 -20.693 -19.173  0.00  0.00    -0.164 F 
ATOM     20  C   UNL     1      33.294 -21.370 -19.791  0.00  0.00    +0.443 C 
ENDBRANCH  14  20
ENDBRANCH   7  12
BRANCH   4  22
ATOM     21  N   UNL     1      28.470 -24.311 -16.456  0.00  0.00    -0.240 NA
ATOM     22  C   UNL     1      30.812 -24.585 -14.954  0.00  0.00    +0.061 C 
ATOM     23  C   UNL     1      30.032 -23.442 -14.828  0.00  0.00    +0.038 C 
ATOM     24  C   UNL     1      30.423 -25.592 -15.830  0.00  0.00    +0.036 C 
ATOM     25  C   UNL     1      28.880 -23.354 -15.594  0.00  0.00    +0.154 C 
ATOM     26  C   UNL     1      29.254 -25.409 -16.552  0.00  0.00    +0.100 C 
BRANCH  25  30
ATOM     27  F   UNL     1      27.969 -21.400 -16.631  0.00  0.00    -0.164 F 
ATOM     28  F   UNL     1      26.716 -22.421 -15.184  0.00  0.00    -0.164 F 
ATOM     29  F   UNL     1      28.442 -21.283 -14.512  0.00  0.00    -0.164 F 
ATOM     30  C   UNL     1      28.018 -22.141 -15.485  0.00  0.00    +0.435 C 
ENDBRANCH  25  30
ENDBRANCH   4  22
BRANCH   1  31
ATOM     31  C   UNL     1      37.828 -24.102 -12.965  0.00  0.00    +0.125 C 
BRANCH  31  32
ATOM     32  C   UNL     1      38.550 -25.013 -13.969  0.00  0.00    +0.107 C 
ATOM     33  C   UNL     1      40.000 -25.222 -13.521  0.00  0.00    +0.031 C 
ATOM     34  C   UNL     1      37.853 -26.367 -14.136  0.00  0.00    +0.031 C 
BRANCH  32  35
ATOM     35  O   UNL     1      38.577 -24.351 -15.235  0.00  0.00    -0.385 OA
ATOM     36  H   UNL     1      39.495 -24.150 -15.475  0.00  0.00    +0.210 HD
ENDBRANCH  32  35
ENDBRANCH  31  32
ENDBRANCH   1  31
TORSDOF 7
ENDMDL
MODEL 5
REMARK VINA RESULT:      -9.2      9.870     13.057
REMARK  Name = 89683805
REMARK  7 active torsions:
REMARK  status: ('A' for Active; 'I' for Inactive)
REMARK    1  A    between atoms: N_1  and  C_31
REMARK    2  A    between atoms: N_4  and  C_22
REMARK    3  A    between atoms: C_7  and  C_12
REMARK    4  A    between atoms: C_14  and  C_20
REMARK    5  A    between atoms: C_25  and  C_30
REMARK    6  A    between atoms: C_31  and  C_32
REMARK    7  A    between atoms: C_32  and  O_35
REMARK                            x       y       z     vdW  Elec       q    Type
REMARK                         _______ _______ _______ _____ _____    ______ ____
ROOT
ATOM      1  N   UNL     1      31.187 -10.956 -21.018  0.00  0.00    -0.255 N 
ATOM      2  N   UNL     1      32.270 -11.852 -22.866  0.00  0.00    -0.258 NA
ATOM      3  N   UNL     1      32.071 -13.094 -20.823  0.00  0.00    -0.247 NA
ATOM      4  N   UNL     1      32.990 -15.248 -20.700  0.00  0.00    -0.237 N 
ATOM      5  N   UNL     1      33.200 -14.057 -22.708  0.00  0.00    -0.257 NA
ATOM      6  C   UNL     1      31.871 -12.013 -21.594  0.00  0.00    +0.221 C 
ATOM      7  C   UNL     1      32.928 -12.914 -23.357  0.00  0.00    +0.193 C 
ATOM      8  C   UNL     1      32.742 -14.076 -21.446  0.00  0.00    +0.224 C 
ATOM      9  H   UNL     1      30.885 -11.050 -20.086  0.00  0.00    +0.160 HD
ATOM     10  H   UNL     1      32.637 -15.215 -19.781  0.00  0.00    +0.166 HD
ENDROOT
BRANCH   7  12
ATOM     11  N   UNL     1      34.215 -11.779 -24.968  0.00  0.00    -0.390 NA
ATOM     12  C   UNL     1      33.388 -12.818 -24.717  0.00  0.00    +0.217 C 
ATOM     13  C   UNL     1      32.991 -13.742 -25.671  0.00  0.00    +0.040 C 
ATOM     14  C   UNL     1      34.664 -11.662 -26.238  0.00  0.00    +0.185 C 
ATOM     15  C   UNL     1      33.474 -13.588 -26.966  0.00  0.00    -0.015 C 
ATOM     16  C   UNL     1      34.327 -12.531 -27.263  0.00  0.00    +0.089 C 
BRANCH  14  20
ATOM     17  F   UNL     1      35.863 -10.388 -27.849  0.00  0.00    -0.164 F 
ATOM     18  F   UNL     1      35.071  -9.306 -26.137  0.00  0.00    -0.164 F 
ATOM     19  F   UNL     1      36.786 -10.612 -25.892  0.00  0.00    -0.164 F 
ATOM     20  C   UNL     1      35.577 -10.515 -26.520  0.00  0.00    +0.443 C 
ENDBRANCH  14  20
ENDBRANCH   7  12
BRANCH   4  22
ATOM     21  N   UNL     1      34.944 -18.851 -21.629  0.00  0.00    -0.240 NA
ATOM     22  C   UNL     1      33.644 -16.455 -21.011  0.00  0.00    +0.061 C 
ATOM     23  C   UNL     1      33.061 -17.671 -20.678  0.00  0.00    +0.038 C 
ATOM     24  C   UNL     1      34.878 -16.435 -21.653  0.00  0.00    +0.036 C 
ATOM     25  C   UNL     1      33.745 -18.831 -21.006  0.00  0.00    +0.154 C 
ATOM     26  C   UNL     1      35.482 -17.649 -21.938  0.00  0.00    +0.100 C 
BRANCH  25  30
ATOM     27  F   UNL     1      34.053 -21.178 -20.659  0.00  0.00    -0.164 F 
ATOM     28  F   UNL     1      32.564 -20.189 -19.431  0.00  0.00    -0.164 F 
ATOM     29  F   UNL     1      32.173 -20.533 -21.541  0.00  0.00    -0.164 F 
ATOM     30  C   UNL     1      33.148 -20.155 -20.664  0.00  0.00    +0.435 C 
ENDBRANCH  25  30
ENDBRANCH   4  22
BRANCH   1  31
ATOM     31  C   UNL     1      30.891  -9.721 -21.711  0.00  0.00    +0.125 C 
BRANCH  31  32
ATOM     32  C   UNL     1      32.008  -8.685 -21.513  0.00  0.00    +0.107 C 
ATOM     33  C   UNL     1      31.518  -7.308 -21.973  0.00  0.00    +0.031 C 
ATOM     34  C   UNL     1      32.487  -8.613 -20.060  0.00  0.00    +0.031 C 
BRANCH  32  35
ATOM     35  O   UNL     1      33.112  -9.054 -22.343  0.00  0.00    -0.385 OA
ATOM     36  H   UNL     1      33.924  -9.071 -21.812  0.00  0.00    +0.210 HD
ENDBRANCH  32  35
ENDBRANCH  31  32
ENDBRANCH   1  31
TORSDOF 7
ENDMDL
MODEL 6
REMARK VINA RESULT:      -9.1      9.580     13.078
REMARK  Name = 89683805
REMARK  7 active torsions:
REMARK  status: ('A' for Active; 'I' for Inactive)
REMARK    1  A    between atoms: N_1  and  C_31
REMARK    2  A    between atoms: N_4  and  C_22
REMARK    3  A    between atoms: C_7  and  C_12
REMARK    4  A    between atoms: C_14  and  C_20
REMARK    5  A    between atoms: C_25  and  C_30
REMARK    6  A    between atoms: C_31  and  C_32
REMARK    7  A    between atoms: C_32  and  O_35
REMARK                            x       y       z     vdW  Elec       q    Type
REMARK                         _______ _______ _______ _____ _____    ______ ____
ROOT
ATOM      1  N   UNL     1      31.517 -11.856 -20.285  0.00  0.00    -0.255 N 
ATOM      2  N   UNL     1      32.450 -12.322 -22.359  0.00  0.00    -0.258 NA
ATOM      3  N   UNL     1      32.569 -13.907 -20.563  0.00  0.00    -0.247 NA
ATOM      4  N   UNL     1      33.648 -15.959 -20.917  0.00  0.00    -0.237 N 
ATOM      5  N   UNL     1      33.548 -14.428 -22.691  0.00  0.00    -0.257 NA
ATOM      6  C   UNL     1      32.207 -12.733 -21.104  0.00  0.00    +0.221 C 
ATOM      7  C   UNL     1      33.124 -13.220 -23.094  0.00  0.00    +0.193 C 
ATOM      8  C   UNL     1      33.236 -14.704 -21.413  0.00  0.00    +0.224 C 
ATOM      9  H   UNL     1      31.328 -12.135 -19.360  0.00  0.00    +0.160 HD
ATOM     10  H   UNL     1      33.397 -16.116 -19.978  0.00  0.00    +0.166 HD
ENDROOT
BRANCH   7  12
ATOM     11  N   UNL     1      34.240 -11.785 -24.588  0.00  0.00    -0.390 NA
ATOM     12  C   UNL     1      33.422 -12.852 -24.453  0.00  0.00    +0.217 C 
ATOM     13  C   UNL     1      32.892 -13.563 -25.518  0.00  0.00    +0.040 C 
ATOM     14  C   UNL     1      34.539 -11.414 -25.854  0.00  0.00    +0.185 C 
ATOM     15  C   UNL     1      33.222 -13.152 -26.804  0.00  0.00    -0.015 C 
ATOM     16  C   UNL     1      34.061 -12.058 -26.984  0.00  0.00    +0.089 C 
BRANCH  14  20
ATOM     17  F   UNL     1      35.800 -10.018 -27.309  0.00  0.00    -0.164 F 
ATOM     18  F   UNL     1      34.888  -9.063 -25.581  0.00  0.00    -0.164 F 
ATOM     19  F   UNL     1      36.614 -10.350 -25.319  0.00  0.00    -0.164 F 
ATOM     20  C   UNL     1      35.441 -10.235 -26.010  0.00  0.00    +0.443 C 
ENDBRANCH  14  20
ENDBRANCH   7  12
BRANCH   4  22
ATOM     21  N   UNL     1      35.741 -19.159 -22.662  0.00  0.00    -0.240 NA
ATOM     22  C   UNL     1      34.349 -17.031 -21.502  0.00  0.00    +0.061 C 
ATOM     23  C   UNL     1      34.074 -17.415 -22.808  0.00  0.00    +0.038 C 
ATOM     24  C   UNL     1      35.320 -17.710 -20.773  0.00  0.00    +0.036 C 
ATOM     25  C   UNL     1      34.791 -18.476 -23.338  0.00  0.00    +0.154 C 
ATOM     26  C   UNL     1      35.982 -18.758 -21.393  0.00  0.00    +0.100 C 
BRANCH  25  30
ATOM     27  F   UNL     1      35.062 -20.133 -25.043  0.00  0.00    -0.164 F 
ATOM     28  F   UNL     1      33.193 -19.032 -25.029  0.00  0.00    -0.164 F 
ATOM     29  F   UNL     1      35.025 -18.050 -25.665  0.00  0.00    -0.164 F 
ATOM     30  C   UNL     1      34.522 -18.916 -24.738  0.00  0.00    +0.435 C 
ENDBRANCH  25  30
ENDBRANCH   4  22
BRANCH   1  31
ATOM     31  C   UNL     1      31.058 -10.552 -20.713  0.00  0.00    +0.125 C 
BRANCH  31  32
ATOM     32  C   UNL     1      31.961  -9.434 -20.171  0.00  0.00    +0.107 C 
ATOM     33  C   UNL     1      32.797  -8.850 -21.315  0.00  0.00    +0.031 C 
ATOM     34  C   UNL     1      31.165  -8.321 -19.483  0.00  0.00    +0.031 C 
BRANCH  32  35
ATOM     35  O   UNL     1      32.863 -10.008 -19.223  0.00  0.00    -0.385 OA
ATOM     36  H   UNL     1      33.656  -9.454 -19.154  0.00  0.00    +0.210 HD
ENDBRANCH  32  35
ENDBRANCH  31  32
ENDBRANCH   1  31
TORSDOF 7
ENDMDL
MODEL 7
REMARK VINA RESULT:      -8.8     10.200     13.056
REMARK  Name = 89683805
REMARK  7 active torsions:
REMARK  status: ('A' for Active; 'I' for Inactive)
REMARK    1  A    between atoms: N_1  and  C_31
REMARK    2  A    between atoms: N_4  and  C_22
REMARK    3  A    between atoms: C_7  and  C_12
REMARK    4  A    between atoms: C_14  and  C_20
REMARK    5  A    between atoms: C_25  and  C_30
REMARK    6  A    between atoms: C_31  and  C_32
REMARK    7  A    between atoms: C_32  and  O_35
REMARK                            x       y       z     vdW  Elec       q    Type
REMARK                         _______ _______ _______ _____ _____    ______ ____
ROOT
ATOM      1  N   UNL     1      33.444 -16.882 -21.466  0.00  0.00    -0.255 N 
ATOM      2  N   UNL     1      33.468 -15.151 -23.013  0.00  0.00    -0.258 NA
ATOM      3  N   UNL     1      32.834 -14.765 -20.731  0.00  0.00    -0.247 NA
ATOM      4  N   UNL     1      32.229 -12.600 -20.062  0.00  0.00    -0.237 N 
ATOM      5  N   UNL     1      32.844 -12.948 -22.298  0.00  0.00    -0.257 NA
ATOM      6  C   UNL     1      33.241 -15.541 -21.749  0.00  0.00    +0.221 C 
ATOM      7  C   UNL     1      33.250 -13.841 -23.214  0.00  0.00    +0.193 C 
ATOM      8  C   UNL     1      32.656 -13.481 -21.080  0.00  0.00    +0.224 C 
ATOM      9  H   UNL     1      33.283 -17.192 -20.546  0.00  0.00    +0.160 HD
ATOM     10  H   UNL     1      32.105 -13.035 -19.188  0.00  0.00    +0.166 HD
ENDROOT
BRANCH   7  12
ATOM     11  N   UNL     1      34.197 -12.206 -24.616  0.00  0.00    -0.390 NA
ATOM     12  C   UNL     1      33.473 -13.345 -24.546  0.00  0.00    +0.217 C 
ATOM     13  C   UNL     1      32.967 -14.012 -25.650  0.00  0.00    +0.040 C 
ATOM     14  C   UNL     1      34.424 -11.714 -25.855  0.00  0.00    +0.185 C 
ATOM     15  C   UNL     1      33.221 -13.476 -26.907  0.00  0.00    -0.015 C 
ATOM     16  C   UNL     1      33.962 -12.305 -27.021  0.00  0.00    +0.089 C 
BRANCH  14  20
ATOM     17  F   UNL     1      35.649 -10.189 -27.208  0.00  0.00    -0.164 F 
ATOM     18  F   UNL     1      34.536  -9.345 -25.542  0.00  0.00    -0.164 F 
ATOM     19  F   UNL     1      36.350 -10.473 -25.169  0.00  0.00    -0.164 F 
ATOM     20  C   UNL     1      35.223 -10.456 -25.939  0.00  0.00    +0.443 C 
ENDBRANCH  14  20
ENDBRANCH   7  12
BRANCH   4  22
ATOM     21  N   UNL     1      31.385  -8.483 -20.033  0.00  0.00    -0.240 NA
ATOM     22  C   UNL     1      31.947 -11.221 -20.053  0.00  0.00    +0.061 C 
ATOM     23  C   UNL     1      32.102 -10.469 -21.210  0.00  0.00    +0.038 C 
ATOM     24  C   UNL     1      31.510 -10.607 -18.884  0.00  0.00    +0.036 C 
ATOM     25  C   UNL     1      31.811  -9.115 -21.149  0.00  0.00    +0.154 C 
ATOM     26  C   UNL     1      31.245  -9.247 -18.925  0.00  0.00    +0.100 C 
BRANCH  25  30
ATOM     27  F   UNL     1      32.953  -7.337 -22.270  0.00  0.00    -0.164 F 
ATOM     28  F   UNL     1      32.272  -8.994 -23.493  0.00  0.00    -0.164 F 
ATOM     29  F   UNL     1      30.832  -7.582 -22.681  0.00  0.00    -0.164 F 
ATOM     30  C   UNL     1      31.967  -8.276 -22.373  0.00  0.00    +0.435 C 
ENDBRANCH  25  30
ENDBRANCH   4  22
BRANCH   1  31
ATOM     31  C   UNL     1      33.880 -17.850 -22.448  0.00  0.00    +0.125 C 
BRANCH  31  32
ATOM     32  C   UNL     1      34.583 -19.044 -21.785  0.00  0.00    +0.107 C 
ATOM     33  C   UNL     1      35.843 -18.558 -21.062  0.00  0.00    +0.031 C 
ATOM     34  C   UNL     1      33.671 -19.790 -20.806  0.00  0.00    +0.031 C 
BRANCH  32  35
ATOM     35  O   UNL     1      34.993 -19.948 -22.813  0.00  0.00    -0.385 OA
ATOM     36  H   UNL     1      35.881 -20.285 -22.613  0.00  0.00    +0.210 HD
ENDBRANCH  32  35
ENDBRANCH  31  32
ENDBRANCH   1  31
TORSDOF 7
ENDMDL
MODEL 8
REMARK VINA RESULT:      -8.7      9.511     13.053
REMARK  Name = 89683805
REMARK  7 active torsions:
REMARK  status: ('A' for Active; 'I' for Inactive)
REMARK    1  A    between atoms: N_1  and  C_31
REMARK    2  A    between atoms: N_4  and  C_22
REMARK    3  A    between atoms: C_7  and  C_12
REMARK    4  A    between atoms: C_14  and  C_20
REMARK    5  A    between atoms: C_25  and  C_30
REMARK    6  A    between atoms: C_31  and  C_32
REMARK    7  A    between atoms: C_32  and  O_35
REMARK                            x       y       z     vdW  Elec       q    Type
REMARK                         _______ _______ _______ _____ _____    ______ ____
ROOT
ATOM      1  N   UNL     1      31.269 -11.737 -19.922  0.00  0.00    -0.255 N 
ATOM      2  N   UNL     1      32.429 -11.958 -21.921  0.00  0.00    -0.258 NA
ATOM      3  N   UNL     1      32.365 -13.744 -20.321  0.00  0.00    -0.247 NA
ATOM      4  N   UNL     1      33.498 -15.743 -20.792  0.00  0.00    -0.237 N 
ATOM      5  N   UNL     1      33.578 -14.014 -22.374  0.00  0.00    -0.257 NA
ATOM      6  C   UNL     1      32.054 -12.513 -20.758  0.00  0.00    +0.221 C 
ATOM      7  C   UNL     1      33.189 -12.766 -22.677  0.00  0.00    +0.193 C 
ATOM      8  C   UNL     1      33.130 -14.437 -21.180  0.00  0.00    +0.224 C 
ATOM      9  H   UNL     1      30.982 -12.122 -19.063  0.00  0.00    +0.160 HD
ATOM     10  H   UNL     1      33.147 -16.008 -19.911  0.00  0.00    +0.166 HD
ENDROOT
BRANCH   7  12
ATOM     11  N   UNL     1      33.372 -13.031 -25.009  0.00  0.00    -0.390 NA
ATOM     12  C   UNL     1      33.631 -12.242 -23.942  0.00  0.00    +0.217 C 
ATOM     13  C   UNL     1      34.270 -11.015 -24.022  0.00  0.00    +0.040 C 
ATOM     14  C   UNL     1      33.776 -12.565 -26.213  0.00  0.00    +0.185 C 
ATOM     15  C   UNL     1      34.670 -10.570 -25.277  0.00  0.00    -0.015 C 
ATOM     16  C   UNL     1      34.422 -11.354 -26.398  0.00  0.00    +0.089 C 
BRANCH  14  20
ATOM     17  F   UNL     1      34.519 -13.440 -28.295  0.00  0.00    -0.164 F 
ATOM     18  F   UNL     1      33.279 -14.742 -27.072  0.00  0.00    -0.164 F 
ATOM     19  F   UNL     1      32.387 -13.053 -28.099  0.00  0.00    -0.164 F 
ATOM     20  C   UNL     1      33.494 -13.433 -27.394  0.00  0.00    +0.443 C 
ENDBRANCH  14  20
ENDBRANCH   7  12
BRANCH   4  22
ATOM     21  N   UNL     1      35.803 -18.722 -22.657  0.00  0.00    -0.240 NA
ATOM     22  C   UNL     1      34.270 -16.741 -21.417  0.00  0.00    +0.061 C 
ATOM     23  C   UNL     1      34.023 -17.088 -22.739  0.00  0.00    +0.038 C 
ATOM     24  C   UNL     1      35.284 -17.382 -20.713  0.00  0.00    +0.036 C 
ATOM     25  C   UNL     1      34.810 -18.077 -23.309  0.00  0.00    +0.154 C 
ATOM     26  C   UNL     1      36.015 -18.357 -21.372  0.00  0.00    +0.100 C 
BRANCH  25  30
ATOM     27  F   UNL     1      35.065 -17.584 -25.635  0.00  0.00    -0.164 F 
ATOM     28  F   UNL     1      35.137 -19.674 -25.059  0.00  0.00    -0.164 F 
ATOM     29  F   UNL     1      33.246 -18.603 -25.020  0.00  0.00    -0.164 F 
ATOM     30  C   UNL     1      34.573 -18.476 -24.726  0.00  0.00    +0.435 C 
ENDBRANCH  25  30
ENDBRANCH   4  22
BRANCH   1  31
ATOM     31  C   UNL     1      30.846 -10.391 -20.243  0.00  0.00    +0.125 C 
BRANCH  31  32
ATOM     32  C   UNL     1      31.911  -9.359 -19.843  0.00  0.00    +0.107 C 
ATOM     33  C   UNL     1      32.700  -8.929 -21.084  0.00  0.00    +0.031 C 
ATOM     34  C   UNL     1      31.306  -8.131 -19.155  0.00  0.00    +0.031 C 
BRANCH  32  35
ATOM     35  O   UNL     1      32.826  -9.986 -18.942  0.00  0.00    -0.385 OA
ATOM     36  H   UNL     1      33.702  -9.580 -19.034  0.00  0.00    +0.210 HD
ENDBRANCH  32  35
ENDBRANCH  31  32
ENDBRANCH   1  31
TORSDOF 7
ENDMDL
MODEL 9
REMARK VINA RESULT:      -8.5      9.962     13.371
REMARK  Name = 89683805
REMARK  7 active torsions:
REMARK  status: ('A' for Active; 'I' for Inactive)
REMARK    1  A    between atoms: N_1  and  C_31
REMARK    2  A    between atoms: N_4  and  C_22
REMARK    3  A    between atoms: C_7  and  C_12
REMARK    4  A    between atoms: C_14  and  C_20
REMARK    5  A    between atoms: C_25  and  C_30
REMARK    6  A    between atoms: C_31  and  C_32
REMARK    7  A    between atoms: C_32  and  O_35
REMARK                            x       y       z     vdW  Elec       q    Type
REMARK                         _______ _______ _______ _____ _____    ______ ____
ROOT
ATOM      1  N   UNL     1      31.471 -10.511 -20.807  0.00  0.00    -0.255 N 
ATOM      2  N   UNL     1      32.372 -11.550 -22.678  0.00  0.00    -0.258 NA
ATOM      3  N   UNL     1      31.987 -12.769 -20.648  0.00  0.00    -0.247 NA
ATOM      4  N   UNL     1      32.533 -15.048 -20.561  0.00  0.00    -0.237 N 
ATOM      5  N   UNL     1      32.921 -13.882 -22.558  0.00  0.00    -0.257 NA
ATOM      6  C   UNL     1      31.964 -11.659 -21.403  0.00  0.00    +0.221 C 
ATOM      7  C   UNL     1      32.838 -12.700 -23.189  0.00  0.00    +0.193 C 
ATOM      8  C   UNL     1      32.478 -13.841 -21.290  0.00  0.00    +0.224 C 
ATOM      9  H   UNL     1      31.167 -10.566 -19.873  0.00  0.00    +0.160 HD
ATOM     10  H   UNL     1      32.198 -14.969 -19.638  0.00  0.00    +0.166 HD
ENDROOT
BRANCH   7  12
ATOM     11  N   UNL     1      34.156 -11.662 -24.840  0.00  0.00    -0.390 NA
ATOM     12  C   UNL     1      33.295 -12.664 -24.553  0.00  0.00    +0.217 C 
ATOM     13  C   UNL     1      32.863 -13.603 -25.476  0.00  0.00    +0.040 C 
ATOM     14  C   UNL     1      34.604 -11.601 -26.114  0.00  0.00    +0.185 C 
ATOM     15  C   UNL     1      33.345 -13.508 -26.776  0.00  0.00    -0.015 C 
ATOM     16  C   UNL     1      34.232 -12.491 -27.110  0.00  0.00    +0.089 C 
BRANCH  14  20
ATOM     17  F   UNL     1      35.855 -10.436 -27.767  0.00  0.00    -0.164 F 
ATOM     18  F   UNL     1      35.083  -9.257 -26.110  0.00  0.00    -0.164 F 
ATOM     19  F   UNL     1      36.754 -10.603 -25.794  0.00  0.00    -0.164 F 
ATOM     20  C   UNL     1      35.554 -10.497 -26.437  0.00  0.00    +0.443 C 
ENDBRANCH  14  20
ENDBRANCH   7  12
BRANCH   4  22
ATOM     21  N   UNL     1      33.846 -18.915 -21.555  0.00  0.00    -0.240 NA
ATOM     22  C   UNL     1      32.973 -16.343 -20.894  0.00  0.00    +0.061 C 
ATOM     23  C   UNL     1      34.140 -16.516 -21.628  0.00  0.00    +0.038 C 
ATOM     24  C   UNL     1      32.241 -17.454 -20.490  0.00  0.00    +0.036 C 
ATOM     25  C   UNL     1      34.530 -17.812 -21.931  0.00  0.00    +0.154 C 
ATOM     26  C   UNL     1      32.716 -18.708 -20.842  0.00  0.00    +0.100 C 
BRANCH  25  30
ATOM     27  F   UNL     1      36.188 -16.937 -23.417  0.00  0.00    -0.164 F 
ATOM     28  F   UNL     1      36.850 -18.392 -21.951  0.00  0.00    -0.164 F 
ATOM     29  F   UNL     1      35.643 -19.030 -23.643  0.00  0.00    -0.164 F 
ATOM     30  C   UNL     1      35.778 -18.036 -22.718  0.00  0.00    +0.435 C 
ENDBRANCH  25  30
ENDBRANCH   4  22
BRANCH   1  31
ATOM     31  C   UNL     1      31.380  -9.234 -21.482  0.00  0.00    +0.125 C 
BRANCH  31  32
ATOM     32  C   UNL     1      32.385  -8.224 -20.909  0.00  0.00    +0.107 C 
ATOM     33  C   UNL     1      33.573  -8.083 -21.866  0.00  0.00    +0.031 C 
ATOM     34  C   UNL     1      31.754  -6.852 -20.652  0.00  0.00    +0.031 C 
BRANCH  32  35
ATOM     35  O   UNL     1      32.882  -8.740 -19.672  0.00  0.00    -0.385 OA
ATOM     36  H   UNL     1      33.599  -8.172 -19.349  0.00  0.00    +0.210 HD
ENDBRANCH  32  35
ENDBRANCH  31  32
ENDBRANCH   1  31
TORSDOF 7
ENDMDL
