MODEL 1
REMARK VINA RESULT:      -8.8      0.000      0.000
REMARK  Name = 6662
REMARK  4 active torsions:
REMARK  status: ('A' for Active; 'I' for Inactive)
REMARK    1  A    between atoms: S_1  and  C_4
REMARK    2  A    between atoms: S_1  and  N_14
REMARK    3  A    between atoms: C_9  and  N_10
REMARK    4  A    between atoms: N_14  and  C_19
REMARK                            x       y       z     vdW  Elec       q    Type
REMARK                         _______ _______ _______ _____ _____    ______ ____
ROOT
ATOM      1  S   UNL     1      35.870 -17.992 -21.410  0.00  0.00    +0.085 S 
ATOM      2  O   UNL     1      35.759 -16.915 -20.434  0.00  0.00    -0.149 OA
ATOM      3  O   UNL     1      37.189 -18.446 -21.834  0.00  0.00    -0.149 OA
ENDROOT
BRANCH   1   4
ATOM      4  C   UNL     1      34.988 -19.350 -20.757  0.00  0.00    +0.126 C 
ATOM      5  C   UNL     1      33.593 -19.352 -20.782  0.00  0.00    +0.021 C 
ATOM      6  C   UNL     1      35.677 -20.431 -20.208  0.00  0.00    +0.021 C 
ATOM      7  C   UNL     1      32.887 -20.435 -20.260  0.00  0.00    +0.015 C 
ATOM      8  C   UNL     1      34.972 -21.515 -19.686  0.00  0.00    +0.015 C 
ATOM      9  C   UNL     1      33.577 -21.517 -19.711  0.00  0.00    +0.042 C 
BRANCH   9  10
ATOM     10  N   UNL     1      32.864 -22.614 -19.184  0.00  0.00    -0.357 N 
ATOM     11  H   UNL     1      32.756 -22.710 -18.211  0.00  0.00    +0.142 HD
ATOM     12  H   UNL     1      32.476 -23.286 -19.791  0.00  0.00    +0.142 HD
ENDBRANCH   9  10
ENDBRANCH   1   4
BRANCH   1  14
ATOM     13  O   UNL     1      35.054 -19.715 -23.851  0.00  0.00    -0.273 OA
ATOM     14  N   UNL     1      34.958 -17.607 -22.828  0.00  0.00    -0.103 N 
ATOM     15  C   UNL     1      34.673 -18.546 -23.889  0.00  0.00    +0.251 C 
ATOM     16  C   UNL     1      33.862 -18.051 -25.060  0.00  0.00    +0.097 C 
BRANCH  14  19
ATOM     17  O   UNL     1      34.937 -15.330 -23.823  0.00  0.00    -0.337 OA
ATOM     18  N   UNL     1      34.217 -14.149 -23.689  0.00  0.00    -0.080 NA
ATOM     19  C   UNL     1      34.433 -16.228 -22.963  0.00  0.00    +0.250 A 
ATOM     20  C   UNL     1      33.405 -15.716 -22.249  0.00  0.00    +0.048 A 
ATOM     21  C   UNL     1      33.308 -14.404 -22.743  0.00  0.00    +0.098 A 
ATOM     22  C   UNL     1      32.582 -16.358 -21.210  0.00  0.00    +0.037 C 
ATOM     23  C   UNL     1      32.361 -13.350 -22.342  0.00  0.00    +0.055 C 
ENDBRANCH  14  19
ENDBRANCH   1  14
TORSDOF 4
ENDMDL
MODEL 2
REMARK VINA RESULT:      -7.5      1.630      2.727
REMARK  Name = 6662
REMARK  4 active torsions:
REMARK  status: ('A' for Active; 'I' for Inactive)
REMARK    1  A    between atoms: S_1  and  C_4
REMARK    2  A    between atoms: S_1  and  N_14
REMARK    3  A    between atoms: C_9  and  N_10
REMARK    4  A    between atoms: N_14  and  C_19
REMARK                            x       y       z     vdW  Elec       q    Type
REMARK                         _______ _______ _______ _____ _____    ______ ____
ROOT
ATOM      1  S   UNL     1      34.898 -18.375 -22.975  0.00  0.00    +0.085 S 
ATOM      2  O   UNL     1      36.339 -18.560 -23.103  0.00  0.00    -0.149 OA
ATOM      3  O   UNL     1      34.041 -18.582 -24.136  0.00  0.00    -0.149 OA
ENDROOT
BRANCH   1   4
ATOM      4  C   UNL     1      34.372 -19.429 -21.687  0.00  0.00    +0.126 C 
ATOM      5  C   UNL     1      33.029 -19.452 -21.310  0.00  0.00    +0.021 C 
ATOM      6  C   UNL     1      35.294 -20.245 -21.033  0.00  0.00    +0.021 C 
ATOM      7  C   UNL     1      32.608 -20.292 -20.280  0.00  0.00    +0.015 C 
ATOM      8  C   UNL     1      34.874 -21.086 -20.003  0.00  0.00    +0.015 C 
ATOM      9  C   UNL     1      33.531 -21.110 -19.626  0.00  0.00    +0.042 C 
BRANCH   9  10
ATOM     10  N   UNL     1      33.106 -21.962 -18.586  0.00  0.00    -0.357 N 
ATOM     11  H   UNL     1      33.195 -22.937 -18.679  0.00  0.00    +0.142 HD
ATOM     12  H   UNL     1      32.718 -21.580 -17.765  0.00  0.00    +0.142 HD
ENDBRANCH   9  10
ENDBRANCH   1   4
BRANCH   1  14
ATOM     13  O   UNL     1      35.519 -17.111 -20.217  0.00  0.00    -0.273 OA
ATOM     14  N   UNL     1      34.555 -16.806 -22.332  0.00  0.00    -0.103 N 
ATOM     15  C   UNL     1      34.915 -16.380 -21.000  0.00  0.00    +0.251 C 
ATOM     16  C   UNL     1      34.543 -14.977 -20.592  0.00  0.00    +0.097 C 
BRANCH  14  19
ATOM     17  O   UNL     1      32.863 -15.038 -22.767  0.00  0.00    -0.337 OA
ATOM     18  N   UNL     1      32.425 -14.266 -23.836  0.00  0.00    -0.080 NA
ATOM     19  C   UNL     1      33.847 -15.838 -23.204  0.00  0.00    +0.250 A 
ATOM     20  C   UNL     1      34.101 -15.649 -24.518  0.00  0.00    +0.048 A 
ATOM     21  C   UNL     1      33.179 -14.649 -24.871  0.00  0.00    +0.098 A 
ATOM     22  C   UNL     1      35.092 -16.315 -25.381  0.00  0.00    +0.037 C 
ATOM     23  C   UNL     1      32.978 -14.022 -26.188  0.00  0.00    +0.055 C 
ENDBRANCH  14  19
ENDBRANCH   1  14
TORSDOF 4
ENDMDL
MODEL 3
REMARK VINA RESULT:      -7.0      7.261     10.928
REMARK  Name = 6662
REMARK  4 active torsions:
REMARK  status: ('A' for Active; 'I' for Inactive)
REMARK    1  A    between atoms: S_1  and  C_4
REMARK    2  A    between atoms: S_1  and  N_14
REMARK    3  A    between atoms: C_9  and  N_10
REMARK    4  A    between atoms: N_14  and  C_19
REMARK                            x       y       z     vdW  Elec       q    Type
REMARK                         _______ _______ _______ _____ _____    ______ ____
ROOT
ATOM      1  S   UNL     1      35.249 -24.615 -15.036  0.00  0.00    +0.085 S 
ATOM      2  O   UNL     1      33.945 -24.393 -14.423  0.00  0.00    -0.149 OA
ATOM      3  O   UNL     1      35.596 -25.941 -15.530  0.00  0.00    -0.149 OA
ENDROOT
BRANCH   1   4
ATOM      4  C   UNL     1      35.385 -23.470 -16.347  0.00  0.00    +0.126 C 
ATOM      5  C   UNL     1      34.349 -23.344 -17.273  0.00  0.00    +0.021 C 
ATOM      6  C   UNL     1      36.530 -22.682 -16.471  0.00  0.00    +0.021 C 
ATOM      7  C   UNL     1      34.457 -22.431 -18.322  0.00  0.00    +0.015 C 
ATOM      8  C   UNL     1      36.638 -21.769 -17.519  0.00  0.00    +0.015 C 
ATOM      9  C   UNL     1      35.602 -21.643 -18.444  0.00  0.00    +0.042 C 
BRANCH   9  10
ATOM     10  N   UNL     1      35.712 -20.717 -19.503  0.00  0.00    -0.357 N 
ATOM     11  H   UNL     1      35.677 -21.029 -20.436  0.00  0.00    +0.142 HD
ATOM     12  H   UNL     1      35.825 -19.758 -19.309  0.00  0.00    +0.142 HD
ENDBRANCH   9  10
ENDBRANCH   1   4
BRANCH   1  14
ATOM     13  O   UNL     1      35.172 -22.869 -12.479  0.00  0.00    -0.273 OA
ATOM     14  N   UNL     1      36.505 -24.099 -13.965  0.00  0.00    -0.103 N 
ATOM     15  C   UNL     1      36.290 -23.266 -12.804  0.00  0.00    +0.251 C 
ATOM     16  C   UNL     1      37.494 -22.905 -11.972  0.00  0.00    +0.097 C 
BRANCH  14  19
ATOM     17  O   UNL     1      38.685 -23.932 -15.149  0.00  0.00    -0.337 OA
ATOM     18  N   UNL     1      39.904 -24.599 -15.172  0.00  0.00    -0.080 NA
ATOM     19  C   UNL     1      37.890 -24.540 -14.256  0.00  0.00    +0.250 A 
ATOM     20  C   UNL     1      38.508 -25.590 -13.669  0.00  0.00    +0.048 A 
ATOM     21  C   UNL     1      39.774 -25.586 -14.280  0.00  0.00    +0.098 A 
ATOM     22  C   UNL     1      37.998 -26.518 -12.645  0.00  0.00    +0.037 C 
ATOM     23  C   UNL     1      40.899 -26.506 -14.046  0.00  0.00    +0.055 C 
ENDBRANCH  14  19
ENDBRANCH   1  14
TORSDOF 4
ENDMDL
MODEL 4
REMARK VINA RESULT:      -6.9      6.418     10.210
REMARK  Name = 6662
REMARK  4 active torsions:
REMARK  status: ('A' for Active; 'I' for Inactive)
REMARK    1  A    between atoms: S_1  and  C_4
REMARK    2  A    between atoms: S_1  and  N_14
REMARK    3  A    between atoms: C_9  and  N_10
REMARK    4  A    between atoms: N_14  and  C_19
REMARK                            x       y       z     vdW  Elec       q    Type
REMARK                         _______ _______ _______ _____ _____    ______ ____
ROOT
ATOM      1  S   UNL     1      32.106 -10.193 -22.523  0.00  0.00    +0.085 S 
ATOM      2  O   UNL     1      32.622 -10.288 -21.162  0.00  0.00    -0.149 OA
ATOM      3  O   UNL     1      30.975 -11.021 -22.922  0.00  0.00    -0.149 OA
ENDROOT
BRANCH   1   4
ATOM      4  C   UNL     1      31.701  -8.516 -22.787  0.00  0.00    +0.126 C 
ATOM      5  C   UNL     1      31.803  -7.600 -21.740  0.00  0.00    +0.021 C 
ATOM      6  C   UNL     1      31.273  -8.091 -24.045  0.00  0.00    +0.021 C 
ATOM      7  C   UNL     1      31.478  -6.261 -21.950  0.00  0.00    +0.015 C 
ATOM      8  C   UNL     1      30.947  -6.752 -24.255  0.00  0.00    +0.015 C 
ATOM      9  C   UNL     1      31.050  -5.836 -23.208  0.00  0.00    +0.042 C 
BRANCH   9  10
ATOM     10  N   UNL     1      30.723  -4.481 -23.422  0.00  0.00    -0.357 N 
ATOM     11  H   UNL     1      31.429  -3.833 -23.647  0.00  0.00    +0.142 HD
ATOM     12  H   UNL     1      29.788  -4.182 -23.343  0.00  0.00    +0.142 HD
ENDBRANCH   9  10
ENDBRANCH   1   4
BRANCH   1  14
ATOM     13  O   UNL     1      34.589  -8.484 -23.234  0.00  0.00    -0.273 OA
ATOM     14  N   UNL     1      33.382 -10.448 -23.663  0.00  0.00    -0.103 N 
ATOM     15  C   UNL     1      34.476  -9.528 -23.874  0.00  0.00    +0.251 C 
ATOM     16  C   UNL     1      35.509  -9.899 -24.908  0.00  0.00    +0.097 C 
BRANCH  14  19
ATOM     17  O   UNL     1      33.218 -11.694 -25.807  0.00  0.00    -0.337 OA
ATOM     18  N   UNL     1      33.228 -13.014 -26.240  0.00  0.00    -0.080 NA
ATOM     19  C   UNL     1      33.352 -11.689 -24.472  0.00  0.00    +0.250 A 
ATOM     20  C   UNL     1      33.454 -12.942 -23.974  0.00  0.00    +0.048 A 
ATOM     21  C   UNL     1      33.369 -13.741 -25.127  0.00  0.00    +0.098 A 
ATOM     22  C   UNL     1      33.612 -13.379 -22.577  0.00  0.00    +0.037 C 
ATOM     23  C   UNL     1      33.419 -15.210 -25.220  0.00  0.00    +0.055 C 
ENDBRANCH  14  19
ENDBRANCH   1  14
TORSDOF 4
ENDMDL
MODEL 5
REMARK VINA RESULT:      -6.9      1.593      5.662
REMARK  Name = 6662
REMARK  4 active torsions:
REMARK  status: ('A' for Active; 'I' for Inactive)
REMARK    1  A    between atoms: S_1  and  C_4
REMARK    2  A    between atoms: S_1  and  N_14
REMARK    3  A    between atoms: C_9  and  N_10
REMARK    4  A    between atoms: N_14  and  C_19
REMARK                            x       y       z     vdW  Elec       q    Type
REMARK                         _______ _______ _______ _____ _____    ______ ____
ROOT
ATOM      1  S   UNL     1      35.430 -16.989 -21.728  0.00  0.00    +0.085 S 
ATOM      2  O   UNL     1      36.603 -16.646 -22.524  0.00  0.00    -0.149 OA
ATOM      3  O   UNL     1      35.579 -17.241 -20.300  0.00  0.00    -0.149 OA
ENDROOT
BRANCH   1   4
ATOM      4  C   UNL     1      34.277 -15.698 -21.958  0.00  0.00    +0.126 C 
ATOM      5  C   UNL     1      34.401 -14.839 -23.050  0.00  0.00    +0.021 C 
ATOM      6  C   UNL     1      33.234 -15.523 -21.048  0.00  0.00    +0.021 C 
ATOM      7  C   UNL     1      33.482 -13.806 -23.234  0.00  0.00    +0.015 C 
ATOM      8  C   UNL     1      32.315 -14.491 -21.231  0.00  0.00    +0.015 C 
ATOM      9  C   UNL     1      32.438 -13.633 -22.324  0.00  0.00    +0.042 C 
BRANCH   9  10
ATOM     10  N   UNL     1      31.507 -12.590 -22.510  0.00  0.00    -0.357 N 
ATOM     11  H   UNL     1      31.033 -12.209 -21.736  0.00  0.00    +0.142 HD
ATOM     12  H   UNL     1      31.329 -12.244 -23.415  0.00  0.00    +0.142 HD
ENDBRANCH   9  10
ENDBRANCH   1   4
BRANCH   1  14
ATOM     13  O   UNL     1      35.019 -17.834 -24.679  0.00  0.00    -0.273 OA
ATOM     14  N   UNL     1      34.611 -18.343 -22.427  0.00  0.00    -0.103 N 
ATOM     15  C   UNL     1      34.508 -18.582 -23.848  0.00  0.00    +0.251 C 
ATOM     16  C   UNL     1      33.758 -19.812 -24.295  0.00  0.00    +0.097 C 
BRANCH  14  19
ATOM     17  O   UNL     1      32.654 -19.372 -21.292  0.00  0.00    -0.337 OA
ATOM     18  N   UNL     1      32.404 -20.394 -20.384  0.00  0.00    -0.080 NA
ATOM     19  C   UNL     1      33.977 -19.319 -21.510  0.00  0.00    +0.250 A 
ATOM     20  C   UNL     1      34.641 -20.255 -20.795  0.00  0.00    +0.048 A 
ATOM     21  C   UNL     1      33.606 -20.907 -20.102  0.00  0.00    +0.098 A 
ATOM     22  C   UNL     1      36.085 -20.536 -20.742  0.00  0.00    +0.037 C 
ATOM     23  C   UNL     1      33.713 -22.028 -19.154  0.00  0.00    +0.055 C 
ENDBRANCH  14  19
ENDBRANCH   1  14
TORSDOF 4
ENDMDL
MODEL 6
REMARK VINA RESULT:      -6.8      7.038     10.657
REMARK  Name = 6662
REMARK  4 active torsions:
REMARK  status: ('A' for Active; 'I' for Inactive)
REMARK    1  A    between atoms: S_1  and  C_4
REMARK    2  A    between atoms: S_1  and  N_14
REMARK    3  A    between atoms: C_9  and  N_10
REMARK    4  A    between atoms: N_14  and  C_19
REMARK                            x       y       z     vdW  Elec       q    Type
REMARK                         _______ _______ _______ _____ _____    ______ ____
ROOT
ATOM      1  S   UNL     1      37.486 -23.054 -15.309  0.00  0.00    +0.085 S 
ATOM      2  O   UNL     1      38.711 -23.216 -16.083  0.00  0.00    -0.149 OA
ATOM      3  O   UNL     1      37.406 -22.004 -14.301  0.00  0.00    -0.149 OA
ENDROOT
BRANCH   1   4
ATOM      4  C   UNL     1      36.194 -22.833 -16.461  0.00  0.00    +0.126 C 
ATOM      5  C   UNL     1      34.929 -23.363 -16.202  0.00  0.00    +0.021 C 
ATOM      6  C   UNL     1      36.425 -22.128 -17.643  0.00  0.00    +0.021 C 
ATOM      7  C   UNL     1      33.897 -23.187 -17.123  0.00  0.00    +0.015 C 
ATOM      8  C   UNL     1      35.393 -21.952 -18.563  0.00  0.00    +0.015 C 
ATOM      9  C   UNL     1      34.129 -22.481 -18.304  0.00  0.00    +0.042 C 
BRANCH   9  10
ATOM     10  N   UNL     1      33.085 -22.302 -19.235  0.00  0.00    -0.357 N 
ATOM     11  H   UNL     1      32.882 -21.403 -19.581  0.00  0.00    +0.142 HD
ATOM     12  H   UNL     1      32.557 -23.076 -19.538  0.00  0.00    +0.142 HD
ENDBRANCH   9  10
ENDBRANCH   1   4
BRANCH   1  14
ATOM     13  O   UNL     1      38.117 -25.988 -16.074  0.00  0.00    -0.273 OA
ATOM     14  N   UNL     1      37.055 -24.550 -14.555  0.00  0.00    -0.103 N 
ATOM     15  C   UNL     1      37.434 -25.851 -15.060  0.00  0.00    +0.251 C 
ATOM     16  C   UNL     1      36.977 -27.060 -14.283  0.00  0.00    +0.097 C 
BRANCH  14  19
ATOM     17  O   UNL     1      34.909 -24.562 -13.302  0.00  0.00    -0.337 OA
ATOM     18  N   UNL     1      34.481 -24.481 -11.983  0.00  0.00    -0.080 NA
ATOM     19  C   UNL     1      36.249 -24.496 -13.313  0.00  0.00    +0.250 A 
ATOM     20  C   UNL     1      36.755 -24.373 -12.066  0.00  0.00    +0.048 A 
ATOM     21  C   UNL     1      35.601 -24.368 -11.262  0.00  0.00    +0.098 A 
ATOM     22  C   UNL     1      38.160 -24.268 -11.636  0.00  0.00    +0.037 C 
ATOM     23  C   UNL     1      35.515 -24.257  -9.797  0.00  0.00    +0.055 C 
ENDBRANCH  14  19
ENDBRANCH   1  14
TORSDOF 4
ENDMDL
MODEL 7
REMARK VINA RESULT:      -6.8      8.224     10.558
REMARK  Name = 6662
REMARK  4 active torsions:
REMARK  status: ('A' for Active; 'I' for Inactive)
REMARK    1  A    between atoms: S_1  and  C_4
REMARK    2  A    between atoms: S_1  and  N_14
REMARK    3  A    between atoms: C_9  and  N_10
REMARK    4  A    between atoms: N_14  and  C_19
REMARK                            x       y       z     vdW  Elec       q    Type
REMARK                         _______ _______ _______ _____ _____    ______ ____
ROOT
ATOM      1  S   UNL     1      32.346 -24.250 -13.947  0.00  0.00    +0.085 S 
ATOM      2  O   UNL     1      32.484 -23.239 -12.905  0.00  0.00    -0.149 OA
ATOM      3  O   UNL     1      32.322 -25.660 -13.581  0.00  0.00    -0.149 OA
ENDROOT
BRANCH   1   4
ATOM      4  C   UNL     1      30.884 -23.867 -14.822  0.00  0.00    +0.126 C 
ATOM      5  C   UNL     1      30.269 -22.628 -14.644  0.00  0.00    +0.021 C 
ATOM      6  C   UNL     1      30.331 -24.801 -15.698  0.00  0.00    +0.021 C 
ATOM      7  C   UNL     1      29.101 -22.322 -15.341  0.00  0.00    +0.015 C 
ATOM      8  C   UNL     1      29.163 -24.495 -16.395  0.00  0.00    +0.015 C 
ATOM      9  C   UNL     1      28.548 -23.256 -16.218  0.00  0.00    +0.042 C 
BRANCH   9  10
ATOM     10  N   UNL     1      27.367 -22.947 -16.925  0.00  0.00    -0.357 N 
ATOM     11  H   UNL     1      27.414 -22.424 -17.757  0.00  0.00    +0.142 HD
ATOM     12  H   UNL     1      26.495 -23.253 -16.585  0.00  0.00    +0.142 HD
ENDBRANCH   9  10
ENDBRANCH   1   4
BRANCH   1  14
ATOM     13  O   UNL     1      32.414 -22.493 -16.496  0.00  0.00    -0.273 OA
ATOM     14  N   UNL     1      33.566 -24.032 -15.154  0.00  0.00    -0.103 N 
ATOM     15  C   UNL     1      33.426 -23.164 -16.301  0.00  0.00    +0.251 C 
ATOM     16  C   UNL     1      34.585 -23.087 -17.261  0.00  0.00    +0.097 C 
BRANCH  14  19
ATOM     17  O   UNL     1      35.144 -25.863 -15.731  0.00  0.00    -0.337 OA
ATOM     18  N   UNL     1      36.396 -26.315 -15.333  0.00  0.00    -0.080 NA
ATOM     19  C   UNL     1      34.835 -24.782 -15.001  0.00  0.00    +0.250 A 
ATOM     20  C   UNL     1      35.816 -24.473 -14.123  0.00  0.00    +0.048 A 
ATOM     21  C   UNL     1      36.777 -25.469 -14.371  0.00  0.00    +0.098 A 
ATOM     22  C   UNL     1      35.879 -23.375 -13.144  0.00  0.00    +0.037 C 
ATOM     23  C   UNL     1      38.081 -25.656 -13.713  0.00  0.00    +0.055 C 
ENDBRANCH  14  19
ENDBRANCH   1  14
TORSDOF 4
ENDMDL
MODEL 8
REMARK VINA RESULT:      -6.8      9.205     11.298
REMARK  Name = 6662
REMARK  4 active torsions:
REMARK  status: ('A' for Active; 'I' for Inactive)
REMARK    1  A    between atoms: S_1  and  C_4
REMARK    2  A    between atoms: S_1  and  N_14
REMARK    3  A    between atoms: C_9  and  N_10
REMARK    4  A    between atoms: N_14  and  C_19
REMARK                            x       y       z     vdW  Elec       q    Type
REMARK                         _______ _______ _______ _____ _____    ______ ____
ROOT
ATOM      1  S   UNL     1      34.636 -23.594 -15.200  0.00  0.00    +0.085 S 
ATOM      2  O   UNL     1      35.004 -24.345 -16.394  0.00  0.00    -0.149 OA
ATOM      3  O   UNL     1      34.817 -22.148 -15.176  0.00  0.00    -0.149 OA
ENDROOT
BRANCH   1   4
ATOM      4  C   UNL     1      32.960 -23.960 -14.876  0.00  0.00    +0.126 C 
ATOM      5  C   UNL     1      31.958 -23.104 -15.334  0.00  0.00    +0.021 C 
ATOM      6  C   UNL     1      32.623 -25.108 -14.159  0.00  0.00    +0.021 C 
ATOM      7  C   UNL     1      30.620 -23.395 -15.075  0.00  0.00    +0.015 C 
ATOM      8  C   UNL     1      31.284 -25.399 -13.900  0.00  0.00    +0.015 C 
ATOM      9  C   UNL     1      30.283 -24.544 -14.358  0.00  0.00    +0.042 C 
BRANCH   9  10
ATOM     10  N   UNL     1      28.928 -24.840 -14.097  0.00  0.00    -0.357 N 
ATOM     11  H   UNL     1      28.356 -24.176 -13.650  0.00  0.00    +0.142 HD
ATOM     12  H   UNL     1      28.556 -25.713 -14.362  0.00  0.00    +0.142 HD
ENDBRANCH   9  10
ENDBRANCH   1   4
BRANCH   1  14
ATOM     13  O   UNL     1      33.994 -23.384 -12.177  0.00  0.00    -0.273 OA
ATOM     14  N   UNL     1      35.432 -24.253 -13.813  0.00  0.00    -0.103 N 
ATOM     15  C   UNL     1      34.994 -24.045 -12.451  0.00  0.00    +0.251 C 
ATOM     16  C   UNL     1      35.800 -24.691 -11.353  0.00  0.00    +0.097 C 
BRANCH  14  19
ATOM     17  O   UNL     1      36.710 -26.382 -13.701  0.00  0.00    -0.337 OA
ATOM     18  N   UNL     1      37.973 -26.850 -14.043  0.00  0.00    -0.080 NA
ATOM     19  C   UNL     1      36.639 -25.085 -14.034  0.00  0.00    +0.250 A 
ATOM     20  C   UNL     1      37.791 -24.646 -14.588  0.00  0.00    +0.048 A 
ATOM     21  C   UNL     1      38.601 -25.795 -14.571  0.00  0.00    +0.098 A 
ATOM     22  C   UNL     1      38.133 -23.303 -15.088  0.00  0.00    +0.037 C 
ATOM     23  C   UNL     1      39.986 -25.938 -15.048  0.00  0.00    +0.055 C 
ENDBRANCH  14  19
ENDBRANCH   1  14
TORSDOF 4
ENDMDL
MODEL 9
REMARK VINA RESULT:      -6.7      2.007      6.263
REMARK  Name = 6662
REMARK  4 active torsions:
REMARK  status: ('A' for Active; 'I' for Inactive)
REMARK    1  A    between atoms: S_1  and  C_4
REMARK    2  A    between atoms: S_1  and  N_14
REMARK    3  A    between atoms: C_9  and  N_10
REMARK    4  A    between atoms: N_14  and  C_19
REMARK                            x       y       z     vdW  Elec       q    Type
REMARK                         _______ _______ _______ _____ _____    ______ ____
ROOT
ATOM      1  S   UNL     1      33.619 -15.959 -20.992  0.00  0.00    +0.085 S 
ATOM      2  O   UNL     1      34.576 -15.632 -19.942  0.00  0.00    -0.149 OA
ATOM      3  O   UNL     1      32.285 -16.422 -20.630  0.00  0.00    -0.149 OA
ENDROOT
BRANCH   1   4
ATOM      4  C   UNL     1      33.472 -14.536 -21.993  0.00  0.00    +0.126 C 
ATOM      5  C   UNL     1      34.536 -14.142 -22.805  0.00  0.00    +0.021 C 
ATOM      6  C   UNL     1      32.292 -13.792 -21.979  0.00  0.00    +0.021 C 
ATOM      7  C   UNL     1      34.419 -13.005 -23.604  0.00  0.00    +0.015 C 
ATOM      8  C   UNL     1      32.176 -12.655 -22.778  0.00  0.00    +0.015 C 
ATOM      9  C   UNL     1      33.239 -12.262 -23.591  0.00  0.00    +0.042 C 
BRANCH   9  10
ATOM     10  N   UNL     1      33.120 -11.113 -24.400  0.00  0.00    -0.357 N 
ATOM     11  H   UNL     1      33.911 -10.749 -24.859  0.00  0.00    +0.142 HD
ATOM     12  H   UNL     1      32.245 -10.673 -24.505  0.00  0.00    +0.142 HD
ENDBRANCH   9  10
ENDBRANCH   1   4
BRANCH   1  14
ATOM     13  O   UNL     1      33.517 -16.162 -24.081  0.00  0.00    -0.273 OA
ATOM     14  N   UNL     1      34.304 -17.110 -22.085  0.00  0.00    -0.103 N 
ATOM     15  C   UNL     1      34.148 -17.057 -23.521  0.00  0.00    +0.251 C 
ATOM     16  C   UNL     1      34.812 -18.140 -24.334  0.00  0.00    +0.097 C 
BRANCH  14  19
ATOM     17  O   UNL     1      36.443 -18.203 -21.446  0.00  0.00    -0.337 OA
ATOM     18  N   UNL     1      36.863 -19.391 -20.861  0.00  0.00    -0.080 NA
ATOM     19  C   UNL     1      35.104 -18.220 -21.514  0.00  0.00    +0.250 A 
ATOM     20  C   UNL     1      34.590 -19.362 -21.004  0.00  0.00    +0.048 A 
ATOM     21  C   UNL     1      35.739 -20.067 -20.606  0.00  0.00    +0.098 A 
ATOM     22  C   UNL     1      33.182 -19.780 -20.887  0.00  0.00    +0.037 C 
ATOM     23  C   UNL     1      35.816 -21.395 -19.975  0.00  0.00    +0.055 C 
ENDBRANCH  14  19
ENDBRANCH   1  14
TORSDOF 4
ENDMDL
