MODEL 1
REMARK VINA RESULT:      -6.1      0.000      0.000
REMARK  Name = 447315
REMARK  7 active torsions:
REMARK  status: ('A' for Active; 'I' for Inactive)
REMARK    1  A    between atoms: C_1  and  O_2
REMARK    2  A    between atoms: C_1  and  C_5
REMARK    3  A    between atoms: C_1  and  C_8
REMARK    4  A    between atoms: C_5  and  O_6
REMARK    5  A    between atoms: C_8  and  O_9
REMARK    6  A    between atoms: C_8  and  C_12
REMARK    7  A    between atoms: C_12  and  O_13
REMARK                            x       y       z     vdW  Elec       q    Type
REMARK                         _______ _______ _______ _____ _____    ______ ____
ROOT
ATOM      1  C   UNL     1      37.959 -25.719 -13.941  0.00  0.00    +0.248 C 
ENDROOT
BRANCH   1   2
ATOM      2  O   UNL     1      38.023 -27.058 -14.400  0.00  0.00    -0.372 OA
ATOM      3  H   UNL     1      38.580 -27.102 -15.194  0.00  0.00    +0.211 HD
ENDBRANCH   1   2
BRANCH   1   5
ATOM      4  O   UNL     1      38.137 -24.805 -11.705  0.00  0.00    -0.247 OA
ATOM      5  C   UNL     1      37.665 -25.656 -12.450  0.00  0.00    +0.344 C 
BRANCH   5   6
ATOM      6  O   UNL     1      36.855 -26.651 -12.014  0.00  0.00    -0.478 OA
ATOM      7  H   UNL     1      36.930 -27.511 -12.380  0.00  0.00    +0.295 HD
ENDBRANCH   5   6
ENDBRANCH   1   5
BRANCH   1   8
ATOM      8  C   UNL     1      39.260 -25.002 -14.306  0.00  0.00    +0.248 C 
BRANCH   8   9
ATOM      9  O   UNL     1      38.994 -24.121 -15.390  0.00  0.00    -0.372 OA
ATOM     10  H   UNL     1      38.041 -23.951 -15.444  0.00  0.00    +0.211 HD
ENDBRANCH   8   9
BRANCH   8  12
ATOM     11  O   UNL     1      41.091 -26.569 -13.961  0.00  0.00    -0.247 OA
ATOM     12  C   UNL     1      40.377 -25.939 -14.731  0.00  0.00    +0.344 C 
BRANCH  12  13
ATOM     13  O   UNL     1      40.523 -25.988 -16.079  0.00  0.00    -0.478 OA
ATOM     14  H   UNL     1      40.878 -26.754 -16.485  0.00  0.00    +0.295 HD
ENDBRANCH  12  13
ENDBRANCH   8  12
ENDBRANCH   1   8
TORSDOF 7
ENDMDL
MODEL 2
REMARK VINA RESULT:      -6.1      1.474      2.389
REMARK  Name = 447315
REMARK  7 active torsions:
REMARK  status: ('A' for Active; 'I' for Inactive)
REMARK    1  A    between atoms: C_1  and  O_2
REMARK    2  A    between atoms: C_1  and  C_5
REMARK    3  A    between atoms: C_1  and  C_8
REMARK    4  A    between atoms: C_5  and  O_6
REMARK    5  A    between atoms: C_8  and  O_9
REMARK    6  A    between atoms: C_8  and  C_12
REMARK    7  A    between atoms: C_12  and  O_13
REMARK                            x       y       z     vdW  Elec       q    Type
REMARK                         _______ _______ _______ _____ _____    ______ ____
ROOT
ATOM      1  C   UNL     1      37.648 -26.655 -14.267  0.00  0.00    +0.248 C 
ENDROOT
BRANCH   1   2
ATOM      2  O   UNL     1      37.004 -26.624 -13.005  0.00  0.00    -0.372 OA
ATOM      3  H   UNL     1      36.479 -25.812 -12.929  0.00  0.00    +0.211 HD
ENDBRANCH   1   2
BRANCH   1   5
ATOM      4  O   UNL     1      35.675 -25.806 -15.387  0.00  0.00    -0.247 OA
ATOM      5  C   UNL     1      36.644 -26.557 -15.405  0.00  0.00    +0.344 C 
BRANCH   5   6
ATOM      6  O   UNL     1      36.903 -27.402 -16.432  0.00  0.00    -0.478 OA
ATOM      7  H   UNL     1      36.371 -27.377 -17.205  0.00  0.00    +0.295 HD
ENDBRANCH   5   6
ENDBRANCH   1   5
BRANCH   1   8
ATOM      8  C   UNL     1      38.696 -25.543 -14.322  0.00  0.00    +0.248 C 
BRANCH   8   9
ATOM      9  O   UNL     1      38.292 -24.597 -15.305  0.00  0.00    -0.372 OA
ATOM     10  H   UNL     1      38.942 -23.878 -15.348  0.00  0.00    +0.211 HD
ENDBRANCH   8   9
BRANCH   8  12
ATOM     11  O   UNL     1      40.907 -26.468 -13.892  0.00  0.00    -0.247 OA
ATOM     12  C   UNL     1      40.087 -26.030 -14.690  0.00  0.00    +0.344 C 
BRANCH  12  13
ATOM     13  O   UNL     1      40.343 -25.904 -16.016  0.00  0.00    -0.478 OA
ATOM     14  H   UNL     1      40.670 -26.636 -16.502  0.00  0.00    +0.295 HD
ENDBRANCH  12  13
ENDBRANCH   8  12
ENDBRANCH   1   8
TORSDOF 7
ENDMDL
MODEL 3
REMARK VINA RESULT:      -6.0      1.266      1.916
REMARK  Name = 447315
REMARK  7 active torsions:
REMARK  status: ('A' for Active; 'I' for Inactive)
REMARK    1  A    between atoms: C_1  and  O_2
REMARK    2  A    between atoms: C_1  and  C_5
REMARK    3  A    between atoms: C_1  and  C_8
REMARK    4  A    between atoms: C_5  and  O_6
REMARK    5  A    between atoms: C_8  and  O_9
REMARK    6  A    between atoms: C_8  and  C_12
REMARK    7  A    between atoms: C_12  and  O_13
REMARK                            x       y       z     vdW  Elec       q    Type
REMARK                         _______ _______ _______ _____ _____    ______ ____
ROOT
ATOM      1  C   UNL     1      38.187 -24.966 -13.336  0.00  0.00    +0.248 C 
ENDROOT
BRANCH   1   2
ATOM      2  O   UNL     1      37.949 -23.580 -13.511  0.00  0.00    -0.372 OA
ATOM      3  H   UNL     1      37.014 -23.438 -13.731  0.00  0.00    +0.211 HD
ENDBRANCH   1   2
BRANCH   1   5
ATOM      4  O   UNL     1      37.002 -26.415 -11.798  0.00  0.00    -0.247 OA
ATOM      5  C   UNL     1      36.964 -25.673 -12.773  0.00  0.00    +0.344 C 
BRANCH   5   6
ATOM      6  O   UNL     1      35.827 -25.432 -13.471  0.00  0.00    -0.478 OA
ATOM      7  H   UNL     1      35.620 -24.558 -13.740  0.00  0.00    +0.295 HD
ENDBRANCH   5   6
ENDBRANCH   1   5
BRANCH   1   8
ATOM      8  C   UNL     1      38.643 -25.568 -14.666  0.00  0.00    +0.248 C 
BRANCH   8   9
ATOM      9  O   UNL     1      38.375 -26.965 -14.638  0.00  0.00    -0.372 OA
ATOM     10  H   UNL     1      37.445 -27.111 -14.404  0.00  0.00    +0.211 HD
ENDBRANCH   8   9
BRANCH   8  12
ATOM     11  O   UNL     1      40.896 -24.751 -14.234  0.00  0.00    -0.247 OA
ATOM     12  C   UNL     1      40.125 -25.385 -14.944  0.00  0.00    +0.344 C 
BRANCH  12  13
ATOM     13  O   UNL     1      40.511 -25.987 -16.098  0.00  0.00    -0.478 OA
ATOM     14  H   UNL     1      41.400 -26.263 -16.208  0.00  0.00    +0.295 HD
ENDBRANCH  12  13
ENDBRANCH   8  12
ENDBRANCH   1   8
TORSDOF 7
ENDMDL
MODEL 4
REMARK VINA RESULT:      -5.9      1.248      3.525
REMARK  Name = 447315
REMARK  7 active torsions:
REMARK  status: ('A' for Active; 'I' for Inactive)
REMARK    1  A    between atoms: C_1  and  O_2
REMARK    2  A    between atoms: C_1  and  C_5
REMARK    3  A    between atoms: C_1  and  C_8
REMARK    4  A    between atoms: C_5  and  O_6
REMARK    5  A    between atoms: C_8  and  O_9
REMARK    6  A    between atoms: C_8  and  C_12
REMARK    7  A    between atoms: C_12  and  O_13
REMARK                            x       y       z     vdW  Elec       q    Type
REMARK                         _______ _______ _______ _____ _____    ______ ____
ROOT
ATOM      1  C   UNL     1      39.040 -25.944 -13.922  0.00  0.00    +0.248 C 
ENDROOT
BRANCH   1   2
ATOM      2  O   UNL     1      38.390 -26.980 -14.637  0.00  0.00    -0.372 OA
ATOM      3  H   UNL     1      37.962 -26.610 -15.426  0.00  0.00    +0.211 HD
ENDBRANCH   1   2
BRANCH   1   5
ATOM      4  O   UNL     1      41.014 -24.576 -14.241  0.00  0.00    -0.247 OA
ATOM      5  C   UNL     1      40.215 -25.381 -14.706  0.00  0.00    +0.344 C 
BRANCH   5   6
ATOM      6  O   UNL     1      40.281 -25.830 -15.983  0.00  0.00    -0.478 OA
ATOM      7  H   UNL     1      39.493 -25.970 -16.472  0.00  0.00    +0.295 HD
ENDBRANCH   5   6
ENDBRANCH   1   5
BRANCH   1   8
ATOM      8  C   UNL     1      38.017 -24.867 -13.559  0.00  0.00    +0.248 C 
BRANCH   8   9
ATOM      9  O   UNL     1      38.235 -23.742 -14.402  0.00  0.00    -0.372 OA
ATOM     10  H   UNL     1      37.643 -23.020 -14.138  0.00  0.00    +0.211 HD
ENDBRANCH   8   9
BRANCH   8  12
ATOM     11  O   UNL     1      37.370 -24.757 -11.214  0.00  0.00    -0.247 OA
ATOM     12  C   UNL     1      38.112 -24.393 -12.118  0.00  0.00    +0.344 C 
BRANCH  12  13
ATOM     13  O   UNL     1      39.107 -23.488 -11.938  0.00  0.00    -0.478 OA
ATOM     14  H   UNL     1      39.119 -22.953 -11.170  0.00  0.00    +0.295 HD
ENDBRANCH  12  13
ENDBRANCH   8  12
ENDBRANCH   1   8
TORSDOF 7
ENDMDL
MODEL 5
REMARK VINA RESULT:      -5.8      1.904      3.117
REMARK  Name = 447315
REMARK  7 active torsions:
REMARK  status: ('A' for Active; 'I' for Inactive)
REMARK    1  A    between atoms: C_1  and  O_2
REMARK    2  A    between atoms: C_1  and  C_5
REMARK    3  A    between atoms: C_1  and  C_8
REMARK    4  A    between atoms: C_5  and  O_6
REMARK    5  A    between atoms: C_8  and  O_9
REMARK    6  A    between atoms: C_8  and  C_12
REMARK    7  A    between atoms: C_12  and  O_13
REMARK                            x       y       z     vdW  Elec       q    Type
REMARK                         _______ _______ _______ _____ _____    ______ ____
ROOT
ATOM      1  C   UNL     1      38.208 -24.821 -12.830  0.00  0.00    +0.248 C 
ENDROOT
BRANCH   1   2
ATOM      2  O   UNL     1      38.677 -24.288 -14.056  0.00  0.00    -0.372 OA
ATOM      3  H   UNL     1      38.514 -23.332 -14.078  0.00  0.00    +0.211 HD
ENDBRANCH   1   2
BRANCH   1   5
ATOM      4  O   UNL     1      38.238 -22.564 -11.951  0.00  0.00    -0.247 OA
ATOM      5  C   UNL     1      37.838 -23.717 -11.851  0.00  0.00    +0.344 C 
BRANCH   5   6
ATOM      6  O   UNL     1      37.045 -24.136 -10.834  0.00  0.00    -0.478 OA
ATOM      7  H   UNL     1      36.665 -23.511 -10.248  0.00  0.00    +0.295 HD
ENDBRANCH   5   6
ENDBRANCH   1   5
BRANCH   1   8
ATOM      8  C   UNL     1      37.037 -25.765 -13.108  0.00  0.00    +0.248 C 
BRANCH   8   9
ATOM      9  O   UNL     1      36.853 -26.594 -11.968  0.00  0.00    -0.372 OA
ATOM     10  H   UNL     1      35.906 -26.763 -11.840  0.00  0.00    +0.211 HD
ENDBRANCH   8   9
BRANCH   8  12
ATOM     11  O   UNL     1      38.334 -27.126 -14.655  0.00  0.00    -0.247 OA
ATOM     12  C   UNL     1      37.252 -26.668 -14.311  0.00  0.00    +0.344 C 
BRANCH  12  13
ATOM     13  O   UNL     1      36.101 -26.899 -14.992  0.00  0.00    -0.478 OA
ATOM     14  H   UNL     1      35.853 -27.777 -15.207  0.00  0.00    +0.295 HD
ENDBRANCH  12  13
ENDBRANCH   8  12
ENDBRANCH   1   8
TORSDOF 7
ENDMDL
MODEL 6
REMARK VINA RESULT:      -5.7      1.041      3.480
REMARK  Name = 447315
REMARK  7 active torsions:
REMARK  status: ('A' for Active; 'I' for Inactive)
REMARK    1  A    between atoms: C_1  and  O_2
REMARK    2  A    between atoms: C_1  and  C_5
REMARK    3  A    between atoms: C_1  and  C_8
REMARK    4  A    between atoms: C_5  and  O_6
REMARK    5  A    between atoms: C_8  and  O_9
REMARK    6  A    between atoms: C_8  and  C_12
REMARK    7  A    between atoms: C_12  and  O_13
REMARK                            x       y       z     vdW  Elec       q    Type
REMARK                         _______ _______ _______ _____ _____    ______ ____
ROOT
ATOM      1  C   UNL     1      38.651 -24.980 -14.839  0.00  0.00    +0.248 C 
ENDROOT
BRANCH   1   2
ATOM      2  O   UNL     1      38.663 -23.764 -15.566  0.00  0.00    -0.372 OA
ATOM      3  H   UNL     1      39.116 -23.080 -15.048  0.00  0.00    +0.211 HD
ENDBRANCH   1   2
BRANCH   1   5
ATOM      4  O   UNL     1      41.047 -24.799 -14.531  0.00  0.00    -0.247 OA
ATOM      5  C   UNL     1      40.059 -25.517 -14.633  0.00  0.00    +0.344 C 
BRANCH   5   6
ATOM      6  O   UNL     1      40.125 -26.870 -14.603  0.00  0.00    -0.478 OA
ATOM      7  H   UNL     1      40.959 -27.299 -14.625  0.00  0.00    +0.295 HD
ENDBRANCH   5   6
ENDBRANCH   1   5
BRANCH   1   8
ATOM      8  C   UNL     1      37.915 -24.765 -13.516  0.00  0.00    +0.248 C 
BRANCH   8   9
ATOM      9  O   UNL     1      38.847 -24.276 -12.560  0.00  0.00    -0.372 OA
ATOM     10  H   UNL     1      39.744 -24.546 -12.815  0.00  0.00    +0.211 HD
ENDBRANCH   8   9
BRANCH   8  12
ATOM     11  O   UNL     1      37.087 -26.236 -11.761  0.00  0.00    -0.247 OA
ATOM     12  C   UNL     1      37.290 -26.029 -12.951  0.00  0.00    +0.344 C 
BRANCH  12  13
ATOM     13  O   UNL     1      36.996 -26.934 -13.918  0.00  0.00    -0.478 OA
ATOM     14  H   UNL     1      36.320 -27.568 -13.777  0.00  0.00    +0.295 HD
ENDBRANCH  12  13
ENDBRANCH   8  12
ENDBRANCH   1   8
TORSDOF 7
ENDMDL
MODEL 7
REMARK VINA RESULT:      -5.7      1.368      3.977
REMARK  Name = 447315
REMARK  7 active torsions:
REMARK  status: ('A' for Active; 'I' for Inactive)
REMARK    1  A    between atoms: C_1  and  O_2
REMARK    2  A    between atoms: C_1  and  C_5
REMARK    3  A    between atoms: C_1  and  C_8
REMARK    4  A    between atoms: C_5  and  O_6
REMARK    5  A    between atoms: C_8  and  O_9
REMARK    6  A    between atoms: C_8  and  C_12
REMARK    7  A    between atoms: C_12  and  O_13
REMARK                            x       y       z     vdW  Elec       q    Type
REMARK                         _______ _______ _______ _____ _____    ______ ____
ROOT
ATOM      1  C   UNL     1      39.024 -25.236 -14.357  0.00  0.00    +0.248 C 
ENDROOT
BRANCH   1   2
ATOM      2  O   UNL     1      39.147 -24.652 -13.073  0.00  0.00    -0.372 OA
ATOM      3  H   UNL     1      38.277 -24.345 -12.772  0.00  0.00    +0.211 HD
ENDBRANCH   1   2
BRANCH   1   5
ATOM      4  O   UNL     1      41.073 -26.464 -13.956  0.00  0.00    -0.247 OA
ATOM      5  C   UNL     1      40.298 -25.963 -14.761  0.00  0.00    +0.344 C 
BRANCH   5   6
ATOM      6  O   UNL     1      40.514 -25.978 -16.099  0.00  0.00    -0.478 OA
ATOM      7  H   UNL     1      40.011 -25.421 -16.661  0.00  0.00    +0.295 HD
ENDBRANCH   5   6
ENDBRANCH   1   5
BRANCH   1   8
ATOM      8  C   UNL     1      37.802 -26.157 -14.375  0.00  0.00    +0.248 C 
BRANCH   8   9
ATOM      9  O   UNL     1      37.494 -26.463 -15.729  0.00  0.00    -0.372 OA
ATOM     10  H   UNL     1      37.554 -25.657 -16.265  0.00  0.00    +0.211 HD
ENDBRANCH   8   9
BRANCH   8  12
ATOM     11  O   UNL     1      35.774 -24.811 -14.325  0.00  0.00    -0.247 OA
ATOM     12  C   UNL     1      36.565 -25.543 -13.743  0.00  0.00    +0.344 C 
BRANCH  12  13
ATOM     13  O   UNL     1      36.436 -25.876 -12.434  0.00  0.00    -0.478 OA
ATOM     14  H   UNL     1      37.188 -26.143 -11.943  0.00  0.00    +0.295 HD
ENDBRANCH  12  13
ENDBRANCH   8  12
ENDBRANCH   1   8
TORSDOF 7
ENDMDL
MODEL 8
REMARK VINA RESULT:      -5.7      1.815      3.969
REMARK  Name = 447315
REMARK  7 active torsions:
REMARK  status: ('A' for Active; 'I' for Inactive)
REMARK    1  A    between atoms: C_1  and  O_2
REMARK    2  A    between atoms: C_1  and  C_5
REMARK    3  A    between atoms: C_1  and  C_8
REMARK    4  A    between atoms: C_5  and  O_6
REMARK    5  A    between atoms: C_8  and  O_9
REMARK    6  A    between atoms: C_8  and  C_12
REMARK    7  A    between atoms: C_12  and  O_13
REMARK                            x       y       z     vdW  Elec       q    Type
REMARK                         _______ _______ _______ _____ _____    ______ ____
ROOT
ATOM      1  C   UNL     1      37.546 -25.036 -13.991  0.00  0.00    +0.248 C 
ENDROOT
BRANCH   1   2
ATOM      2  O   UNL     1      38.380 -24.036 -14.550  0.00  0.00    -0.372 OA
ATOM      3  H   UNL     1      38.516 -24.216 -15.493  0.00  0.00    +0.211 HD
ENDBRANCH   1   2
BRANCH   1   5
ATOM      4  O   UNL     1      38.370 -27.219 -14.639  0.00  0.00    -0.247 OA
ATOM      5  C   UNL     1      37.571 -26.308 -14.823  0.00  0.00    +0.344 C 
BRANCH   5   6
ATOM      6  O   UNL     1      36.645 -26.330 -15.812  0.00  0.00    -0.478 OA
ATOM      7  H   UNL     1      36.200 -27.129 -16.020  0.00  0.00    +0.295 HD
ENDBRANCH   5   6
ENDBRANCH   1   5
BRANCH   1   8
ATOM      8  C   UNL     1      37.963 -25.284 -12.541  0.00  0.00    +0.248 C 
BRANCH   8   9
ATOM      9  O   UNL     1      37.112 -26.285 -11.997  0.00  0.00    -0.372 OA
ATOM     10  H   UNL     1      36.581 -26.679 -12.707  0.00  0.00    +0.211 HD
ENDBRANCH   8   9
BRANCH   8  12
ATOM     11  O   UNL     1      38.617 -23.094 -11.702  0.00  0.00    -0.247 OA
ATOM     12  C   UNL     1      37.859 -24.054 -11.655  0.00  0.00    +0.344 C 
BRANCH  12  13
ATOM     13  O   UNL     1      36.833 -24.142 -10.771  0.00  0.00    -0.478 OA
ATOM     14  H   UNL     1      36.377 -24.954 -10.661  0.00  0.00    +0.295 HD
ENDBRANCH  12  13
ENDBRANCH   8  12
ENDBRANCH   1   8
TORSDOF 7
ENDMDL
MODEL 9
REMARK VINA RESULT:      -5.7      1.783      4.433
REMARK  Name = 447315
REMARK  7 active torsions:
REMARK  status: ('A' for Active; 'I' for Inactive)
REMARK    1  A    between atoms: C_1  and  O_2
REMARK    2  A    between atoms: C_1  and  C_5
REMARK    3  A    between atoms: C_1  and  C_8
REMARK    4  A    between atoms: C_5  and  O_6
REMARK    5  A    between atoms: C_8  and  O_9
REMARK    6  A    between atoms: C_8  and  C_12
REMARK    7  A    between atoms: C_12  and  O_13
REMARK                            x       y       z     vdW  Elec       q    Type
REMARK                         _______ _______ _______ _____ _____    ______ ____
ROOT
ATOM      1  C   UNL     1      37.816 -25.581 -12.352  0.00  0.00    +0.248 C 
ENDROOT
BRANCH   1   2
ATOM      2  O   UNL     1      36.864 -26.566 -12.716  0.00  0.00    -0.372 OA
ATOM      3  H   UNL     1      37.050 -27.389 -12.236  0.00  0.00    +0.211 HD
ENDBRANCH   1   2
BRANCH   1   5
ATOM      4  O   UNL     1      39.804 -26.148 -13.614  0.00  0.00    -0.247 OA
ATOM      5  C   UNL     1      38.859 -25.386 -13.441  0.00  0.00    +0.344 C 
BRANCH   5   6
ATOM      6  O   UNL     1      38.665 -24.272 -14.187  0.00  0.00    -0.478 OA
ATOM      7  H   UNL     1      38.768 -24.308 -15.118  0.00  0.00    +0.295 HD
ENDBRANCH   5   6
ENDBRANCH   1   5
BRANCH   1   8
ATOM      8  C   UNL     1      37.085 -24.281 -12.011  0.00  0.00    +0.248 C 
BRANCH   8   9
ATOM      9  O   UNL     1      38.016 -23.392 -11.405  0.00  0.00    -0.372 OA
ATOM     10  H   UNL     1      38.622 -23.050 -12.080  0.00  0.00    +0.211 HD
ENDBRANCH   8   9
BRANCH   8  12
ATOM     11  O   UNL     1      35.975 -24.251  -9.844  0.00  0.00    -0.247 OA
ATOM     12  C   UNL     1      35.924 -24.465 -11.049  0.00  0.00    +0.344 C 
BRANCH  12  13
ATOM     13  O   UNL     1      34.809 -24.925 -11.670  0.00  0.00    -0.478 OA
ATOM     14  H   UNL     1      34.530 -25.810 -11.538  0.00  0.00    +0.295 HD
ENDBRANCH  12  13
ENDBRANCH   8  12
ENDBRANCH   1   8
TORSDOF 7
ENDMDL
