MODEL 1
REMARK VINA RESULT:     -11.4      0.000      0.000
REMARK  Name = 9910098
REMARK  9 active torsions:
REMARK  status: ('A' for Active; 'I' for Inactive)
REMARK    1  A    between atoms: N_1  and  C1*_12
REMARK    2  A    between atoms: C_9  and  O_25
REMARK    3  A    between atoms: C2*_11  and  O2*_15
REMARK    4  A    between atoms: C3*_13  and  O3*_17
REMARK    5  A    between atoms: C4*_14  and  C5*_19
REMARK    6  A    between atoms: C5*_19  and  O5*_20
REMARK    7  A    between atoms: O_25  and  C_26
REMARK    8  A    between atoms: C_26  and  C_27
REMARK    9  A    between atoms: C_27  and  C_29
REMARK                            x       y       z     vdW  Elec       q    Type
REMARK                         _______ _______ _______ _____ _____    ______ ____
ROOT
ATOM      1  N   UNL     1      34.751 -23.566 -15.024  0.00  0.00    -0.236 N 
ATOM      2  N   UNL     1      32.549 -23.576 -14.662  0.00  0.00    -0.240 NA
ATOM      3  N   UNL     1      34.783 -22.885 -17.357  0.00  0.00    -0.294 NA
ATOM      4  N   UNL     1      32.524 -22.536 -18.212  0.00  0.00    -0.295 NA
ATOM      5  C   UNL     1      34.169 -23.195 -16.205  0.00  0.00    +0.223 C 
ATOM      6  C   UNL     1      33.735 -23.784 -14.130  0.00  0.00    +0.224 C 
ATOM      7  C   UNL     1      32.805 -23.207 -15.959  0.00  0.00    +0.167 C 
ATOM      8  C   UNL     1      31.972 -22.861 -17.018  0.00  0.00    +0.214 C 
ATOM      9  C   UNL     1      33.876 -22.569 -18.305  0.00  0.00    +0.313 C 
ATOM     10  N   UNL     1      30.575 -22.848 -16.858  0.00  0.00    -0.331 N 
ATOM     11  H   UNL     1      29.996 -22.601 -17.614  0.00  0.00    +0.145 HD
ATOM     12  H   UNL     1      30.178 -23.085 -15.989  0.00  0.00    +0.145 HD
ENDROOT
BRANCH   1  15
ATOM     13  O4* UNL     1      36.682 -24.882 -15.444  0.00  0.00    -0.333 OA
ATOM     14  C2* UNL     1      36.519 -23.868 -13.275  0.00  0.00    +0.187 C 
ATOM     15  C1* UNL     1      36.183 -23.713 -14.759  0.00  0.00    +0.226 C 
ATOM     16  C3* UNL     1      36.798 -25.353 -13.146  0.00  0.00    +0.171 C 
ATOM     17  C4* UNL     1      37.405 -25.686 -14.498  0.00  0.00    +0.175 C 
BRANCH  14  18
ATOM     18  O2* UNL     1      37.681 -23.095 -12.974  0.00  0.00    -0.378 OA
ATOM     19  H2* UNL     1      38.443 -23.686 -12.868  0.00  0.00    +0.211 HD
ENDBRANCH  14  18
BRANCH  16  20
ATOM     20  O3* UNL     1      37.667 -25.672 -12.081  0.00  0.00    -0.379 OA
ATOM     21  H3* UNL     1      37.932 -24.858 -11.624  0.00  0.00    +0.211 HD
ENDBRANCH  16  20
BRANCH  17  22
ATOM     22  C5* UNL     1      37.284 -27.152 -14.871  0.00  0.00    +0.169 C 
BRANCH  22  23
ATOM     23  O5* UNL     1      36.813 -27.245 -16.204  0.00  0.00    -0.379 OA
ATOM     24  H5* UNL     1      37.189 -26.523 -16.732  0.00  0.00    +0.211 HD
ENDBRANCH  22  23
ENDBRANCH  17  22
ENDBRANCH   1  15
BRANCH   9  25
ATOM     25  O   UNL     1      34.394 -22.226 -19.535  0.00  0.00    -0.399 OA
BRANCH  25  26
ATOM     26  C   UNL     1      34.176 -20.890 -19.964  0.00  0.00    +0.227 C 
BRANCH  26  27
ATOM     27  C   UNL     1      35.461 -20.323 -20.558  0.00  0.00    +0.075 C 
BRANCH  27  29
ATOM     28 CL   UNL     1      34.413 -15.731 -24.278  0.00  0.00    -0.082 Cl
ATOM     29  C   UNL     1      35.199 -19.169 -21.494  0.00  0.00    -0.018 C 
ATOM     30  C   UNL     1      35.197 -17.876 -20.993  0.00  0.00    -0.003 C 
ATOM     31  C   UNL     1      34.964 -19.421 -22.836  0.00  0.00    -0.003 C 
ATOM     32  C   UNL     1      34.954 -16.809 -21.858  0.00  0.00    +0.011 C 
ATOM     33  C   UNL     1      34.720 -18.354 -23.701  0.00  0.00    +0.011 C 
ATOM     34  C   UNL     1      34.715 -17.048 -23.211  0.00  0.00    +0.058 C 
ENDBRANCH  27  29
ENDBRANCH  26  27
ENDBRANCH  25  26
ENDBRANCH   9  25
TORSDOF 9
ENDMDL
MODEL 2
REMARK VINA RESULT:     -11.2      0.804      1.354
REMARK  Name = 9910098
REMARK  9 active torsions:
REMARK  status: ('A' for Active; 'I' for Inactive)
REMARK    1  A    between atoms: N_1  and  C1*_12
REMARK    2  A    between atoms: C_9  and  O_25
REMARK    3  A    between atoms: C2*_11  and  O2*_15
REMARK    4  A    between atoms: C3*_13  and  O3*_17
REMARK    5  A    between atoms: C4*_14  and  C5*_19
REMARK    6  A    between atoms: C5*_19  and  O5*_20
REMARK    7  A    between atoms: O_25  and  C_26
REMARK    8  A    between atoms: C_26  and  C_27
REMARK    9  A    between atoms: C_27  and  C_29
REMARK                            x       y       z     vdW  Elec       q    Type
REMARK                         _______ _______ _______ _____ _____    ______ ____
ROOT
ATOM      1  N   UNL     1      34.762 -23.995 -15.425  0.00  0.00    -0.236 N 
ATOM      2  N   UNL     1      32.623 -23.862 -14.803  0.00  0.00    -0.240 NA
ATOM      3  N   UNL     1      34.599 -23.070 -17.666  0.00  0.00    -0.294 NA
ATOM      4  N   UNL     1      32.302 -22.445 -18.205  0.00  0.00    -0.295 NA
ATOM      5  C   UNL     1      34.090 -23.452 -16.485  0.00  0.00    +0.223 C 
ATOM      6  C   UNL     1      33.835 -24.224 -14.441  0.00  0.00    +0.224 C 
ATOM      7  C   UNL     1      32.767 -23.377 -16.079  0.00  0.00    +0.167 C 
ATOM      8  C   UNL     1      31.858 -22.851 -16.991  0.00  0.00    +0.214 C 
ATOM      9  C   UNL     1      33.626 -22.579 -18.463  0.00  0.00    +0.313 C 
ATOM     10  N   UNL     1      30.495 -22.740 -16.664  0.00  0.00    -0.331 N 
ATOM     11  H   UNL     1      29.862 -22.366 -17.317  0.00  0.00    +0.145 HD
ATOM     12  H   UNL     1      30.176 -23.036 -15.781  0.00  0.00    +0.145 HD
ENDROOT
BRANCH   1  15
ATOM     13  O4* UNL     1      36.393 -25.542 -14.664  0.00  0.00    -0.333 OA
ATOM     14  C2* UNL     1      37.000 -23.221 -14.607  0.00  0.00    +0.187 C 
ATOM     15  C1* UNL     1      36.194 -24.288 -15.350  0.00  0.00    +0.226 C 
ATOM     16  C3* UNL     1      37.252 -23.868 -13.259  0.00  0.00    +0.171 C 
ATOM     17  C4* UNL     1      37.361 -25.339 -13.622  0.00  0.00    +0.175 C 
BRANCH  14  18
ATOM     18  O2* UNL     1      38.222 -22.985 -15.304  0.00  0.00    -0.378 OA
ATOM     19  H2* UNL     1      38.967 -23.069 -14.688  0.00  0.00    +0.211 HD
ENDBRANCH  14  18
BRANCH  16  20
ATOM     20  O3* UNL     1      38.415 -23.392 -12.615  0.00  0.00    -0.379 OA
ATOM     21  H3* UNL     1      39.025 -23.030 -13.276  0.00  0.00    +0.211 HD
ENDBRANCH  16  20
BRANCH  17  22
ATOM     22  C5* UNL     1      37.070 -26.272 -12.460  0.00  0.00    +0.169 C 
BRANCH  22  23
ATOM     23  O5* UNL     1      36.347 -25.557 -11.474  0.00  0.00    -0.379 OA
ATOM     24  H5* UNL     1      35.405 -25.549 -11.705  0.00  0.00    +0.211 HD
ENDBRANCH  22  23
ENDBRANCH  17  22
ENDBRANCH   1  15
BRANCH   9  25
ATOM     25  O   UNL     1      34.035 -22.149 -19.707  0.00  0.00    -0.399 OA
BRANCH  25  26
ATOM     26  C   UNL     1      33.946 -20.754 -19.955  0.00  0.00    +0.227 C 
BRANCH  26  27
ATOM     27  C   UNL     1      35.271 -20.245 -20.513  0.00  0.00    +0.075 C 
BRANCH  27  29
ATOM     28 CL   UNL     1      34.509 -15.811 -24.486  0.00  0.00    -0.082 Cl
ATOM     29  C   UNL     1      35.082 -19.130 -21.513  0.00  0.00    -0.018 C 
ATOM     30  C   UNL     1      35.069 -17.817 -21.070  0.00  0.00    -0.003 C 
ATOM     31  C   UNL     1      34.922 -19.440 -22.854  0.00  0.00    -0.003 C 
ATOM     32  C   UNL     1      34.892 -16.786 -21.993  0.00  0.00    +0.011 C 
ATOM     33  C   UNL     1      34.744 -18.409 -23.778  0.00  0.00    +0.011 C 
ATOM     34  C   UNL     1      34.729 -17.082 -23.347  0.00  0.00    +0.058 C 
ENDBRANCH  27  29
ENDBRANCH  26  27
ENDBRANCH  25  26
ENDBRANCH   9  25
TORSDOF 9
ENDMDL
MODEL 3
REMARK VINA RESULT:     -11.1      1.162      1.615
REMARK  Name = 9910098
REMARK  9 active torsions:
REMARK  status: ('A' for Active; 'I' for Inactive)
REMARK    1  A    between atoms: N_1  and  C1*_12
REMARK    2  A    between atoms: C_9  and  O_25
REMARK    3  A    between atoms: C2*_11  and  O2*_15
REMARK    4  A    between atoms: C3*_13  and  O3*_17
REMARK    5  A    between atoms: C4*_14  and  C5*_19
REMARK    6  A    between atoms: C5*_19  and  O5*_20
REMARK    7  A    between atoms: O_25  and  C_26
REMARK    8  A    between atoms: C_26  and  C_27
REMARK    9  A    between atoms: C_27  and  C_29
REMARK                            x       y       z     vdW  Elec       q    Type
REMARK                         _______ _______ _______ _____ _____    ______ ____
ROOT
ATOM      1  N   UNL     1      34.359 -23.810 -14.480  0.00  0.00    -0.236 N 
ATOM      2  N   UNL     1      32.325 -24.089 -13.605  0.00  0.00    -0.240 NA
ATOM      3  N   UNL     1      33.751 -23.019 -16.696  0.00  0.00    -0.294 NA
ATOM      4  N   UNL     1      31.328 -22.890 -16.959  0.00  0.00    -0.295 NA
ATOM      5  C   UNL     1      33.472 -23.452 -15.457  0.00  0.00    +0.223 C 
ATOM      6  C   UNL     1      33.620 -24.186 -13.388  0.00  0.00    +0.224 C 
ATOM      7  C   UNL     1      32.218 -23.631 -14.894  0.00  0.00    +0.167 C 
ATOM      8  C   UNL     1      31.121 -23.332 -15.696  0.00  0.00    +0.214 C 
ATOM      9  C   UNL     1      32.612 -22.764 -17.374  0.00  0.00    +0.313 C 
ATOM     10  N   UNL     1      29.812 -23.487 -15.207  0.00  0.00    -0.331 N 
ATOM     11  H   UNL     1      29.043 -23.272 -15.783  0.00  0.00    +0.145 HD
ATOM     12  H   UNL     1      29.664 -23.809 -14.288  0.00  0.00    +0.145 HD
ENDROOT
BRANCH   1  15
ATOM     13  O4* UNL     1      36.254 -24.926 -15.374  0.00  0.00    -0.333 OA
ATOM     14  C2* UNL     1      36.523 -23.902 -13.221  0.00  0.00    +0.187 C 
ATOM     15  C1* UNL     1      35.819 -23.805 -14.575  0.00  0.00    +0.226 C 
ATOM     16  C3* UNL     1      36.978 -25.348 -13.180  0.00  0.00    +0.171 C 
ATOM     17  C4* UNL     1      37.265 -25.637 -14.643  0.00  0.00    +0.175 C 
BRANCH  14  18
ATOM     18  O2* UNL     1      37.637 -23.009 -13.204  0.00  0.00    -0.378 OA
ATOM     19  H2* UNL     1      37.947 -22.864 -14.112  0.00  0.00    +0.211 HD
ENDBRANCH  14  18
BRANCH  16  20
ATOM     20  O3* UNL     1      38.109 -25.560 -12.363  0.00  0.00    -0.379 OA
ATOM     21  H3* UNL     1      38.291 -24.759 -11.849  0.00  0.00    +0.211 HD
ENDBRANCH  16  20
BRANCH  17  22
ATOM     22  C5* UNL     1      37.209 -27.114 -14.990  0.00  0.00    +0.169 C 
BRANCH  22  23
ATOM     23  O5* UNL     1      36.724 -27.250 -16.314  0.00  0.00    -0.379 OA
ATOM     24  H5* UNL     1      36.906 -28.148 -16.635  0.00  0.00    +0.211 HD
ENDBRANCH  22  23
ENDBRANCH  17  22
ENDBRANCH   1  15
BRANCH   9  25
ATOM     25  O   UNL     1      32.777 -22.306 -18.663  0.00  0.00    -0.399 OA
BRANCH  25  26
ATOM     26  C   UNL     1      33.906 -22.798 -19.371  0.00  0.00    +0.227 C 
BRANCH  26  27
ATOM     27  C   UNL     1      35.121 -21.927 -19.072  0.00  0.00    +0.075 C 
BRANCH  27  29
ATOM     28 CL   UNL     1      35.467 -17.164 -22.708  0.00  0.00    -0.082 Cl
ATOM     29  C   UNL     1      35.208 -20.730 -19.988  0.00  0.00    -0.018 C 
ATOM     30  C   UNL     1      36.441 -20.143 -20.223  0.00  0.00    -0.003 C 
ATOM     31  C   UNL     1      34.053 -20.239 -20.576  0.00  0.00    -0.003 C 
ATOM     32  C   UNL     1      36.522 -19.037 -21.068  0.00  0.00    +0.011 C 
ATOM     33  C   UNL     1      34.133 -19.131 -21.420  0.00  0.00    +0.011 C 
ATOM     34  C   UNL     1      35.368 -18.531 -21.667  0.00  0.00    +0.058 C 
ENDBRANCH  27  29
ENDBRANCH  26  27
ENDBRANCH  25  26
ENDBRANCH   9  25
TORSDOF 9
ENDMDL
MODEL 4
REMARK VINA RESULT:     -10.7      1.324      2.004
REMARK  Name = 9910098
REMARK  9 active torsions:
REMARK  status: ('A' for Active; 'I' for Inactive)
REMARK    1  A    between atoms: N_1  and  C1*_12
REMARK    2  A    between atoms: C_9  and  O_25
REMARK    3  A    between atoms: C2*_11  and  O2*_15
REMARK    4  A    between atoms: C3*_13  and  O3*_17
REMARK    5  A    between atoms: C4*_14  and  C5*_19
REMARK    6  A    between atoms: C5*_19  and  O5*_20
REMARK    7  A    between atoms: O_25  and  C_26
REMARK    8  A    between atoms: C_26  and  C_27
REMARK    9  A    between atoms: C_27  and  C_29
REMARK                            x       y       z     vdW  Elec       q    Type
REMARK                         _______ _______ _______ _____ _____    ______ ____
ROOT
ATOM      1  N   UNL     1      33.858 -23.863 -14.125  0.00  0.00    -0.236 N 
ATOM      2  N   UNL     1      31.650 -23.545 -14.100  0.00  0.00    -0.240 NA
ATOM      3  N   UNL     1      34.305 -23.483 -16.484  0.00  0.00    -0.294 NA
ATOM      4  N   UNL     1      32.257 -22.954 -17.701  0.00  0.00    -0.295 NA
ATOM      5  C   UNL     1      33.501 -23.568 -15.412  0.00  0.00    +0.223 C 
ATOM      6  C   UNL     1      32.710 -23.837 -13.377  0.00  0.00    +0.224 C 
ATOM      7  C   UNL     1      32.130 -23.373 -15.375  0.00  0.00    +0.167 C 
ATOM      8  C   UNL     1      31.507 -23.056 -16.578  0.00  0.00    +0.214 C 
ATOM      9  C   UNL     1      33.589 -23.172 -17.585  0.00  0.00    +0.313 C 
ATOM     10  N   UNL     1      30.118 -22.844 -16.632  0.00  0.00    -0.331 N 
ATOM     11  H   UNL     1      29.689 -22.619 -17.489  0.00  0.00    +0.145 HD
ATOM     12  H   UNL     1      29.576 -22.919 -15.813  0.00  0.00    +0.145 HD
ENDROOT
BRANCH   1  15
ATOM     13  O4* UNL     1      36.110 -23.113 -14.046  0.00  0.00    -0.333 OA
ATOM     14  C2* UNL     1      35.767 -25.486 -14.146  0.00  0.00    +0.187 C 
ATOM     15  C1* UNL     1      35.204 -24.159 -13.634  0.00  0.00    +0.226 C 
ATOM     16  C3* UNL     1      36.741 -25.046 -15.222  0.00  0.00    +0.171 C 
ATOM     17  C4* UNL     1      37.248 -23.723 -14.675  0.00  0.00    +0.175 C 
BRANCH  14  18
ATOM     18  O2* UNL     1      36.440 -26.155 -13.081  0.00  0.00    -0.378 OA
ATOM     19  H2* UNL     1      36.956 -26.895 -13.438  0.00  0.00    +0.211 HD
ENDBRANCH  14  18
BRANCH  16  20
ATOM     20  O3* UNL     1      37.788 -25.966 -15.443  0.00  0.00    -0.379 OA
ATOM     21  H3* UNL     1      38.452 -25.875 -14.742  0.00  0.00    +0.211 HD
ENDBRANCH  16  20
BRANCH  17  22
ATOM     22  C5* UNL     1      37.801 -22.798 -15.745  0.00  0.00    +0.169 C 
BRANCH  22  23
ATOM     23  O5* UNL     1      37.006 -22.926 -16.910  0.00  0.00    -0.379 OA
ATOM     24  H5* UNL     1      37.139 -23.804 -17.300  0.00  0.00    +0.211 HD
ENDBRANCH  22  23
ENDBRANCH  17  22
ENDBRANCH   1  15
BRANCH   9  25
ATOM     25  O   UNL     1      34.314 -23.052 -18.752  0.00  0.00    -0.399 OA
BRANCH  25  26
ATOM     26  C   UNL     1      34.159 -21.838 -19.471  0.00  0.00    +0.227 C 
BRANCH  26  27
ATOM     27  C   UNL     1      35.529 -21.234 -19.763  0.00  0.00    +0.075 C 
BRANCH  27  29
ATOM     28 CL   UNL     1      35.189 -16.410 -23.318  0.00  0.00    -0.082 Cl
ATOM     29  C   UNL     1      35.443 -20.023 -20.658  0.00  0.00    -0.018 C 
ATOM     30  C   UNL     1      36.606 -19.359 -21.016  0.00  0.00    -0.003 C 
ATOM     31  C   UNL     1      34.203 -19.593 -21.105  0.00  0.00    -0.003 C 
ATOM     32  C   UNL     1      36.528 -18.238 -21.843  0.00  0.00    +0.011 C 
ATOM     33  C   UNL     1      34.124 -18.472 -21.931  0.00  0.00    +0.011 C 
ATOM     34  C   UNL     1      35.287 -17.795 -22.300  0.00  0.00    +0.058 C 
ENDBRANCH  27  29
ENDBRANCH  26  27
ENDBRANCH  25  26
ENDBRANCH   9  25
TORSDOF 9
ENDMDL
MODEL 5
REMARK VINA RESULT:     -10.4      4.237      9.548
REMARK  Name = 9910098
REMARK  9 active torsions:
REMARK  status: ('A' for Active; 'I' for Inactive)
REMARK    1  A    between atoms: N_1  and  C1*_12
REMARK    2  A    between atoms: C_9  and  O_25
REMARK    3  A    between atoms: C2*_11  and  O2*_15
REMARK    4  A    between atoms: C3*_13  and  O3*_17
REMARK    5  A    between atoms: C4*_14  and  C5*_19
REMARK    6  A    between atoms: C5*_19  and  O5*_20
REMARK    7  A    between atoms: O_25  and  C_26
REMARK    8  A    between atoms: C_26  and  C_27
REMARK    9  A    between atoms: C_27  and  C_29
REMARK                            x       y       z     vdW  Elec       q    Type
REMARK                         _______ _______ _______ _____ _____    ______ ____
ROOT
ATOM      1  N   UNL     1      34.492 -19.788 -20.733  0.00  0.00    -0.236 N 
ATOM      2  N   UNL     1      32.655 -20.960 -20.251  0.00  0.00    -0.240 NA
ATOM      3  N   UNL     1      36.066 -20.842 -19.210  0.00  0.00    -0.294 NA
ATOM      4  N   UNL     1      34.996 -22.610 -17.910  0.00  0.00    -0.295 NA
ATOM      5  C   UNL     1      34.855 -20.686 -19.766  0.00  0.00    +0.223 C 
ATOM      6  C   UNL     1      33.161 -19.994 -20.988  0.00  0.00    +0.224 C 
ATOM      7  C   UNL     1      33.703 -21.402 -19.483  0.00  0.00    +0.167 C 
ATOM      8  C   UNL     1      33.803 -22.396 -18.515  0.00  0.00    +0.214 C 
ATOM      9  C   UNL     1      36.038 -21.830 -18.290  0.00  0.00    +0.313 C 
ATOM     10  N   UNL     1      32.684 -23.170 -18.163  0.00  0.00    -0.331 N 
ATOM     11  H   UNL     1      32.767 -23.871 -17.477  0.00  0.00    +0.145 HD
ATOM     12  H   UNL     1      31.818 -23.012 -18.604  0.00  0.00    +0.145 HD
ENDROOT
BRANCH   1  15
ATOM     13  O4* UNL     1      35.385 -17.595 -20.562  0.00  0.00    -0.333 OA
ATOM     14  C2* UNL     1      34.888 -18.388 -22.772  0.00  0.00    +0.187 C 
ATOM     15  C1* UNL     1      35.351 -18.790 -21.371  0.00  0.00    +0.226 C 
ATOM     16  C3* UNL     1      34.247 -17.033 -22.538  0.00  0.00    +0.171 C 
ATOM     17  C4* UNL     1      35.087 -16.471 -21.404  0.00  0.00    +0.175 C 
BRANCH  14  18
ATOM     18  O2* UNL     1      36.022 -18.281 -23.631  0.00  0.00    -0.378 OA
ATOM     19  H2* UNL     1      35.856 -18.777 -24.448  0.00  0.00    +0.211 HD
ENDBRANCH  14  18
BRANCH  16  20
ATOM     20  O3* UNL     1      34.263 -16.198 -23.676  0.00  0.00    -0.379 OA
ATOM     21  H3* UNL     1      35.032 -16.415 -24.225  0.00  0.00    +0.211 HD
ENDBRANCH  16  20
BRANCH  17  22
ATOM     22  C5* UNL     1      34.376 -15.399 -20.598  0.00  0.00    +0.169 C 
BRANCH  22  23
ATOM     23  O5* UNL     1      33.005 -15.396 -20.956  0.00  0.00    -0.379 OA
ATOM     24  H5* UNL     1      32.730 -16.296 -21.190  0.00  0.00    +0.211 HD
ENDBRANCH  22  23
ENDBRANCH  17  22
ENDBRANCH   1  15
BRANCH   9  25
ATOM     25  O   UNL     1      37.234 -22.085 -17.654  0.00  0.00    -0.399 OA
BRANCH  25  26
ATOM     26  C   UNL     1      37.218 -22.038 -16.235  0.00  0.00    +0.227 C 
BRANCH  26  27
ATOM     27  C   UNL     1      37.723 -23.362 -15.670  0.00  0.00    +0.075 C 
BRANCH  27  29
ATOM     28 CL   UNL     1      35.488 -24.512 -10.220  0.00  0.00    -0.082 Cl
ATOM     29  C   UNL     1      37.162 -23.653 -14.300  0.00  0.00    -0.018 C 
ATOM     30  C   UNL     1      35.801 -23.505 -14.079  0.00  0.00    -0.003 C 
ATOM     31  C   UNL     1      38.016 -24.060 -13.288  0.00  0.00    -0.003 C 
ATOM     32  C   UNL     1      35.281 -23.773 -12.813  0.00  0.00    +0.011 C 
ATOM     33  C   UNL     1      37.496 -24.327 -12.021  0.00  0.00    +0.011 C 
ATOM     34  C   UNL     1      36.129 -24.184 -11.784  0.00  0.00    +0.058 C 
ENDBRANCH  27  29
ENDBRANCH  26  27
ENDBRANCH  25  26
ENDBRANCH   9  25
TORSDOF 9
ENDMDL
MODEL 6
REMARK VINA RESULT:     -10.2      5.650     10.761
REMARK  Name = 9910098
REMARK  9 active torsions:
REMARK  status: ('A' for Active; 'I' for Inactive)
REMARK    1  A    between atoms: N_1  and  C1*_12
REMARK    2  A    between atoms: C_9  and  O_25
REMARK    3  A    between atoms: C2*_11  and  O2*_15
REMARK    4  A    between atoms: C3*_13  and  O3*_17
REMARK    5  A    between atoms: C4*_14  and  C5*_19
REMARK    6  A    between atoms: C5*_19  and  O5*_20
REMARK    7  A    between atoms: O_25  and  C_26
REMARK    8  A    between atoms: C_26  and  C_27
REMARK    9  A    between atoms: C_27  and  C_29
REMARK                            x       y       z     vdW  Elec       q    Type
REMARK                         _______ _______ _______ _____ _____    ______ ____
ROOT
ATOM      1  N   UNL     1      34.543 -15.814 -23.939  0.00  0.00    -0.236 N 
ATOM      2  N   UNL     1      34.423 -17.268 -25.628  0.00  0.00    -0.240 NA
ATOM      3  N   UNL     1      34.970 -17.346 -22.102  0.00  0.00    -0.294 NA
ATOM      4  N   UNL     1      35.070 -19.658 -22.880  0.00  0.00    -0.295 NA
ATOM      5  C   UNL     1      34.744 -17.051 -23.392  0.00  0.00    +0.223 C 
ATOM      6  C   UNL     1      34.354 -15.999 -25.284  0.00  0.00    +0.224 C 
ATOM      7  C   UNL     1      34.667 -17.936 -24.454  0.00  0.00    +0.167 C 
ATOM      8  C   UNL     1      34.840 -19.286 -24.162  0.00  0.00    +0.214 C 
ATOM      9  C   UNL     1      35.119 -18.679 -21.944  0.00  0.00    +0.313 C 
ATOM     10  N   UNL     1      34.774 -20.255 -25.178  0.00  0.00    -0.331 N 
ATOM     11  H   UNL     1      34.899 -21.206 -24.959  0.00  0.00    +0.145 HD
ATOM     12  H   UNL     1      34.606 -19.980 -26.109  0.00  0.00    +0.145 HD
ENDROOT
BRANCH   1  15
ATOM     13  O4* UNL     1      34.339 -14.766 -21.818  0.00  0.00    -0.333 OA
ATOM     14  C2* UNL     1      33.408 -13.593 -23.694  0.00  0.00    +0.187 C 
ATOM     15  C1* UNL     1      34.523 -14.533 -23.231  0.00  0.00    +0.226 C 
ATOM     16  C3* UNL     1      32.383 -13.715 -22.583  0.00  0.00    +0.171 C 
ATOM     17  C4* UNL     1      33.257 -13.940 -21.361  0.00  0.00    +0.175 C 
BRANCH  14  18
ATOM     18  O2* UNL     1      33.920 -12.264 -23.783  0.00  0.00    -0.378 OA
ATOM     19  H2* UNL     1      34.715 -12.187 -23.234  0.00  0.00    +0.211 HD
ENDBRANCH  14  18
BRANCH  16  20
ATOM     20  O3* UNL     1      31.563 -12.574 -22.447  0.00  0.00    -0.379 OA
ATOM     21  H3* UNL     1      30.979 -12.685 -21.680  0.00  0.00    +0.211 HD
ENDBRANCH  16  20
BRANCH  17  22
ATOM     22  C5* UNL     1      32.533 -14.627 -20.217  0.00  0.00    +0.169 C 
BRANCH  22  23
ATOM     23  O5* UNL     1      32.328 -15.986 -20.561  0.00  0.00    -0.379 OA
ATOM     24  H5* UNL     1      32.531 -16.548 -19.797  0.00  0.00    +0.211 HD
ENDBRANCH  22  23
ENDBRANCH  17  22
ENDBRANCH   1  15
BRANCH   9  25
ATOM     25  O   UNL     1      35.362 -19.102 -20.655  0.00  0.00    -0.399 OA
BRANCH  25  26
ATOM     26  C   UNL     1      34.940 -20.418 -20.331  0.00  0.00    +0.227 C 
BRANCH  26  27
ATOM     27  C   UNL     1      36.104 -21.197 -19.727  0.00  0.00    +0.075 C 
BRANCH  27  29
ATOM     28 CL   UNL     1      34.623 -23.898 -14.576  0.00  0.00    -0.082 Cl
ATOM     29  C   UNL     1      35.730 -21.875 -18.431  0.00  0.00    -0.018 C 
ATOM     30  C   UNL     1      36.655 -21.923 -17.399  0.00  0.00    -0.003 C 
ATOM     31  C   UNL     1      34.472 -22.439 -18.297  0.00  0.00    -0.003 C 
ATOM     32  C   UNL     1      36.310 -22.550 -16.202  0.00  0.00    +0.011 C 
ATOM     33  C   UNL     1      34.127 -23.067 -17.100  0.00  0.00    +0.011 C 
ATOM     34  C   UNL     1      35.047 -23.122 -16.052  0.00  0.00    +0.058 C 
ENDBRANCH  27  29
ENDBRANCH  26  27
ENDBRANCH  25  26
ENDBRANCH   9  25
TORSDOF 9
ENDMDL
MODEL 7
REMARK VINA RESULT:      -9.7      7.655     10.806
REMARK  Name = 9910098
REMARK  9 active torsions:
REMARK  status: ('A' for Active; 'I' for Inactive)
REMARK    1  A    between atoms: N_1  and  C1*_12
REMARK    2  A    between atoms: C_9  and  O_25
REMARK    3  A    between atoms: C2*_11  and  O2*_15
REMARK    4  A    between atoms: C3*_13  and  O3*_17
REMARK    5  A    between atoms: C4*_14  and  C5*_19
REMARK    6  A    between atoms: C5*_19  and  O5*_20
REMARK    7  A    between atoms: O_25  and  C_26
REMARK    8  A    between atoms: C_26  and  C_27
REMARK    9  A    between atoms: C_27  and  C_29
REMARK                            x       y       z     vdW  Elec       q    Type
REMARK                         _______ _______ _______ _____ _____    ______ ____
ROOT
ATOM      1  N   UNL     1      34.214 -15.794 -21.505  0.00  0.00    -0.236 N 
ATOM      2  N   UNL     1      32.590 -14.753 -20.385  0.00  0.00    -0.240 NA
ATOM      3  N   UNL     1      34.329 -14.380 -23.478  0.00  0.00    -0.294 NA
ATOM      4  N   UNL     1      32.709 -12.558 -23.360  0.00  0.00    -0.295 NA
ATOM      5  C   UNL     1      33.834 -14.735 -22.282  0.00  0.00    +0.223 C 
ATOM      6  C   UNL     1      33.436 -15.761 -20.377  0.00  0.00    +0.224 C 
ATOM      7  C   UNL     1      32.828 -14.103 -21.570  0.00  0.00    +0.167 C 
ATOM      8  C   UNL     1      32.259 -12.974 -22.152  0.00  0.00    +0.214 C 
ATOM      9  C   UNL     1      33.701 -13.277 -23.939  0.00  0.00    +0.313 C 
ATOM     10  N   UNL     1      31.230 -12.272 -21.500  0.00  0.00    -0.331 N 
ATOM     11  H   UNL     1      30.836 -11.474 -21.921  0.00  0.00    +0.145 HD
ATOM     12  H   UNL     1      30.906 -12.577 -20.622  0.00  0.00    +0.145 HD
ENDROOT
BRANCH   1  15
ATOM     13  O4* UNL     1      35.269 -17.029 -23.237  0.00  0.00    -0.333 OA
ATOM     14  C2* UNL     1      35.037 -18.129 -21.117  0.00  0.00    +0.187 C 
ATOM     15  C1* UNL     1      35.247 -16.784 -21.814  0.00  0.00    +0.226 C 
ATOM     16  C3* UNL     1      34.495 -19.005 -22.231  0.00  0.00    +0.171 C 
ATOM     17  C4* UNL     1      35.204 -18.447 -23.452  0.00  0.00    +0.175 C 
BRANCH  14  18
ATOM     18  O2* UNL     1      36.291 -18.614 -20.641  0.00  0.00    -0.378 OA
ATOM     19  H2* UNL     1      36.210 -19.554 -20.417  0.00  0.00    +0.211 HD
ENDBRANCH  14  18
BRANCH  16  20
ATOM     20  O3* UNL     1      34.757 -20.379 -22.044  0.00  0.00    -0.379 OA
ATOM     21  H3* UNL     1      35.392 -20.680 -22.712  0.00  0.00    +0.211 HD
ENDBRANCH  16  20
BRANCH  17  22
ATOM     22  C5* UNL     1      34.482 -18.737 -24.756  0.00  0.00    +0.169 C 
BRANCH  22  23
ATOM     23  O5* UNL     1      34.428 -17.545 -25.520  0.00  0.00    -0.379 OA
ATOM     24  H5* UNL     1      33.552 -17.139 -25.427  0.00  0.00    +0.211 HD
ENDBRANCH  22  23
ENDBRANCH  17  22
ENDBRANCH   1  15
BRANCH   9  25
ATOM     25  O   UNL     1      34.131 -12.815 -25.164  0.00  0.00    -0.399 OA
BRANCH  25  26
ATOM     26  C   UNL     1      33.742 -11.496 -25.516  0.00  0.00    +0.227 C 
BRANCH  26  27
ATOM     27  C   UNL     1      34.769 -10.499 -24.989  0.00  0.00    +0.075 C 
BRANCH  27  29
ATOM     28 CL   UNL     1      32.243  -6.126 -21.745  0.00  0.00    -0.082 Cl
ATOM     29  C   UNL     1      34.135  -9.400 -24.172  0.00  0.00    -0.018 C 
ATOM     30  C   UNL     1      32.808  -9.518 -23.790  0.00  0.00    -0.003 C 
ATOM     31  C   UNL     1      34.890  -8.293 -23.820  0.00  0.00    -0.003 C 
ATOM     32  C   UNL     1      32.220  -8.502 -23.036  0.00  0.00    +0.011 C 
ATOM     33  C   UNL     1      34.303  -7.276 -23.066  0.00  0.00    +0.011 C 
ATOM     34  C   UNL     1      32.968  -7.381 -22.674  0.00  0.00    +0.058 C 
ENDBRANCH  27  29
ENDBRANCH  26  27
ENDBRANCH  25  26
ENDBRANCH   9  25
TORSDOF 9
ENDMDL
MODEL 8
REMARK VINA RESULT:      -9.6      6.674     10.143
REMARK  Name = 9910098
REMARK  9 active torsions:
REMARK  status: ('A' for Active; 'I' for Inactive)
REMARK    1  A    between atoms: N_1  and  C1*_12
REMARK    2  A    between atoms: C_9  and  O_25
REMARK    3  A    between atoms: C2*_11  and  O2*_15
REMARK    4  A    between atoms: C3*_13  and  O3*_17
REMARK    5  A    between atoms: C4*_14  and  C5*_19
REMARK    6  A    between atoms: C5*_19  and  O5*_20
REMARK    7  A    between atoms: O_25  and  C_26
REMARK    8  A    between atoms: C_26  and  C_27
REMARK    9  A    between atoms: C_27  and  C_29
REMARK                            x       y       z     vdW  Elec       q    Type
REMARK                         _______ _______ _______ _____ _____    ______ ____
ROOT
ATOM      1  N   UNL     1      33.617 -16.529 -21.848  0.00  0.00    -0.236 N 
ATOM      2  N   UNL     1      32.272 -15.339 -20.523  0.00  0.00    -0.240 NA
ATOM      3  N   UNL     1      34.023 -14.895 -23.600  0.00  0.00    -0.294 NA
ATOM      4  N   UNL     1      32.847 -12.804 -23.155  0.00  0.00    -0.295 NA
ATOM      5  C   UNL     1      33.473 -15.309 -22.448  0.00  0.00    +0.223 C 
ATOM      6  C   UNL     1      32.875 -16.497 -20.696  0.00  0.00    +0.224 C 
ATOM      7  C   UNL     1      32.637 -14.587 -21.612  0.00  0.00    +0.167 C 
ATOM      8  C   UNL     1      32.327 -13.288 -22.001  0.00  0.00    +0.214 C 
ATOM      9  C   UNL     1      33.650 -13.627 -23.872  0.00  0.00    +0.313 C 
ATOM     10  N   UNL     1      31.484 -12.485 -21.214  0.00  0.00    -0.331 N 
ATOM     11  H   UNL     1      31.271 -11.567 -21.500  0.00  0.00    +0.145 HD
ATOM     12  H   UNL     1      31.107 -12.840 -20.376  0.00  0.00    +0.145 HD
ENDROOT
BRANCH   1  15
ATOM     13  O4* UNL     1      33.749 -18.896 -21.974  0.00  0.00    -0.333 OA
ATOM     14  C2* UNL     1      35.826 -17.710 -21.779  0.00  0.00    +0.187 C 
ATOM     15  C1* UNL     1      34.403 -17.662 -22.338  0.00  0.00    +0.226 C 
ATOM     16  C3* UNL     1      35.738 -18.801 -20.729  0.00  0.00    +0.171 C 
ATOM     17  C4* UNL     1      34.712 -19.745 -21.331  0.00  0.00    +0.175 C 
BRANCH  14  18
ATOM     18  O2* UNL     1      36.731 -18.068 -22.822  0.00  0.00    -0.378 OA
ATOM     19  H2* UNL     1      37.083 -17.264 -23.235  0.00  0.00    +0.211 HD
ENDBRANCH  14  18
BRANCH  16  20
ATOM     20  O3* UNL     1      36.970 -19.443 -20.480  0.00  0.00    -0.379 OA
ATOM     21  H3* UNL     1      36.972 -20.315 -20.904  0.00  0.00    +0.211 HD
ENDBRANCH  16  20
BRANCH  17  22
ATOM     22  C5* UNL     1      34.020 -20.622 -20.303  0.00  0.00    +0.169 C 
BRANCH  22  23
ATOM     23  O5* UNL     1      32.619 -20.457 -20.435  0.00  0.00    -0.379 OA
ATOM     24  H5* UNL     1      32.168 -21.262 -20.136  0.00  0.00    +0.211 HD
ENDBRANCH  22  23
ENDBRANCH  17  22
ENDBRANCH   1  15
BRANCH   9  25
ATOM     25  O   UNL     1      34.161 -13.092 -25.035  0.00  0.00    -0.399 OA
BRANCH  25  26
ATOM     26  C   UNL     1      33.701 -11.796 -25.391  0.00  0.00    +0.227 C 
BRANCH  26  27
ATOM     27  C   UNL     1      34.745 -10.754 -25.005  0.00  0.00    +0.075 C 
BRANCH  27  29
ATOM     28 CL   UNL     1      32.394  -6.233 -21.835  0.00  0.00    -0.082 Cl
ATOM     29  C   UNL     1      34.153  -9.617 -24.209  0.00  0.00    -0.018 C 
ATOM     30  C   UNL     1      34.908  -8.475 -23.992  0.00  0.00    -0.003 C 
ATOM     31  C   UNL     1      32.866  -9.735 -23.709  0.00  0.00    -0.003 C 
ATOM     32  C   UNL     1      34.362  -7.424 -23.255  0.00  0.00    +0.011 C 
ATOM     33  C   UNL     1      32.320  -8.684 -22.971  0.00  0.00    +0.011 C 
ATOM     34  C   UNL     1      33.068  -7.528 -22.745  0.00  0.00    +0.058 C 
ENDBRANCH  27  29
ENDBRANCH  26  27
ENDBRANCH  25  26
ENDBRANCH   9  25
TORSDOF 9
ENDMDL
MODEL 9
REMARK VINA RESULT:      -9.6      8.888     13.268
REMARK  Name = 9910098
REMARK  9 active torsions:
REMARK  status: ('A' for Active; 'I' for Inactive)
REMARK    1  A    between atoms: N_1  and  C1*_12
REMARK    2  A    between atoms: C_9  and  O_25
REMARK    3  A    between atoms: C2*_11  and  O2*_15
REMARK    4  A    between atoms: C3*_13  and  O3*_17
REMARK    5  A    between atoms: C4*_14  and  C5*_19
REMARK    6  A    between atoms: C5*_19  and  O5*_20
REMARK    7  A    between atoms: O_25  and  C_26
REMARK    8  A    between atoms: C_26  and  C_27
REMARK    9  A    between atoms: C_27  and  C_29
REMARK                            x       y       z     vdW  Elec       q    Type
REMARK                         _______ _______ _______ _____ _____    ______ ____
ROOT
ATOM      1  N   UNL     1      31.777 -10.932 -22.171  0.00  0.00    -0.236 N 
ATOM      2  N   UNL     1      31.551 -12.160 -20.322  0.00  0.00    -0.240 NA
ATOM      3  N   UNL     1      32.883 -12.549 -23.609  0.00  0.00    -0.294 NA
ATOM      4  N   UNL     1      33.233 -14.671 -22.455  0.00  0.00    -0.295 NA
ATOM      5  C   UNL     1      32.323 -12.153 -22.456  0.00  0.00    +0.223 C 
ATOM      6  C   UNL     1      31.329 -10.987 -20.877  0.00  0.00    +0.224 C 
ATOM      7  C   UNL     1      32.172 -12.899 -21.298  0.00  0.00    +0.167 C 
ATOM      8  C   UNL     1      32.653 -14.204 -21.323  0.00  0.00    +0.214 C 
ATOM      9  C   UNL     1      33.311 -13.825 -23.512  0.00  0.00    +0.313 C 
ATOM     10  N   UNL     1      32.544 -15.031 -20.192  0.00  0.00    -0.331 N 
ATOM     11  H   UNL     1      32.888 -15.953 -20.222  0.00  0.00    +0.145 HD
ATOM     12  H   UNL     1      32.122 -14.689 -19.371  0.00  0.00    +0.145 HD
ENDROOT
BRANCH   1  15
ATOM     13  O4* UNL     1      32.872  -9.724 -23.897  0.00  0.00    -0.333 OA
ATOM     14  C2* UNL     1      31.580  -8.440 -22.335  0.00  0.00    +0.187 C 
ATOM     15  C1* UNL     1      31.692  -9.778 -23.067  0.00  0.00    +0.226 C 
ATOM     16  C3* UNL     1      32.980  -7.869 -22.461  0.00  0.00    +0.171 C 
ATOM     17  C4* UNL     1      33.424  -8.401 -23.812  0.00  0.00    +0.175 C 
BRANCH  14  18
ATOM     18  O2* UNL     1      30.624  -7.617 -23.003  0.00  0.00    -0.378 OA
ATOM     19  H2* UNL     1      30.063  -8.169 -23.570  0.00  0.00    +0.211 HD
ENDBRANCH  14  18
BRANCH  16  20
ATOM     20  O3* UNL     1      33.020  -6.459 -22.405  0.00  0.00    -0.379 OA
ATOM     21  H3* UNL     1      33.462  -6.117 -23.197  0.00  0.00    +0.211 HD
ENDBRANCH  16  20
BRANCH  17  22
ATOM     22  C5* UNL     1      34.933  -8.462 -23.972  0.00  0.00    +0.169 C 
BRANCH  22  23
ATOM     23  O5* UNL     1      35.336  -9.820 -23.961  0.00  0.00    -0.379 OA
ATOM     24  H5* UNL     1      36.291  -9.876 -24.121  0.00  0.00    +0.211 HD
ENDBRANCH  22  23
ENDBRANCH  17  22
ENDBRANCH   1  15
BRANCH   9  25
ATOM     25  O   UNL     1      33.903 -14.343 -24.644  0.00  0.00    -0.399 OA
BRANCH  25  26
ATOM     26  C   UNL     1      33.524 -15.662 -25.009  0.00  0.00    +0.227 C 
BRANCH  26  27
ATOM     27  C   UNL     1      34.766 -16.539 -25.130  0.00  0.00    +0.075 C 
BRANCH  27  29
ATOM     28 CL   UNL     1      35.431 -20.199 -20.419  0.00  0.00    -0.082 Cl
ATOM     29  C   UNL     1      34.935 -17.459 -23.945  0.00  0.00    -0.018 C 
ATOM     30  C   UNL     1      34.653 -18.809 -24.089  0.00  0.00    -0.003 C 
ATOM     31  C   UNL     1      35.367 -16.939 -22.736  0.00  0.00    -0.003 C 
ATOM     32  C   UNL     1      34.808 -19.660 -22.994  0.00  0.00    +0.011 C 
ATOM     33  C   UNL     1      35.521 -17.789 -21.641  0.00  0.00    +0.011 C 
ATOM     34  C   UNL     1      35.242 -19.150 -21.771  0.00  0.00    +0.058 C 
ENDBRANCH  27  29
ENDBRANCH  26  27
ENDBRANCH  25  26
ENDBRANCH   9  25
TORSDOF 9
ENDMDL
