MODEL 1
REMARK VINA RESULT:      -4.5      0.000      0.000
REMARK  Name = 2707
REMARK  3 active torsions:
REMARK  status: ('A' for Active; 'I' for Inactive)
REMARK    1  A    between atoms: C_1  and  C_5
REMARK    2  A    between atoms: C_1  and  O_6
REMARK    3  A    between atoms: C_1  and  O_8
REMARK                            x       y       z     vdW  Elec       q    Type
REMARK                         _______ _______ _______ _____ _____    ______ ____
ROOT
ATOM      1  C   UNL     1      40.101 -25.701 -14.695  0.00  0.00    +0.272 C 
ENDROOT
BRANCH   1   5
ATOM      2 CL   UNL     1      37.583 -26.760 -14.857  0.00  0.00    -0.078 Cl
ATOM      3 CL   UNL     1      38.089 -23.925 -15.287  0.00  0.00    -0.078 Cl
ATOM      4 CL   UNL     1      38.412 -25.082 -12.637  0.00  0.00    -0.078 Cl
ATOM      5  C   UNL     1      38.628 -25.379 -14.391  0.00  0.00    +0.249 C 
ENDBRANCH   1   5
BRANCH   1   6
ATOM      6  O   UNL     1      40.964 -24.665 -14.233  0.00  0.00    -0.358 OA
ATOM      7  H   UNL     1      41.573 -24.410 -14.944  0.00  0.00    +0.213 HD
ENDBRANCH   1   6
BRANCH   1   8
ATOM      8  O   UNL     1      40.288 -25.902 -16.093  0.00  0.00    -0.358 OA
ATOM      9  H   UNL     1      39.566 -25.474 -16.581  0.00  0.00    +0.213 HD
ENDBRANCH   1   8
TORSDOF 3
ENDMDL
MODEL 2
REMARK VINA RESULT:      -4.5      0.012      1.904
REMARK  Name = 2707
REMARK  3 active torsions:
REMARK  status: ('A' for Active; 'I' for Inactive)
REMARK    1  A    between atoms: C_1  and  C_5
REMARK    2  A    between atoms: C_1  and  O_6
REMARK    3  A    between atoms: C_1  and  O_8
REMARK                            x       y       z     vdW  Elec       q    Type
REMARK                         _______ _______ _______ _____ _____    ______ ____
ROOT
ATOM      1  C   UNL     1      40.105 -25.700 -14.690  0.00  0.00    +0.272 C 
ENDROOT
BRANCH   1   5
ATOM      2 CL   UNL     1      38.104 -23.933 -15.286  0.00  0.00    -0.078 Cl
ATOM      3 CL   UNL     1      38.401 -25.078 -12.626  0.00  0.00    -0.078 Cl
ATOM      4 CL   UNL     1      37.591 -26.758 -14.859  0.00  0.00    -0.078 Cl
ATOM      5  C   UNL     1      38.634 -25.384 -14.375  0.00  0.00    +0.249 C 
ENDBRANCH   1   5
BRANCH   1   6
ATOM      6  O   UNL     1      40.967 -24.659 -14.235  0.00  0.00    -0.358 OA
ATOM      7  H   UNL     1      41.570 -24.402 -14.951  0.00  0.00    +0.213 HD
ENDBRANCH   1   6
BRANCH   1   8
ATOM      8  O   UNL     1      40.283 -25.901 -16.089  0.00  0.00    -0.358 OA
ATOM      9  H   UNL     1      39.687 -26.604 -16.393  0.00  0.00    +0.213 HD
ENDBRANCH   1   8
TORSDOF 3
ENDMDL
MODEL 3
REMARK VINA RESULT:      -4.5     10.630     10.969
REMARK  Name = 2707
REMARK  3 active torsions:
REMARK  status: ('A' for Active; 'I' for Inactive)
REMARK    1  A    between atoms: C_1  and  C_5
REMARK    2  A    between atoms: C_1  and  O_6
REMARK    3  A    between atoms: C_1  and  O_8
REMARK                            x       y       z     vdW  Elec       q    Type
REMARK                         _______ _______ _______ _____ _____    ______ ____
ROOT
ATOM      1  C   UNL     1      41.354 -16.058 -16.128  0.00  0.00    +0.272 C 
ENDROOT
BRANCH   1   5
ATOM      2 CL   UNL     1      41.007 -14.175 -18.081  0.00  0.00    -0.078 Cl
ATOM      3 CL   UNL     1      43.569 -14.557 -16.753  0.00  0.00    -0.078 Cl
ATOM      4 CL   UNL     1      41.310 -13.459 -15.284  0.00  0.00    -0.078 Cl
ATOM      5  C   UNL     1      41.793 -14.643 -16.539  0.00  0.00    +0.249 C 
ENDBRANCH   1   5
BRANCH   1   6
ATOM      6  O   UNL     1      40.249 -16.017 -15.227  0.00  0.00    -0.358 OA
ATOM      7  H   UNL     1      40.388 -16.661 -14.515  0.00  0.00    +0.213 HD
ENDBRANCH   1   6
BRANCH   1   8
ATOM      8  O   UNL     1      42.439 -16.764 -15.532  0.00  0.00    -0.358 OA
ATOM      9  H   UNL     1      42.132 -17.631 -15.225  0.00  0.00    +0.213 HD
ENDBRANCH   1   8
TORSDOF 3
ENDMDL
MODEL 4
REMARK VINA RESULT:      -4.2      2.056      2.731
REMARK  Name = 2707
REMARK  3 active torsions:
REMARK  status: ('A' for Active; 'I' for Inactive)
REMARK    1  A    between atoms: C_1  and  C_5
REMARK    2  A    between atoms: C_1  and  O_6
REMARK    3  A    between atoms: C_1  and  O_8
REMARK                            x       y       z     vdW  Elec       q    Type
REMARK                         _______ _______ _______ _____ _____    ______ ____
ROOT
ATOM      1  C   UNL     1      37.886 -24.261 -14.812  0.00  0.00    +0.272 C 
ENDROOT
BRANCH   1   5
ATOM      2 CL   UNL     1      40.044 -25.697 -13.939  0.00  0.00    -0.078 Cl
ATOM      3 CL   UNL     1      37.312 -26.568 -13.433  0.00  0.00    -0.078 Cl
ATOM      4 CL   UNL     1      38.356 -24.190 -12.120  0.00  0.00    -0.078 Cl
ATOM      5  C   UNL     1      38.367 -25.136 -13.642  0.00  0.00    +0.249 C 
ENDBRANCH   1   5
BRANCH   1   6
ATOM      6  O   UNL     1      36.900 -24.935 -15.591  0.00  0.00    -0.358 OA
ATOM      7  H   UNL     1      37.244 -25.797 -15.873  0.00  0.00    +0.213 HD
ENDBRANCH   1   6
BRANCH   1   8
ATOM      8  O   UNL     1      38.984 -23.886 -15.638  0.00  0.00    -0.358 OA
ATOM      9  H   UNL     1      39.808 -24.229 -15.257  0.00  0.00    +0.213 HD
ENDBRANCH   1   8
TORSDOF 3
ENDMDL
MODEL 5
REMARK VINA RESULT:      -4.2     10.157     10.875
REMARK  Name = 2707
REMARK  3 active torsions:
REMARK  status: ('A' for Active; 'I' for Inactive)
REMARK    1  A    between atoms: C_1  and  C_5
REMARK    2  A    between atoms: C_1  and  O_6
REMARK    3  A    between atoms: C_1  and  O_8
REMARK                            x       y       z     vdW  Elec       q    Type
REMARK                         _______ _______ _______ _____ _____    ______ ____
ROOT
ATOM      1  C   UNL     1      41.504 -16.240 -16.410  0.00  0.00    +0.272 C 
ENDROOT
BRANCH   1   5
ATOM      2 CL   UNL     1      43.568 -14.488 -16.805  0.00  0.00    -0.078 Cl
ATOM      3 CL   UNL     1      40.987 -14.141 -18.106  0.00  0.00    -0.078 Cl
ATOM      4 CL   UNL     1      42.717 -16.356 -18.857  0.00  0.00    -0.078 Cl
ATOM      5  C   UNL     1      42.152 -15.352 -17.486  0.00  0.00    +0.249 C 
ENDBRANCH   1   5
BRANCH   1   6
ATOM      6  O   UNL     1      40.492 -15.535 -15.696  0.00  0.00    -0.358 OA
ATOM      7  H   UNL     1      39.665 -15.554 -16.203  0.00  0.00    +0.213 HD
ENDBRANCH   1   6
BRANCH   1   8
ATOM      8  O   UNL     1      42.491 -16.724 -15.504  0.00  0.00    -0.358 OA
ATOM      9  H   UNL     1      42.337 -17.666 -15.330  0.00  0.00    +0.213 HD
ENDBRANCH   1   8
TORSDOF 3
ENDMDL
MODEL 6
REMARK VINA RESULT:      -4.2     10.516     11.257
REMARK  Name = 2707
REMARK  3 active torsions:
REMARK  status: ('A' for Active; 'I' for Inactive)
REMARK    1  A    between atoms: C_1  and  C_5
REMARK    2  A    between atoms: C_1  and  O_6
REMARK    3  A    between atoms: C_1  and  O_8
REMARK                            x       y       z     vdW  Elec       q    Type
REMARK                         _______ _______ _______ _____ _____    ______ ____
ROOT
ATOM      1  C   UNL     1      34.832 -17.100 -21.796  0.00  0.00    +0.272 C 
ENDROOT
BRANCH   1   5
ATOM      2 CL   UNL     1      36.427 -19.158 -20.958  0.00  0.00    -0.078 Cl
ATOM      3 CL   UNL     1      34.962 -19.275 -23.471  0.00  0.00    -0.078 Cl
ATOM      4 CL   UNL     1      33.530 -19.345 -20.939  0.00  0.00    -0.078 Cl
ATOM      5  C   UNL     1      34.932 -18.634 -21.798  0.00  0.00    +0.249 C 
ENDBRANCH   1   5
BRANCH   1   6
ATOM      6  O   UNL     1      35.657 -16.525 -22.807  0.00  0.00    -0.358 OA
ATOM      7  H   UNL     1      35.363 -15.617 -22.987  0.00  0.00    +0.213 HD
ENDBRANCH   1   6
BRANCH   1   8
ATOM      8  O   UNL     1      35.193 -16.579 -20.520  0.00  0.00    -0.358 OA
ATOM      9  H   UNL     1      35.524 -15.672 -20.623  0.00  0.00    +0.213 HD
ENDBRANCH   1   8
TORSDOF 3
ENDMDL
MODEL 7
REMARK VINA RESULT:      -4.2      2.405      2.982
REMARK  Name = 2707
REMARK  3 active torsions:
REMARK  status: ('A' for Active; 'I' for Inactive)
REMARK    1  A    between atoms: C_1  and  C_5
REMARK    2  A    between atoms: C_1  and  O_6
REMARK    3  A    between atoms: C_1  and  O_8
REMARK                            x       y       z     vdW  Elec       q    Type
REMARK                         _______ _______ _______ _____ _____    ______ ____
ROOT
ATOM      1  C   UNL     1      37.821 -26.658 -14.492  0.00  0.00    +0.272 C 
ENDROOT
BRANCH   1   5
ATOM      2 CL   UNL     1      38.202 -24.937 -12.400  0.00  0.00    -0.078 Cl
ATOM      3 CL   UNL     1      37.925 -23.989 -15.139  0.00  0.00    -0.078 Cl
ATOM      4 CL   UNL     1      40.287 -25.489 -14.342  0.00  0.00    -0.078 Cl
ATOM      5  C   UNL     1      38.516 -25.338 -14.119  0.00  0.00    +0.249 C 
ENDBRANCH   1   5
BRANCH   1   6
ATOM      6  O   UNL     1      37.286 -26.607 -15.812  0.00  0.00    -0.358 OA
ATOM      7  H   UNL     1      37.532 -25.766 -16.229  0.00  0.00    +0.213 HD
ENDBRANCH   1   6
BRANCH   1   8
ATOM      8  O   UNL     1      36.785 -26.956 -13.559  0.00  0.00    -0.358 OA
ATOM      9  H   UNL     1      36.884 -27.870 -13.247  0.00  0.00    +0.213 HD
ENDBRANCH   1   8
TORSDOF 3
ENDMDL
MODEL 8
REMARK VINA RESULT:      -4.2      2.399      3.209
REMARK  Name = 2707
REMARK  3 active torsions:
REMARK  status: ('A' for Active; 'I' for Inactive)
REMARK    1  A    between atoms: C_1  and  C_5
REMARK    2  A    between atoms: C_1  and  O_6
REMARK    3  A    between atoms: C_1  and  O_8
REMARK                            x       y       z     vdW  Elec       q    Type
REMARK                         _______ _______ _______ _____ _____    ______ ____
ROOT
ATOM      1  C   UNL     1      37.816 -26.658 -14.487  0.00  0.00    +0.272 C 
ENDROOT
BRANCH   1   5
ATOM      2 CL   UNL     1      40.294 -25.507 -14.343  0.00  0.00    -0.078 Cl
ATOM      3 CL   UNL     1      38.213 -24.923 -12.392  0.00  0.00    -0.078 Cl
ATOM      4 CL   UNL     1      37.940 -24.007 -15.140  0.00  0.00    -0.078 Cl
ATOM      5  C   UNL     1      38.524 -25.347 -14.105  0.00  0.00    +0.249 C 
ENDBRANCH   1   5
BRANCH   1   6
ATOM      6  O   UNL     1      37.288 -26.595 -15.809  0.00  0.00    -0.358 OA
ATOM      7  H   UNL     1      36.686 -25.837 -15.882  0.00  0.00    +0.213 HD
ENDBRANCH   1   6
BRANCH   1   8
ATOM      8  O   UNL     1      36.773 -26.949 -13.560  0.00  0.00    -0.358 OA
ATOM      9  H   UNL     1      35.972 -27.204 -14.045  0.00  0.00    +0.213 HD
ENDBRANCH   1   8
TORSDOF 3
ENDMDL
MODEL 9
REMARK VINA RESULT:      -4.2     10.394     11.140
REMARK  Name = 2707
REMARK  3 active torsions:
REMARK  status: ('A' for Active; 'I' for Inactive)
REMARK    1  A    between atoms: C_1  and  C_5
REMARK    2  A    between atoms: C_1  and  O_6
REMARK    3  A    between atoms: C_1  and  O_8
REMARK                            x       y       z     vdW  Elec       q    Type
REMARK                         _______ _______ _______ _____ _____    ______ ____
ROOT
ATOM      1  C   UNL     1      34.804 -17.231 -21.754  0.00  0.00    +0.272 C 
ENDROOT
BRANCH   1   5
ATOM      2 CL   UNL     1      34.893 -19.423 -23.388  0.00  0.00    -0.078 Cl
ATOM      3 CL   UNL     1      33.421 -19.438 -20.876  0.00  0.00    -0.078 Cl
ATOM      4 CL   UNL     1      36.328 -19.320 -20.867  0.00  0.00    -0.078 Cl
ATOM      5  C   UNL     1      34.852 -18.768 -21.719  0.00  0.00    +0.249 C 
ENDBRANCH   1   5
BRANCH   1   6
ATOM      6  O   UNL     1      35.624 -16.710 -22.797  0.00  0.00    -0.358 OA
ATOM      7  H   UNL     1      36.501 -17.125 -22.757  0.00  0.00    +0.213 HD
ENDBRANCH   1   6
BRANCH   1   8
ATOM      8  O   UNL     1      35.213 -16.692 -20.499  0.00  0.00    -0.358 OA
ATOM      9  H   UNL     1      35.469 -15.763 -20.615  0.00  0.00    +0.213 HD
ENDBRANCH   1   8
TORSDOF 3
ENDMDL
