MODEL 1
REMARK VINA RESULT:      -8.2      0.000      0.000
REMARK  Name = 11347535
REMARK  5 active torsions:
REMARK  status: ('A' for Active; 'I' for Inactive)
REMARK    1  A    between atoms: C_5  and  C_12
REMARK    2  A    between atoms: C_7  and  C_21
REMARK    3  A    between atoms: C_12  and  C_13
REMARK    4  A    between atoms: C_12  and  O_19
REMARK    5  A    between atoms: C_21  and  C_23
REMARK                            x       y       z     vdW  Elec       q    Type
REMARK                         _______ _______ _______ _____ _____    ______ ____
ROOT
ATOM      1  O   UNL     1      37.077 -23.916 -15.290  0.00  0.00    -0.452 OA
ATOM      2  O   UNL     1      35.793 -22.082 -15.892  0.00  0.00    -0.248 OA
ATOM      3  O   UNL     1      36.921 -23.445 -10.980  0.00  0.00    -0.275 OA
ATOM      4  N   UNL     1      35.444 -23.319 -12.793  0.00  0.00    -0.294 N 
ATOM      5  C   UNL     1      35.321 -23.884 -14.130  0.00  0.00    +0.206 C 
ATOM      6  C   UNL     1      36.491 -24.840 -14.325  0.00  0.00    +0.171 C 
ATOM      7  C   UNL     1      37.190 -24.865 -12.958  0.00  0.00    +0.116 C 
ATOM      8  C   UNL     1      35.998 -23.086 -15.249  0.00  0.00    +0.339 C 
ATOM      9  C   UNL     1      36.546 -23.793 -12.089  0.00  0.00    +0.226 C 
ATOM     10  C   UNL     1      36.276 -26.193 -14.953  0.00  0.00    +0.047 C 
ATOM     11  H   UNL     1      34.808 -22.665 -12.424  0.00  0.00    +0.150 HD
ENDROOT
BRANCH   5  12
ATOM     12  C   UNL     1      33.905 -24.360 -14.400  0.00  0.00    +0.144 C 
BRANCH  12  13
ATOM     13  C   UNL     1      32.987 -23.172 -14.693  0.00  0.00    +0.051 C 
ATOM     14  C   UNL     1      32.364 -23.271 -16.098  0.00  0.00    +0.007 C 
ATOM     15  C   UNL     1      31.942 -23.056 -13.615  0.00  0.00    -0.029 C 
ATOM     16  C   UNL     1      31.149 -24.198 -16.126  0.00  0.00    +0.005 C 
ATOM     17  C   UNL     1      30.077 -23.742 -15.133  0.00  0.00    +0.026 C 
ATOM     18  C   UNL     1      30.639 -23.298 -13.817  0.00  0.00    -0.031 C 
ENDBRANCH  12  13
BRANCH  12  19
ATOM     19  O   UNL     1      33.419 -25.056 -13.261  0.00  0.00    -0.382 OA
ATOM     20  H   UNL     1      33.715 -25.980 -13.296  0.00  0.00    +0.210 HD
ENDBRANCH  12  19
ENDBRANCH   5  12
BRANCH   7  21
ATOM     21  C   UNL     1      38.695 -24.685 -13.062  0.00  0.00    +0.030 C 
BRANCH  21  23
ATOM     22 CL   UNL     1      40.252 -25.500 -15.167  0.00  0.00    -0.114 Cl
ATOM     23  C   UNL     1      39.414 -25.895 -13.650  0.00  0.00    +0.095 C 
ENDBRANCH  21  23
ENDBRANCH   7  21
TORSDOF 5
ENDMDL
MODEL 2
REMARK VINA RESULT:      -7.9      1.553      2.790
REMARK  Name = 11347535
REMARK  5 active torsions:
REMARK  status: ('A' for Active; 'I' for Inactive)
REMARK    1  A    between atoms: C_5  and  C_12
REMARK    2  A    between atoms: C_7  and  C_21
REMARK    3  A    between atoms: C_12  and  C_13
REMARK    4  A    between atoms: C_12  and  O_19
REMARK    5  A    between atoms: C_21  and  C_23
REMARK                            x       y       z     vdW  Elec       q    Type
REMARK                         _______ _______ _______ _____ _____    ______ ____
ROOT
ATOM      1  O   UNL     1      36.622 -23.586 -12.947  0.00  0.00    -0.452 OA
ATOM      2  O   UNL     1      34.563 -23.851 -11.915  0.00  0.00    -0.248 OA
ATOM      3  O   UNL     1      36.627 -27.198 -15.349  0.00  0.00    -0.275 OA
ATOM      4  N   UNL     1      35.125 -25.491 -14.787  0.00  0.00    -0.294 N 
ATOM      5  C   UNL     1      35.178 -24.090 -14.392  0.00  0.00    +0.206 C 
ATOM      6  C   UNL     1      36.643 -23.673 -14.403  0.00  0.00    +0.171 C 
ATOM      7  C   UNL     1      37.381 -24.899 -14.959  0.00  0.00    +0.116 C 
ATOM      8  C   UNL     1      35.284 -23.832 -12.886  0.00  0.00    +0.339 C 
ATOM      9  C   UNL     1      36.374 -26.038 -15.060  0.00  0.00    +0.226 C 
ATOM     10  C   UNL     1      37.058 -22.355 -15.005  0.00  0.00    +0.047 C 
ATOM     11  H   UNL     1      34.286 -26.001 -14.854  0.00  0.00    +0.150 HD
ENDROOT
BRANCH   5  12
ATOM     12  C   UNL     1      34.154 -23.265 -15.150  0.00  0.00    +0.144 C 
BRANCH  12  13
ATOM     13  C   UNL     1      32.881 -24.079 -15.389  0.00  0.00    +0.051 C 
ATOM     14  C   UNL     1      32.050 -24.223 -14.100  0.00  0.00    +0.007 C 
ATOM     15  C   UNL     1      32.085 -23.465 -16.513  0.00  0.00    -0.029 C 
ATOM     16  C   UNL     1      31.191 -22.989 -13.827  0.00  0.00    +0.005 C 
ATOM     17  C   UNL     1      30.252 -22.692 -14.998  0.00  0.00    +0.026 C 
ATOM     18  C   UNL     1      30.903 -22.858 -16.338  0.00  0.00    -0.031 C 
ENDBRANCH  12  13
BRANCH  12  19
ATOM     19  O   UNL     1      34.700 -22.872 -16.401  0.00  0.00    -0.382 OA
ATOM     20  H   UNL     1      34.547 -21.924 -16.537  0.00  0.00    +0.210 HD
ENDBRANCH  12  19
ENDBRANCH   5  12
BRANCH   7  21
ATOM     21  C   UNL     1      38.594 -25.283 -14.130  0.00  0.00    +0.030 C 
BRANCH  21  23
ATOM     22 CL   UNL     1      41.017 -26.562 -14.245  0.00  0.00    -0.114 Cl
ATOM     23  C   UNL     1      39.880 -25.387 -14.944  0.00  0.00    +0.095 C 
ENDBRANCH  21  23
ENDBRANCH   7  21
TORSDOF 5
ENDMDL
MODEL 3
REMARK VINA RESULT:      -7.3      8.375     10.544
REMARK  Name = 11347535
REMARK  5 active torsions:
REMARK  status: ('A' for Active; 'I' for Inactive)
REMARK    1  A    between atoms: C_5  and  C_12
REMARK    2  A    between atoms: C_7  and  C_21
REMARK    3  A    between atoms: C_12  and  C_13
REMARK    4  A    between atoms: C_12  and  O_19
REMARK    5  A    between atoms: C_21  and  C_23
REMARK                            x       y       z     vdW  Elec       q    Type
REMARK                         _______ _______ _______ _____ _____    ______ ____
ROOT
ATOM      1  O   UNL     1      36.287 -17.281 -22.162  0.00  0.00    -0.452 OA
ATOM      2  O   UNL     1      37.648 -18.982 -21.366  0.00  0.00    -0.248 OA
ATOM      3  O   UNL     1      34.213 -19.491 -25.265  0.00  0.00    -0.275 OA
ATOM      4  N   UNL     1      34.865 -19.823 -23.040  0.00  0.00    -0.294 N 
ATOM      5  C   UNL     1      35.132 -19.014 -21.859  0.00  0.00    +0.206 C 
ATOM      6  C   UNL     1      34.858 -17.563 -22.234  0.00  0.00    +0.171 C 
ATOM      7  C   UNL     1      34.293 -17.642 -23.660  0.00  0.00    +0.116 C 
ATOM      8  C   UNL     1      36.577 -18.530 -21.702  0.00  0.00    +0.339 C 
ATOM      9  C   UNL     1      34.444 -19.081 -24.138  0.00  0.00    +0.226 C 
ATOM     10  C   UNL     1      34.094 -16.663 -21.297  0.00  0.00    +0.047 C 
ATOM     11  H   UNL     1      34.972 -20.801 -23.059  0.00  0.00    +0.150 HD
ENDROOT
BRANCH   5  12
ATOM     12  C   UNL     1      34.480 -19.609 -20.624  0.00  0.00    +0.144 C 
BRANCH  12  13
ATOM     13  C   UNL     1      34.684 -21.125 -20.589  0.00  0.00    +0.051 C 
ATOM     14  C   UNL     1      36.080 -21.497 -20.056  0.00  0.00    +0.007 C 
ATOM     15  C   UNL     1      33.581 -21.770 -19.789  0.00  0.00    -0.029 C 
ATOM     16  C   UNL     1      36.142 -21.469 -18.530  0.00  0.00    +0.005 C 
ATOM     17  C   UNL     1      35.104 -22.407 -17.911  0.00  0.00    +0.026 C 
ATOM     18  C   UNL     1      33.773 -22.355 -18.599  0.00  0.00    -0.031 C 
ENDBRANCH  12  13
BRANCH  12  19
ATOM     19  O   UNL     1      33.089 -19.324 -20.644  0.00  0.00    -0.382 OA
ATOM     20  H   UNL     1      32.693 -19.588 -19.798  0.00  0.00    +0.210 HD
ENDBRANCH  12  19
ENDBRANCH   5  12
BRANCH   7  21
ATOM     21  C   UNL     1      34.951 -16.655 -24.609  0.00  0.00    +0.030 C 
BRANCH  21  23
ATOM     22 CL   UNL     1      33.234 -14.530 -24.372  0.00  0.00    -0.114 Cl
ATOM     23  C   UNL     1      33.953 -15.801 -25.386  0.00  0.00    +0.095 C 
ENDBRANCH  21  23
ENDBRANCH   7  21
TORSDOF 5
ENDMDL
MODEL 4
REMARK VINA RESULT:      -7.2      9.001     10.677
REMARK  Name = 11347535
REMARK  5 active torsions:
REMARK  status: ('A' for Active; 'I' for Inactive)
REMARK    1  A    between atoms: C_5  and  C_12
REMARK    2  A    between atoms: C_7  and  C_21
REMARK    3  A    between atoms: C_12  and  C_13
REMARK    4  A    between atoms: C_12  and  O_19
REMARK    5  A    between atoms: C_21  and  C_23
REMARK                            x       y       z     vdW  Elec       q    Type
REMARK                         _______ _______ _______ _____ _____    ______ ____
ROOT
ATOM      1  O   UNL     1      34.103 -20.156 -22.661  0.00  0.00    -0.452 OA
ATOM      2  O   UNL     1      34.475 -19.106 -24.695  0.00  0.00    -0.248 OA
ATOM      3  O   UNL     1      37.823 -19.112 -20.689  0.00  0.00    -0.275 OA
ATOM      4  N   UNL     1      36.212 -18.058 -22.024  0.00  0.00    -0.294 N 
ATOM      5  C   UNL     1      34.793 -18.197 -22.319  0.00  0.00    +0.206 C 
ATOM      6  C   UNL     1      34.264 -19.340 -21.462  0.00  0.00    +0.171 C 
ATOM      7  C   UNL     1      35.455 -19.732 -20.578  0.00  0.00    +0.116 C 
ATOM      8  C   UNL     1      34.449 -19.128 -23.486  0.00  0.00    +0.339 C 
ATOM      9  C   UNL     1      36.674 -18.965 -21.075  0.00  0.00    +0.226 C 
ATOM     10  C   UNL     1      32.950 -19.205 -20.735  0.00  0.00    +0.047 C 
ATOM     11  H   UNL     1      36.790 -17.387 -22.454  0.00  0.00    +0.150 HD
ENDROOT
BRANCH   5  12
ATOM     12  C   UNL     1      34.091 -16.851 -22.298  0.00  0.00    +0.144 C 
BRANCH  12  13
ATOM     13  C   UNL     1      34.890 -15.818 -23.094  0.00  0.00    +0.051 C 
ATOM     14  C   UNL     1      34.691 -15.994 -24.611  0.00  0.00    +0.007 C 
ATOM     15  C   UNL     1      34.531 -14.429 -22.632  0.00  0.00    -0.029 C 
ATOM     16  C   UNL     1      33.396 -15.349 -25.102  0.00  0.00    +0.005 C 
ATOM     17  C   UNL     1      33.350 -13.858 -24.761  0.00  0.00    +0.026 C 
ATOM     18  C   UNL     1      33.855 -13.549 -23.384  0.00  0.00    -0.031 C 
ENDBRANCH  12  13
BRANCH  12  19
ATOM     19  O   UNL     1      33.963 -16.410 -20.954  0.00  0.00    -0.382 OA
ATOM     20  H   UNL     1      33.580 -15.518 -20.942  0.00  0.00    +0.210 HD
ENDBRANCH  12  19
ENDBRANCH   5  12
BRANCH   7  21
ATOM     21  C   UNL     1      35.700 -21.231 -20.549  0.00  0.00    +0.030 C 
BRANCH  21  23
ATOM     22 CL   UNL     1      33.694 -22.353 -19.054  0.00  0.00    -0.114 Cl
ATOM     23  C   UNL     1      35.400 -21.872 -19.198  0.00  0.00    +0.095 C 
ENDBRANCH  21  23
ENDBRANCH   7  21
TORSDOF 5
ENDMDL
MODEL 5
REMARK VINA RESULT:      -6.7     17.455     19.178
REMARK  Name = 11347535
REMARK  5 active torsions:
REMARK  status: ('A' for Active; 'I' for Inactive)
REMARK    1  A    between atoms: C_5  and  C_12
REMARK    2  A    between atoms: C_7  and  C_21
REMARK    3  A    between atoms: C_12  and  C_13
REMARK    4  A    between atoms: C_12  and  O_19
REMARK    5  A    between atoms: C_21  and  C_23
REMARK                            x       y       z     vdW  Elec       q    Type
REMARK                         _______ _______ _______ _____ _____    ______ ____
ROOT
ATOM      1  O   UNL     1      33.178  -9.882 -22.624  0.00  0.00    -0.452 OA
ATOM      2  O   UNL     1      34.879  -8.873 -23.835  0.00  0.00    -0.248 OA
ATOM      3  O   UNL     1      32.879  -7.010 -19.387  0.00  0.00    -0.275 OA
ATOM      4  N   UNL     1      33.093  -6.979 -21.719  0.00  0.00    -0.294 N 
ATOM      5  C   UNL     1      32.753  -7.833 -22.848  0.00  0.00    +0.206 C 
ATOM      6  C   UNL     1      32.027  -9.051 -22.290  0.00  0.00    +0.171 C 
ATOM      7  C   UNL     1      31.872  -8.745 -20.794  0.00  0.00    +0.116 C 
ATOM      8  C   UNL     1      33.821  -8.856 -23.248  0.00  0.00    +0.339 C 
ATOM      9  C   UNL     1      32.673  -7.485 -20.493  0.00  0.00    +0.226 C 
ATOM     10  C   UNL     1      30.784  -9.575 -22.963  0.00  0.00    +0.047 C 
ATOM     11  H   UNL     1      33.574  -6.125 -21.814  0.00  0.00    +0.150 HD
ENDROOT
BRANCH   5  12
ATOM     12  C   UNL     1      32.127  -7.034 -23.976  0.00  0.00    +0.144 C 
BRANCH  12  13
ATOM     13  C   UNL     1      32.835  -5.687 -24.135  0.00  0.00    +0.051 C 
ATOM     14  C   UNL     1      33.755  -5.673 -25.370  0.00  0.00    +0.007 C 
ATOM     15  C   UNL     1      31.817  -4.576 -24.172  0.00  0.00    -0.029 C 
ATOM     16  C   UNL     1      32.983  -5.403 -26.661  0.00  0.00    +0.005 C 
ATOM     17  C   UNL     1      32.221  -4.078 -26.589  0.00  0.00    +0.026 C 
ATOM     18  C   UNL     1      31.554  -3.849 -25.267  0.00  0.00    -0.031 C 
ENDBRANCH  12  13
BRANCH  12  19
ATOM     19  O   UNL     1      30.754  -6.809 -23.686  0.00  0.00    -0.382 OA
ATOM     20  H   UNL     1      30.211  -7.433 -24.194  0.00  0.00    +0.210 HD
ENDBRANCH  12  19
ENDBRANCH   5  12
BRANCH   7  21
ATOM     21  C   UNL     1      32.287  -9.908 -19.908  0.00  0.00    +0.030 C 
BRANCH  21  23
ATOM     22 CL   UNL     1      31.789 -12.470 -20.747  0.00  0.00    -0.114 Cl
ATOM     23  C   UNL     1      31.255 -11.029 -19.853  0.00  0.00    +0.095 C 
ENDBRANCH  21  23
ENDBRANCH   7  21
TORSDOF 5
ENDMDL
MODEL 6
REMARK VINA RESULT:      -6.7      9.240     11.015
REMARK  Name = 11347535
REMARK  5 active torsions:
REMARK  status: ('A' for Active; 'I' for Inactive)
REMARK    1  A    between atoms: C_5  and  C_12
REMARK    2  A    between atoms: C_7  and  C_21
REMARK    3  A    between atoms: C_12  and  C_13
REMARK    4  A    between atoms: C_12  and  O_19
REMARK    5  A    between atoms: C_21  and  C_23
REMARK                            x       y       z     vdW  Elec       q    Type
REMARK                         _______ _______ _______ _____ _____    ______ ____
ROOT
ATOM      1  O   UNL     1      36.011 -17.633 -20.291  0.00  0.00    -0.452 OA
ATOM      2  O   UNL     1      34.845 -15.631 -20.187  0.00  0.00    -0.248 OA
ATOM      3  O   UNL     1      32.696 -20.280 -21.198  0.00  0.00    -0.275 OA
ATOM      4  N   UNL     1      33.478 -18.181 -21.883  0.00  0.00    -0.294 N 
ATOM      5  C   UNL     1      34.748 -17.474 -21.967  0.00  0.00    +0.206 C 
ATOM      6  C   UNL     1      35.831 -18.436 -21.495  0.00  0.00    +0.171 C 
ATOM      7  C   UNL     1      35.090 -19.762 -21.275  0.00  0.00    +0.116 C 
ATOM      8  C   UNL     1      35.142 -16.676 -20.720  0.00  0.00    +0.339 C 
ATOM      9  C   UNL     1      33.598 -19.488 -21.423  0.00  0.00    +0.226 C 
ATOM     10  C   UNL     1      37.131 -18.552 -22.251  0.00  0.00    +0.047 C 
ATOM     11  H   UNL     1      32.616 -17.774 -22.130  0.00  0.00    +0.150 HD
ENDROOT
BRANCH   5  12
ATOM     12  C   UNL     1      34.898 -16.764 -23.300  0.00  0.00    +0.144 C 
BRANCH  12  13
ATOM     13  C   UNL     1      33.561 -16.165 -23.741  0.00  0.00    +0.051 C 
ATOM     14  C   UNL     1      33.255 -14.852 -22.995  0.00  0.00    +0.007 C 
ATOM     15  C   UNL     1      33.552 -15.983 -25.237  0.00  0.00    -0.029 C 
ATOM     16  C   UNL     1      33.979 -13.656 -23.613  0.00  0.00    +0.005 C 
ATOM     17  C   UNL     1      33.619 -13.488 -25.090  0.00  0.00    +0.026 C 
ATOM     18  C   UNL     1      33.564 -14.785 -25.839  0.00  0.00    -0.031 C 
ENDBRANCH  12  13
BRANCH  12  19
ATOM     19  O   UNL     1      35.339 -17.694 -24.280  0.00  0.00    -0.382 OA
ATOM     20  H   UNL     1      34.849 -17.551 -25.105  0.00  0.00    +0.210 HD
ENDBRANCH  12  19
ENDBRANCH   5  12
BRANCH   7  21
ATOM     21  C   UNL     1      35.421 -20.407 -19.940  0.00  0.00    +0.030 C 
BRANCH  21  23
ATOM     22 CL   UNL     1      34.085 -22.646 -19.090  0.00  0.00    -0.114 Cl
ATOM     23  C   UNL     1      35.442 -21.932 -19.990  0.00  0.00    +0.095 C 
ENDBRANCH  21  23
ENDBRANCH   7  21
TORSDOF 5
ENDMDL
MODEL 7
REMARK VINA RESULT:      -6.4     18.603     20.276
REMARK  Name = 11347535
REMARK  5 active torsions:
REMARK  status: ('A' for Active; 'I' for Inactive)
REMARK    1  A    between atoms: C_5  and  C_12
REMARK    2  A    between atoms: C_7  and  C_21
REMARK    3  A    between atoms: C_12  and  C_13
REMARK    4  A    between atoms: C_12  and  O_19
REMARK    5  A    between atoms: C_21  and  C_23
REMARK                            x       y       z     vdW  Elec       q    Type
REMARK                         _______ _______ _______ _____ _____    ______ ____
ROOT
ATOM      1  O   UNL     1      32.751  -8.333 -23.696  0.00  0.00    -0.452 OA
ATOM      2  O   UNL     1      34.086  -6.595 -24.455  0.00  0.00    -0.248 OA
ATOM      3  O   UNL     1      32.644  -7.293 -19.486  0.00  0.00    -0.275 OA
ATOM      4  N   UNL     1      32.459  -6.199 -21.548  0.00  0.00    -0.294 N 
ATOM      5  C   UNL     1      32.043  -6.515 -22.907  0.00  0.00    +0.206 C 
ATOM      6  C   UNL     1      31.578  -7.965 -22.911  0.00  0.00    +0.171 C 
ATOM      7  C   UNL     1      31.639  -8.385 -21.436  0.00  0.00    +0.116 C 
ATOM      8  C   UNL     1      33.148  -7.037 -23.831  0.00  0.00    +0.339 C 
ATOM      9  C   UNL     1      32.317  -7.261 -20.662  0.00  0.00    +0.226 C 
ATOM     10  C   UNL     1      30.315  -8.361 -23.632  0.00  0.00    +0.047 C 
ATOM     11  H   UNL     1      32.807  -5.317 -21.282  0.00  0.00    +0.150 HD
ENDROOT
BRANCH   5  12
ATOM     12  C   UNL     1      31.142  -5.433 -23.475  0.00  0.00    +0.144 C 
BRANCH  12  13
ATOM     13  C   UNL     1      31.951  -4.172 -23.788  0.00  0.00    +0.051 C 
ATOM     14  C   UNL     1      31.886  -3.815 -25.285  0.00  0.00    +0.007 C 
ATOM     15  C   UNL     1      31.486  -3.037 -22.912  0.00  0.00    -0.029 C 
ATOM     16  C   UNL     1      30.604  -3.064 -25.644  0.00  0.00    +0.005 C 
ATOM     17  C   UNL     1      30.456  -1.786 -24.816  0.00  0.00    +0.026 C 
ATOM     18  C   UNL     1      30.830  -1.964 -23.376  0.00  0.00    -0.031 C 
ENDBRANCH  12  13
BRANCH  12  19
ATOM     19  O   UNL     1      30.133  -5.117 -22.526  0.00  0.00    -0.382 OA
ATOM     20  H   UNL     1      30.017  -4.155 -22.486  0.00  0.00    +0.210 HD
ENDBRANCH  12  19
ENDBRANCH   5  12
BRANCH   7  21
ATOM     21  C   UNL     1      32.338  -9.718 -21.231  0.00  0.00    +0.030 C 
BRANCH  21  23
ATOM     22 CL   UNL     1      31.537 -10.774 -18.830  0.00  0.00    -0.114 Cl
ATOM     23  C   UNL     1      31.444 -10.785 -20.606  0.00  0.00    +0.095 C 
ENDBRANCH  21  23
ENDBRANCH   7  21
TORSDOF 5
ENDMDL
MODEL 8
REMARK VINA RESULT:      -6.2      9.243     11.004
REMARK  Name = 11347535
REMARK  5 active torsions:
REMARK  status: ('A' for Active; 'I' for Inactive)
REMARK    1  A    between atoms: C_5  and  C_12
REMARK    2  A    between atoms: C_7  and  C_21
REMARK    3  A    between atoms: C_12  and  C_13
REMARK    4  A    between atoms: C_12  and  O_19
REMARK    5  A    between atoms: C_21  and  C_23
REMARK                            x       y       z     vdW  Elec       q    Type
REMARK                         _______ _______ _______ _____ _____    ______ ____
ROOT
ATOM      1  O   UNL     1      33.978 -19.298 -22.865  0.00  0.00    -0.452 OA
ATOM      2  O   UNL     1      34.442 -18.295 -24.903  0.00  0.00    -0.248 OA
ATOM      3  O   UNL     1      37.983 -19.292 -21.199  0.00  0.00    -0.275 OA
ATOM      4  N   UNL     1      36.590 -17.819 -22.371  0.00  0.00    -0.294 N 
ATOM      5  C   UNL     1      35.163 -17.588 -22.547  0.00  0.00    +0.206 C 
ATOM      6  C   UNL     1      34.432 -18.596 -21.669  0.00  0.00    +0.171 C 
ATOM      7  C   UNL     1      35.552 -19.307 -20.897  0.00  0.00    +0.116 C 
ATOM      8  C   UNL     1      34.506 -18.358 -23.697  0.00  0.00    +0.339 C 
ATOM      9  C   UNL     1      36.881 -18.848 -21.483  0.00  0.00    +0.226 C 
ATOM     10  C   UNL     1      33.255 -18.168 -20.830  0.00  0.00    +0.047 C 
ATOM     11  H   UNL     1      37.282 -17.295 -22.836  0.00  0.00    +0.150 HD
ENDROOT
BRANCH   5  12
ATOM     12  C   UNL     1      34.825 -16.112 -22.440  0.00  0.00    +0.144 C 
BRANCH  12  13
ATOM     13  C   UNL     1      33.373 -15.864 -22.853  0.00  0.00    +0.051 C 
ATOM     14  C   UNL     1      32.555 -15.246 -21.704  0.00  0.00    +0.007 C 
ATOM     15  C   UNL     1      33.334 -15.016 -24.099  0.00  0.00    -0.029 C 
ATOM     16  C   UNL     1      32.765 -13.736 -21.593  0.00  0.00    +0.005 C 
ATOM     17  C   UNL     1      32.409 -13.026 -22.900  0.00  0.00    +0.026 C 
ATOM     18  C   UNL     1      32.890 -13.751 -24.120  0.00  0.00    -0.031 C 
ENDBRANCH  12  13
BRANCH  12  19
ATOM     19  O   UNL     1      35.687 -15.371 -23.292  0.00  0.00    -0.382 OA
ATOM     20  H   UNL     1      35.185 -14.656 -23.717  0.00  0.00    +0.210 HD
ENDBRANCH  12  19
ENDBRANCH   5  12
BRANCH   7  21
ATOM     21  C   UNL     1      35.414 -20.820 -20.918  0.00  0.00    +0.030 C 
BRANCH  21  23
ATOM     22 CL   UNL     1      33.399 -21.485 -19.181  0.00  0.00    -0.114 Cl
ATOM     23  C   UNL     1      35.139 -21.425 -19.545  0.00  0.00    +0.095 C 
ENDBRANCH  21  23
ENDBRANCH   7  21
TORSDOF 5
ENDMDL
MODEL 9
REMARK VINA RESULT:      -6.1      3.911      6.909
REMARK  Name = 11347535
REMARK  5 active torsions:
REMARK  status: ('A' for Active; 'I' for Inactive)
REMARK    1  A    between atoms: C_5  and  C_12
REMARK    2  A    between atoms: C_7  and  C_21
REMARK    3  A    between atoms: C_12  and  C_13
REMARK    4  A    between atoms: C_12  and  O_19
REMARK    5  A    between atoms: C_21  and  C_23
REMARK                            x       y       z     vdW  Elec       q    Type
REMARK                         _______ _______ _______ _____ _____    ______ ____
ROOT
ATOM      1  O   UNL     1      30.853 -22.630 -16.736  0.00  0.00    -0.452 OA
ATOM      2  O   UNL     1      32.925 -23.286 -17.542  0.00  0.00    -0.248 OA
ATOM      3  O   UNL     1      29.599 -26.398 -14.991  0.00  0.00    -0.275 OA
ATOM      4  N   UNL     1      31.537 -25.085 -15.075  0.00  0.00    -0.294 N 
ATOM      5  C   UNL     1      31.885 -23.680 -15.232  0.00  0.00    +0.206 C 
ATOM      6  C   UNL     1      30.580 -22.900 -15.329  0.00  0.00    +0.171 C 
ATOM      7  C   UNL     1      29.491 -23.952 -15.079  0.00  0.00    +0.116 C 
ATOM      8  C   UNL     1      32.085 -23.207 -16.675  0.00  0.00    +0.339 C 
ATOM      9  C   UNL     1      30.166 -25.318 -15.050  0.00  0.00    +0.226 C 
ATOM     10  C   UNL     1      30.403 -21.610 -14.568  0.00  0.00    +0.047 C 
ATOM     11  H   UNL     1      32.207 -25.801 -14.994  0.00  0.00    +0.150 HD
ENDROOT
BRANCH   5  12
ATOM     12  C   UNL     1      32.944 -23.258 -14.229  0.00  0.00    +0.144 C 
BRANCH  12  13
ATOM     13  C   UNL     1      34.054 -24.307 -14.149  0.00  0.00    +0.051 C 
ATOM     14  C   UNL     1      35.147 -24.057 -15.205  0.00  0.00    +0.007 C 
ATOM     15  C   UNL     1      34.614 -24.352 -12.751  0.00  0.00    -0.029 C 
ATOM     16  C   UNL     1      36.145 -22.988 -14.759  0.00  0.00    +0.005 C 
ATOM     17  C   UNL     1      36.807 -23.362 -13.431  0.00  0.00    +0.026 C 
ATOM     18  C   UNL     1      35.850 -23.942 -12.434  0.00  0.00    -0.031 C 
ENDBRANCH  12  13
BRANCH  12  19
ATOM     19  O   UNL     1      32.345 -23.112 -12.949  0.00  0.00    -0.382 OA
ATOM     20  H   UNL     1      32.709 -23.778 -12.344  0.00  0.00    +0.210 HD
ENDBRANCH  12  19
ENDBRANCH   5  12
BRANCH   7  21
ATOM     21  C   UNL     1      28.369 -23.893 -16.101  0.00  0.00    +0.030 C 
BRANCH  21  23
ATOM     22 CL   UNL     1      26.998 -21.972 -17.495  0.00  0.00    -0.114 Cl
ATOM     23  C   UNL     1      27.454 -22.685 -15.932  0.00  0.00    +0.095 C 
ENDBRANCH  21  23
ENDBRANCH   7  21
TORSDOF 5
ENDMDL
