MODEL 1
REMARK VINA RESULT:     -11.7      0.000      0.000
REMARK  Name = 9801640
REMARK  6 active torsions:
REMARK  status: ('A' for Active; 'I' for Inactive)
REMARK    1  A    between atoms: C_1  and  C_2
REMARK    2  A    between atoms: C_1  and  C_16
REMARK    3  A    between atoms: C_2  and  N_3
REMARK    4  A    between atoms: C_7  and  C_11
REMARK    5  A    between atoms: C_16  and  C_17
REMARK    6  A    between atoms: C_17  and  N_21
REMARK                            x       y       z     vdW  Elec       q    Type
REMARK                         _______ _______ _______ _____ _____    ______ ____
ROOT
ATOM      1  C   UNL     1      32.890 -13.618 -23.639  0.00  0.00    -0.021 C 
ENDROOT
BRANCH   1   2
ATOM      2  C   UNL     1      34.203 -14.392 -23.746  0.00  0.00    -0.077 C 
BRANCH   2   3
ATOM      3  N   UNL     1      34.096 -15.672 -23.051  0.00  0.00    +0.390 N 
ATOM      4  C   UNL     1      34.882 -16.709 -23.726  0.00  0.00    -0.072 C 
ATOM      5  C   UNL     1      34.510 -15.539 -21.645  0.00  0.00    -0.051 C 
ATOM      6  C   UNL     1      34.617 -18.074 -23.073  0.00  0.00    +0.005 C 
ATOM      7  C   UNL     1      34.708 -18.033 -21.564  0.00  0.00    -0.013 C 
ATOM      8  C   UNL     1      34.659 -16.850 -20.923  0.00  0.00    -0.052 C 
ATOM      9  H   UNL     1      33.117 -15.958 -23.070  0.00  0.00    -0.079 HD
BRANCH   7  11
ATOM     10  N   UNL     1      36.104 -19.680 -20.498  0.00  0.00    -0.244 NA
ATOM     11  C   UNL     1      34.844 -19.316 -20.832  0.00  0.00    +0.077 C 
ATOM     12  C   UNL     1      33.717 -20.066 -20.531  0.00  0.00    +0.019 C 
ATOM     13  C   UNL     1      33.894 -21.263 -19.844  0.00  0.00    +0.003 C 
ATOM     14  C   UNL     1      36.236 -20.850 -19.833  0.00  0.00    +0.099 C 
ATOM     15  C   UNL     1      35.175 -21.669 -19.485  0.00  0.00    +0.021 C 
ENDBRANCH   7  11
ENDBRANCH   2   3
ENDBRANCH   1   2
BRANCH   1  16
ATOM     16  C   UNL     1      33.088 -12.297 -22.889  0.00  0.00    +0.020 C 
BRANCH  16  17
ATOM     17  C   UNL     1      31.792 -11.760 -22.292  0.00  0.00    +0.099 C 
BRANCH  17  21
ATOM     18 CL   UNL     1      31.101 -11.154 -19.503  0.00  0.00    -0.062 Cl
ATOM     19  O   UNL     1      32.905  -7.828 -20.661  0.00  0.00    -0.448 OA
ATOM     20  O   UNL     1      32.359  -9.795 -24.154  0.00  0.00    -0.269 OA
ATOM     21  N   UNL     1      31.886 -10.337 -21.933  0.00  0.00    -0.244 N 
ATOM     22  C   UNL     1      32.077  -9.439 -23.007  0.00  0.00    +0.256 C 
ATOM     23  C   UNL     1      31.790  -9.981 -20.590  0.00  0.00    +0.151 C 
ATOM     24  C   UNL     1      31.835  -7.988 -22.830  0.00  0.00    +0.088 C 
ATOM     25  C   UNL     1      32.253  -7.261 -21.719  0.00  0.00    +0.150 C 
ATOM     26  C   UNL     1      32.240  -8.847 -20.039  0.00  0.00    +0.206 C 
ATOM     27  C   UNL     1      31.201  -7.308 -23.884  0.00  0.00    +0.008 C 
ATOM     28  C   UNL     1      32.067  -5.875 -21.663  0.00  0.00    +0.038 C 
ATOM     29  C   UNL     1      30.995  -5.928 -23.819  0.00  0.00    +0.000 C 
ATOM     30  C   UNL     1      31.432  -5.211 -22.709  0.00  0.00    +0.003 C 
ENDBRANCH  17  21
ENDBRANCH  16  17
ENDBRANCH   1  16
TORSDOF 6
ENDMDL
MODEL 2
REMARK VINA RESULT:     -11.7      2.357      3.364
REMARK  Name = 9801640
REMARK  6 active torsions:
REMARK  status: ('A' for Active; 'I' for Inactive)
REMARK    1  A    between atoms: C_1  and  C_2
REMARK    2  A    between atoms: C_1  and  C_16
REMARK    3  A    between atoms: C_2  and  N_3
REMARK    4  A    between atoms: C_7  and  C_11
REMARK    5  A    between atoms: C_16  and  C_17
REMARK    6  A    between atoms: C_17  and  N_21
REMARK                            x       y       z     vdW  Elec       q    Type
REMARK                         _______ _______ _______ _____ _____    ______ ____
ROOT
ATOM      1  C   UNL     1      33.130 -15.331 -25.661  0.00  0.00    -0.021 C 
ENDROOT
BRANCH   1   2
ATOM      2  C   UNL     1      34.448 -15.760 -25.017  0.00  0.00    -0.077 C 
BRANCH   2   3
ATOM      3  N   UNL     1      34.214 -16.821 -24.040  0.00  0.00    +0.390 N 
ATOM      4  C   UNL     1      34.944 -18.041 -24.397  0.00  0.00    -0.072 C 
ATOM      5  C   UNL     1      34.579 -16.374 -22.686  0.00  0.00    -0.051 C 
ATOM      6  C   UNL     1      34.548 -19.184 -23.450  0.00  0.00    +0.005 C 
ATOM      7  C   UNL     1      34.580 -18.780 -21.993  0.00  0.00    -0.013 C 
ATOM      8  C   UNL     1      34.596 -17.476 -21.661  0.00  0.00    -0.052 C 
ATOM      9  H   UNL     1      33.217 -17.039 -24.047  0.00  0.00    -0.079 HD
BRANCH   7  11
ATOM     10  N   UNL     1      35.803 -20.275 -20.557  0.00  0.00    -0.244 NA
ATOM     11  C   UNL     1      34.586 -19.851 -20.967  0.00  0.00    +0.077 C 
ATOM     12  C   UNL     1      33.388 -20.358 -20.485  0.00  0.00    +0.019 C 
ATOM     13  C   UNL     1      33.444 -21.362 -19.524  0.00  0.00    +0.003 C 
ATOM     14  C   UNL     1      35.818 -21.253 -19.622  0.00  0.00    +0.099 C 
ATOM     15  C   UNL     1      34.678 -21.823 -19.079  0.00  0.00    +0.021 C 
ENDBRANCH   7  11
ENDBRANCH   2   3
ENDBRANCH   1   2
BRANCH   1  16
ATOM     16  C   UNL     1      32.865 -13.840 -25.433  0.00  0.00    +0.020 C 
BRANCH  16  17
ATOM     17  C   UNL     1      33.860 -13.208 -24.466  0.00  0.00    +0.099 C 
BRANCH  17  21
ATOM     18 CL   UNL     1      34.944 -10.521 -24.953  0.00  0.00    -0.062 Cl
ATOM     19  O   UNL     1      31.625  -9.736 -22.947  0.00  0.00    -0.448 OA
ATOM     20  O   UNL     1      32.006 -13.737 -22.483  0.00  0.00    -0.269 OA
ATOM     21  N   UNL     1      33.253 -12.145 -23.651  0.00  0.00    -0.244 N 
ATOM     22  C   UNL     1      32.404 -12.575 -22.607  0.00  0.00    +0.256 C 
ATOM     23  C   UNL     1      33.544 -10.819 -23.961  0.00  0.00    +0.151 C 
ATOM     24  C   UNL     1      32.022 -11.650 -21.514  0.00  0.00    +0.088 C 
ATOM     25  C   UNL     1      31.647 -10.325 -21.714  0.00  0.00    +0.150 C 
ATOM     26  C   UNL     1      32.810  -9.750 -23.626  0.00  0.00    +0.206 C 
ATOM     27  C   UNL     1      31.980 -12.175 -20.211  0.00  0.00    +0.008 C 
ATOM     28  C   UNL     1      31.214  -9.537 -20.642  0.00  0.00    +0.038 C 
ATOM     29  C   UNL     1      31.569 -11.383 -19.137  0.00  0.00    +0.000 C 
ATOM     30  C   UNL     1      31.182 -10.065 -19.354  0.00  0.00    +0.003 C 
ENDBRANCH  17  21
ENDBRANCH  16  17
ENDBRANCH   1  16
TORSDOF 6
ENDMDL
MODEL 3
REMARK VINA RESULT:     -11.6      1.960      2.573
REMARK  Name = 9801640
REMARK  6 active torsions:
REMARK  status: ('A' for Active; 'I' for Inactive)
REMARK    1  A    between atoms: C_1  and  C_2
REMARK    2  A    between atoms: C_1  and  C_16
REMARK    3  A    between atoms: C_2  and  N_3
REMARK    4  A    between atoms: C_7  and  C_11
REMARK    5  A    between atoms: C_16  and  C_17
REMARK    6  A    between atoms: C_17  and  N_21
REMARK                            x       y       z     vdW  Elec       q    Type
REMARK                         _______ _______ _______ _____ _____    ______ ____
ROOT
ATOM      1  C   UNL     1      33.266 -14.364 -23.784  0.00  0.00    -0.021 C 
ENDROOT
BRANCH   1   2
ATOM      2  C   UNL     1      34.294 -15.423 -24.177  0.00  0.00    -0.077 C 
BRANCH   2   3
ATOM      3  N   UNL     1      34.174 -16.593 -23.310  0.00  0.00    +0.390 N 
ATOM      4  C   UNL     1      34.943 -17.724 -23.837  0.00  0.00    -0.072 C 
ATOM      5  C   UNL     1      34.598 -16.271 -21.938  0.00  0.00    -0.051 C 
ATOM      6  C   UNL     1      34.665 -18.981 -22.999  0.00  0.00    +0.005 C 
ATOM      7  C   UNL     1      34.765 -18.732 -21.510  0.00  0.00    -0.013 C 
ATOM      8  C   UNL     1      34.735 -17.471 -21.040  0.00  0.00    -0.052 C 
ATOM      9  H   UNL     1      33.192 -16.866 -23.286  0.00  0.00    -0.079 HD
BRANCH   7  11
ATOM     10  N   UNL     1      36.139 -20.197 -20.183  0.00  0.00    -0.244 NA
ATOM     11  C   UNL     1      34.889 -19.902 -20.608  0.00  0.00    +0.077 C 
ATOM     12  C   UNL     1      33.760 -20.624 -20.247  0.00  0.00    +0.019 C 
ATOM     13  C   UNL     1      33.926 -21.714 -19.400  0.00  0.00    +0.003 C 
ATOM     14  C   UNL     1      36.261 -21.264 -19.361  0.00  0.00    +0.099 C 
ATOM     15  C   UNL     1      35.197 -22.046 -18.944  0.00  0.00    +0.021 C 
ENDBRANCH   7  11
ENDBRANCH   2   3
ENDBRANCH   1   2
BRANCH   1  16
ATOM     16  C   UNL     1      33.935 -13.006 -23.548  0.00  0.00    +0.020 C 
BRANCH  16  17
ATOM     17  C   UNL     1      33.435 -11.931 -24.506  0.00  0.00    +0.099 C 
BRANCH  17  21
ATOM     18 CL   UNL     1      35.676 -10.141 -25.140  0.00  0.00    -0.062 Cl
ATOM     19  O   UNL     1      33.022  -7.646 -23.595  0.00  0.00    -0.448 OA
ATOM     20  O   UNL     1      31.456 -11.266 -22.692  0.00  0.00    -0.269 OA
ATOM     21  N   UNL     1      33.359 -10.606 -23.872  0.00  0.00    -0.244 N 
ATOM     22  C   UNL     1      32.358 -10.447 -22.888  0.00  0.00    +0.256 C 
ATOM     23  C   UNL     1      34.254  -9.620 -24.281  0.00  0.00    +0.151 C 
ATOM     24  C   UNL     1      32.403  -9.307 -21.942  0.00  0.00    +0.088 C 
ATOM     25  C   UNL     1      32.705  -8.001 -22.314  0.00  0.00    +0.150 C 
ATOM     26  C   UNL     1      34.093  -8.298 -24.137  0.00  0.00    +0.206 C 
ATOM     27  C   UNL     1      32.057  -9.567 -20.605  0.00  0.00    +0.008 C 
ATOM     28  C   UNL     1      32.641  -6.961 -21.380  0.00  0.00    +0.038 C 
ATOM     29  C   UNL     1      32.014  -8.534 -19.667  0.00  0.00    +0.000 C 
ATOM     30  C   UNL     1      32.302  -7.230 -20.056  0.00  0.00    +0.003 C 
ENDBRANCH  17  21
ENDBRANCH  16  17
ENDBRANCH   1  16
TORSDOF 6
ENDMDL
MODEL 4
REMARK VINA RESULT:     -11.6      4.327     11.277
REMARK  Name = 9801640
REMARK  6 active torsions:
REMARK  status: ('A' for Active; 'I' for Inactive)
REMARK    1  A    between atoms: C_1  and  C_2
REMARK    2  A    between atoms: C_1  and  C_16
REMARK    3  A    between atoms: C_2  and  N_3
REMARK    4  A    between atoms: C_7  and  C_11
REMARK    5  A    between atoms: C_16  and  C_17
REMARK    6  A    between atoms: C_17  and  N_21
REMARK                            x       y       z     vdW  Elec       q    Type
REMARK                         _______ _______ _______ _____ _____    ______ ____
ROOT
ATOM      1  C   UNL     1      35.609 -18.223 -23.703  0.00  0.00    -0.021 C 
ENDROOT
BRANCH   1   2
ATOM      2  C   UNL     1      34.554 -17.732 -24.694  0.00  0.00    -0.077 C 
BRANCH   2   3
ATOM      3  N   UNL     1      34.001 -16.453 -24.253  0.00  0.00    +0.390 N 
ATOM      4  C   UNL     1      34.948 -15.733 -23.397  0.00  0.00    -0.072 C 
ATOM      5  C   UNL     1      33.612 -15.628 -25.407  0.00  0.00    -0.051 C 
ATOM      6  C   UNL     1      34.279 -14.478 -22.817  0.00  0.00    +0.005 C 
ATOM      7  C   UNL     1      33.555 -13.659 -23.862  0.00  0.00    -0.013 C 
ATOM      8  C   UNL     1      33.258 -14.208 -25.054  0.00  0.00    -0.052 C 
ATOM      9  H   UNL     1      33.165 -16.647 -23.701  0.00  0.00    -0.079 HD
BRANCH   7  11
ATOM     10  N   UNL     1      32.198 -12.105 -22.621  0.00  0.00    -0.244 NA
ATOM     11  C   UNL     1      33.189 -12.261 -23.529  0.00  0.00    +0.077 C 
ATOM     12  C   UNL     1      33.851 -11.205 -24.139  0.00  0.00    +0.019 C 
ATOM     13  C   UNL     1      33.471  -9.912 -23.796  0.00  0.00    +0.003 C 
ATOM     14  C   UNL     1      31.856 -10.833 -22.314  0.00  0.00    +0.099 C 
ATOM     15  C   UNL     1      32.456  -9.714 -22.867  0.00  0.00    +0.021 C 
ENDBRANCH   7  11
ENDBRANCH   2   3
ENDBRANCH   1   2
BRANCH   1  16
ATOM     16  C   UNL     1      35.040 -19.309 -22.784  0.00  0.00    +0.020 C 
BRANCH  16  17
ATOM     17  C   UNL     1      35.620 -19.248 -21.376  0.00  0.00    +0.099 C 
BRANCH  17  21
ATOM     18 CL   UNL     1      32.790 -18.665 -20.850  0.00  0.00    -0.062 Cl
ATOM     19  O   UNL     1      33.148 -22.367 -19.499  0.00  0.00    -0.448 OA
ATOM     20  O   UNL     1      36.998 -21.267 -20.081  0.00  0.00    -0.269 OA
ATOM     21  N   UNL     1      34.962 -20.188 -20.457  0.00  0.00    -0.244 N 
ATOM     22  C   UNL     1      35.811 -21.098 -19.788  0.00  0.00    +0.256 C 
ATOM     23  C   UNL     1      33.577 -20.123 -20.317  0.00  0.00    +0.151 C 
ATOM     24  C   UNL     1      35.335 -21.840 -18.597  0.00  0.00    +0.088 C 
ATOM     25  C   UNL     1      34.082 -22.436 -18.504  0.00  0.00    +0.150 C 
ATOM     26  C   UNL     1      32.781 -21.105 -19.873  0.00  0.00    +0.206 C 
ATOM     27  C   UNL     1      36.239 -21.996 -17.532  0.00  0.00    +0.008 C 
ATOM     28  C   UNL     1      33.735 -23.196 -17.381  0.00  0.00    +0.038 C 
ATOM     29  C   UNL     1      35.888 -22.736 -16.402  0.00  0.00    +0.000 C 
ATOM     30  C   UNL     1      34.636 -23.340 -16.328  0.00  0.00    +0.003 C 
ENDBRANCH  17  21
ENDBRANCH  16  17
ENDBRANCH   1  16
TORSDOF 6
ENDMDL
MODEL 5
REMARK VINA RESULT:     -11.1      3.207     10.690
REMARK  Name = 9801640
REMARK  6 active torsions:
REMARK  status: ('A' for Active; 'I' for Inactive)
REMARK    1  A    between atoms: C_1  and  C_2
REMARK    2  A    between atoms: C_1  and  C_16
REMARK    3  A    between atoms: C_2  and  N_3
REMARK    4  A    between atoms: C_7  and  C_11
REMARK    5  A    between atoms: C_16  and  C_17
REMARK    6  A    between atoms: C_17  and  N_21
REMARK                            x       y       z     vdW  Elec       q    Type
REMARK                         _______ _______ _______ _____ _____    ______ ____
ROOT
ATOM      1  C   UNL     1      33.407 -14.905 -23.880  0.00  0.00    -0.021 C 
ENDROOT
BRANCH   1   2
ATOM      2  C   UNL     1      33.945 -13.735 -24.703  0.00  0.00    -0.077 C 
BRANCH   2   3
ATOM      3  N   UNL     1      33.842 -12.491 -23.943  0.00  0.00    +0.390 N 
ATOM      4  C   UNL     1      33.903 -11.323 -24.827  0.00  0.00    -0.072 C 
ATOM      5  C   UNL     1      32.609 -12.471 -23.140  0.00  0.00    -0.051 C 
ATOM      6  C   UNL     1      33.961 -10.037 -23.990  0.00  0.00    +0.005 C 
ATOM      7  C   UNL     1      32.920  -9.999 -22.894  0.00  0.00    -0.013 C 
ATOM      8  C   UNL     1      32.305 -11.135 -22.517  0.00  0.00    -0.052 C 
ATOM      9  H   UNL     1      34.638 -12.445 -23.307  0.00  0.00    -0.079 HD
BRANCH   7  11
ATOM     10  N   UNL     1      32.431  -8.712 -20.919  0.00  0.00    -0.244 NA
ATOM     11  C   UNL     1      32.614  -8.694 -22.259  0.00  0.00    +0.077 C 
ATOM     12  C   UNL     1      32.530  -7.547 -23.035  0.00  0.00    +0.019 C 
ATOM     13  C   UNL     1      32.240  -6.346 -22.396  0.00  0.00    +0.003 C 
ATOM     14  C   UNL     1      32.150  -7.526 -20.332  0.00  0.00    +0.099 C 
ATOM     15  C   UNL     1      32.046  -6.327 -21.019  0.00  0.00    +0.021 C 
ENDBRANCH   7  11
ENDBRANCH   2   3
ENDBRANCH   1   2
BRANCH   1  16
ATOM     16  C   UNL     1      34.464 -16.002 -23.725  0.00  0.00    +0.020 C 
BRANCH  16  17
ATOM     17  C   UNL     1      34.991 -16.113 -22.299  0.00  0.00    +0.099 C 
BRANCH  17  21
ATOM     18 CL   UNL     1      32.548 -15.917 -20.680  0.00  0.00    -0.062 Cl
ATOM     19  O   UNL     1      32.999 -19.831 -21.049  0.00  0.00    -0.448 OA
ATOM     20  O   UNL     1      36.532 -18.407 -22.412  0.00  0.00    -0.269 OA
ATOM     21  N   UNL     1      34.587 -17.367 -21.646  0.00  0.00    -0.244 N 
ATOM     22  C   UNL     1      35.524 -18.422 -21.701  0.00  0.00    +0.256 C 
ATOM     23  C   UNL     1      33.334 -17.429 -21.040  0.00  0.00    +0.151 C 
ATOM     24  C   UNL     1      35.398 -19.592 -20.799  0.00  0.00    +0.088 C 
ATOM     25  C   UNL     1      34.195 -20.237 -20.529  0.00  0.00    +0.150 C 
ATOM     26  C   UNL     1      32.643 -18.543 -20.768  0.00  0.00    +0.206 C 
ATOM     27  C   UNL     1      36.581 -20.105 -20.242  0.00  0.00    +0.008 C 
ATOM     28  C   UNL     1      34.167 -21.390 -19.736  0.00  0.00    +0.038 C 
ATOM     29  C   UNL     1      36.553 -21.244 -19.433  0.00  0.00    +0.000 C 
ATOM     30  C   UNL     1      35.345 -21.888 -19.184  0.00  0.00    +0.003 C 
ENDBRANCH  17  21
ENDBRANCH  16  17
ENDBRANCH   1  16
TORSDOF 6
ENDMDL
MODEL 6
REMARK VINA RESULT:     -11.1      7.334     13.036
REMARK  Name = 9801640
REMARK  6 active torsions:
REMARK  status: ('A' for Active; 'I' for Inactive)
REMARK    1  A    between atoms: C_1  and  C_2
REMARK    2  A    between atoms: C_1  and  C_16
REMARK    3  A    between atoms: C_2  and  N_3
REMARK    4  A    between atoms: C_7  and  C_11
REMARK    5  A    between atoms: C_16  and  C_17
REMARK    6  A    between atoms: C_17  and  N_21
REMARK                            x       y       z     vdW  Elec       q    Type
REMARK                         _______ _______ _______ _____ _____    ______ ____
ROOT
ATOM      1  C   UNL     1      36.891 -21.563 -17.217  0.00  0.00    -0.021 C 
ENDROOT
BRANCH   1   2
ATOM      2  C   UNL     1      36.021 -21.945 -18.414  0.00  0.00    -0.077 C 
BRANCH   2   3
ATOM      3  N   UNL     1      35.755 -20.772 -19.243  0.00  0.00    +0.390 N 
ATOM      4  C   UNL     1      36.856 -20.525 -20.179  0.00  0.00    -0.072 C 
ATOM      5  C   UNL     1      34.482 -20.922 -19.967  0.00  0.00    -0.051 C 
ATOM      6  C   UNL     1      36.627 -19.197 -20.917  0.00  0.00    +0.005 C 
ATOM      7  C   UNL     1      35.226 -19.066 -21.472  0.00  0.00    -0.013 C 
ATOM      8  C   UNL     1      34.249 -19.874 -21.022  0.00  0.00    -0.052 C 
ATOM      9  H   UNL     1      35.680 -19.963 -18.627  0.00  0.00    -0.079 HD
BRANCH   7  11
ATOM     10  N   UNL     1      34.791 -16.770 -22.052  0.00  0.00    -0.244 NA
ATOM     11  C   UNL     1      34.974 -18.031 -22.505  0.00  0.00    +0.077 C 
ATOM     12  C   UNL     1      34.936 -18.384 -23.846  0.00  0.00    +0.019 C 
ATOM     13  C   UNL     1      34.695 -17.380 -24.778  0.00  0.00    +0.003 C 
ATOM     14  C   UNL     1      34.558 -15.821 -22.987  0.00  0.00    +0.099 C 
ATOM     15  C   UNL     1      34.502 -16.071 -24.348  0.00  0.00    +0.021 C 
ENDBRANCH   7  11
ENDBRANCH   2   3
ENDBRANCH   1   2
BRANCH   1  16
ATOM     16  C   UNL     1      36.424 -22.277 -15.945  0.00  0.00    +0.020 C 
BRANCH  16  17
ATOM     17  C   UNL     1      35.688 -23.580 -16.240  0.00  0.00    +0.099 C 
BRANCH  17  21
ATOM     18 CL   UNL     1      36.245 -25.120 -13.802  0.00  0.00    -0.062 Cl
ATOM     19  O   UNL     1      32.725 -23.506 -12.989  0.00  0.00    -0.448 OA
ATOM     20  O   UNL     1      33.143 -22.758 -16.943  0.00  0.00    -0.269 OA
ATOM     21  N   UNL     1      34.525 -23.779 -15.363  0.00  0.00    -0.244 N 
ATOM     22  C   UNL     1      33.274 -23.404 -15.900  0.00  0.00    +0.256 C 
ATOM     23  C   UNL     1      34.734 -24.305 -14.089  0.00  0.00    +0.151 C 
ATOM     24  C   UNL     1      32.013 -23.872 -15.276  0.00  0.00    +0.088 C 
ATOM     25  C   UNL     1      31.787 -23.891 -13.903  0.00  0.00    +0.150 C 
ATOM     26  C   UNL     1      33.910 -24.184 -13.040  0.00  0.00    +0.206 C 
ATOM     27  C   UNL     1      30.973 -24.257 -16.139  0.00  0.00    +0.008 C 
ATOM     28  C   UNL     1      30.538 -24.264 -13.392  0.00  0.00    +0.038 C 
ATOM     29  C   UNL     1      29.734 -24.650 -15.629  0.00  0.00    +0.000 C 
ATOM     30  C   UNL     1      29.516 -24.650 -14.255  0.00  0.00    +0.003 C 
ENDBRANCH  17  21
ENDBRANCH  16  17
ENDBRANCH   1  16
TORSDOF 6
ENDMDL
MODEL 7
REMARK VINA RESULT:     -11.0      6.852     13.225
REMARK  Name = 9801640
REMARK  6 active torsions:
REMARK  status: ('A' for Active; 'I' for Inactive)
REMARK    1  A    between atoms: C_1  and  C_2
REMARK    2  A    between atoms: C_1  and  C_16
REMARK    3  A    between atoms: C_2  and  N_3
REMARK    4  A    between atoms: C_7  and  C_11
REMARK    5  A    between atoms: C_16  and  C_17
REMARK    6  A    between atoms: C_17  and  N_21
REMARK                            x       y       z     vdW  Elec       q    Type
REMARK                         _______ _______ _______ _____ _____    ______ ____
ROOT
ATOM      1  C   UNL     1      34.029 -22.634 -19.164  0.00  0.00    -0.021 C 
ENDROOT
BRANCH   1   2
ATOM      2  C   UNL     1      35.389 -22.009 -19.472  0.00  0.00    -0.077 C 
BRANCH   2   3
ATOM      3  N   UNL     1      35.229 -20.605 -19.841  0.00  0.00    +0.390 N 
ATOM      4  C   UNL     1      36.289 -20.174 -20.759  0.00  0.00    -0.072 C 
ATOM      5  C   UNL     1      33.902 -20.368 -20.431  0.00  0.00    -0.051 C 
ATOM      6  C   UNL     1      36.192 -18.660 -20.995  0.00  0.00    +0.005 C 
ATOM      7  C   UNL     1      34.788 -18.202 -21.323  0.00  0.00    -0.013 C 
ATOM      8  C   UNL     1      33.743 -19.008 -21.056  0.00  0.00    -0.052 C 
ATOM      9  H   UNL     1      35.306 -20.046 -18.991  0.00  0.00    -0.079 HD
BRANCH   7  11
ATOM     10  N   UNL     1      34.617 -16.812 -23.281  0.00  0.00    -0.244 NA
ATOM     11  C   UNL     1      34.609 -16.861 -21.929  0.00  0.00    +0.077 C 
ATOM     12  C   UNL     1      34.447 -15.747 -21.116  0.00  0.00    +0.019 C 
ATOM     13  C   UNL     1      34.283 -14.510 -21.730  0.00  0.00    +0.003 C 
ATOM     14  C   UNL     1      34.456 -15.592 -23.841  0.00  0.00    +0.099 C 
ATOM     15  C   UNL     1      34.287 -14.422 -23.118  0.00  0.00    +0.021 C 
ENDBRANCH   7  11
ENDBRANCH   2   3
ENDBRANCH   1   2
BRANCH   1  16
ATOM     16  C   UNL     1      33.669 -22.468 -17.684  0.00  0.00    +0.020 C 
BRANCH  16  17
ATOM     17  C   UNL     1      33.279 -23.786 -17.023  0.00  0.00    +0.099 C 
BRANCH  17  21
ATOM     18 CL   UNL     1      31.168 -22.739 -15.270  0.00  0.00    -0.062 Cl
ATOM     19  O   UNL     1      33.525 -24.626 -12.712  0.00  0.00    -0.448 OA
ATOM     20  O   UNL     1      35.763 -24.555 -16.081  0.00  0.00    -0.269 OA
ATOM     21  N   UNL     1      33.604 -23.813 -15.590  0.00  0.00    -0.244 N 
ATOM     22  C   UNL     1      34.943 -24.125 -15.265  0.00  0.00    +0.256 C 
ATOM     23  C   UNL     1      32.592 -23.542 -14.671  0.00  0.00    +0.151 C 
ATOM     24  C   UNL     1      35.478 -23.841 -13.912  0.00  0.00    +0.088 C 
ATOM     25  C   UNL     1      34.787 -24.105 -12.734  0.00  0.00    +0.150 C 
ATOM     26  C   UNL     1      32.579 -23.902 -13.382  0.00  0.00    +0.206 C 
ATOM     27  C   UNL     1      36.787 -23.336 -13.831  0.00  0.00    +0.008 C 
ATOM     28  C   UNL     1      35.393 -23.892 -11.490  0.00  0.00    +0.038 C 
ATOM     29  C   UNL     1      37.385 -23.103 -12.590  0.00  0.00    +0.000 C 
ATOM     30  C   UNL     1      36.688 -23.385 -11.420  0.00  0.00    +0.003 C 
ENDBRANCH  17  21
ENDBRANCH  16  17
ENDBRANCH   1  16
TORSDOF 6
ENDMDL
MODEL 8
REMARK VINA RESULT:     -11.0      2.773     11.160
REMARK  Name = 9801640
REMARK  6 active torsions:
REMARK  status: ('A' for Active; 'I' for Inactive)
REMARK    1  A    between atoms: C_1  and  C_2
REMARK    2  A    between atoms: C_1  and  C_16
REMARK    3  A    between atoms: C_2  and  N_3
REMARK    4  A    between atoms: C_7  and  C_11
REMARK    5  A    between atoms: C_16  and  C_17
REMARK    6  A    between atoms: C_17  and  N_21
REMARK                            x       y       z     vdW  Elec       q    Type
REMARK                         _______ _______ _______ _____ _____    ______ ____
ROOT
ATOM      1  C   UNL     1      31.492 -11.934 -22.094  0.00  0.00    -0.021 C 
ENDROOT
BRANCH   1   2
ATOM      2  C   UNL     1      31.831 -10.864 -21.057  0.00  0.00    -0.077 C 
BRANCH   2   3
ATOM      3  N   UNL     1      31.563  -9.533 -21.597  0.00  0.00    +0.390 N 
ATOM      4  C   UNL     1      32.425  -8.525 -20.972  0.00  0.00    -0.072 C 
ATOM      5  C   UNL     1      31.724  -9.521 -23.059  0.00  0.00    -0.051 C 
ATOM      6  C   UNL     1      32.007  -7.121 -21.435  0.00  0.00    +0.005 C 
ATOM      7  C   UNL     1      31.829  -7.022 -22.934  0.00  0.00    -0.013 C 
ATOM      8  C   UNL     1      31.703  -8.144 -23.667  0.00  0.00    -0.052 C 
ATOM      9  H   UNL     1      30.595  -9.295 -21.379  0.00  0.00    -0.079 HD
BRANCH   7  11
ATOM     10  N   UNL     1      31.357  -4.668 -22.758  0.00  0.00    -0.244 NA
ATOM     11  C   UNL     1      31.794  -5.674 -23.550  0.00  0.00    +0.077 C 
ATOM     12  C   UNL     1      32.194  -5.502 -24.868  0.00  0.00    +0.019 C 
ATOM     13  C   UNL     1      32.143  -4.219 -25.403  0.00  0.00    +0.003 C 
ATOM     14  C   UNL     1      31.320  -3.435 -23.314  0.00  0.00    +0.099 C 
ATOM     15  C   UNL     1      31.699  -3.161 -24.618  0.00  0.00    +0.021 C 
ENDBRANCH   7  11
ENDBRANCH   2   3
ENDBRANCH   1   2
BRANCH   1  16
ATOM     16  C   UNL     1      32.290 -13.218 -21.843  0.00  0.00    +0.020 C 
BRANCH  16  17
ATOM     17  C   UNL     1      33.566 -13.288 -22.675  0.00  0.00    +0.099 C 
BRANCH  17  21
ATOM     18 CL   UNL     1      32.538 -14.129 -25.295  0.00  0.00    -0.062 Cl
ATOM     19  O   UNL     1      35.226 -16.925 -24.511  0.00  0.00    -0.448 OA
ATOM     20  O   UNL     1      34.889 -15.010 -20.963  0.00  0.00    -0.269 OA
ATOM     21  N   UNL     1      33.913 -14.665 -23.056  0.00  0.00    -0.244 N 
ATOM     22  C   UNL     1      34.492 -15.459 -22.041  0.00  0.00    +0.256 C 
ATOM     23  C   UNL     1      33.659 -15.079 -24.361  0.00  0.00    +0.151 C 
ATOM     24  C   UNL     1      34.557 -16.934 -22.181  0.00  0.00    +0.088 C 
ATOM     25  C   UNL     1      34.921 -17.586 -23.355  0.00  0.00    +0.150 C 
ATOM     26  C   UNL     1      34.247 -16.103 -24.993  0.00  0.00    +0.206 C 
ATOM     27  C   UNL     1      34.294 -17.701 -21.034  0.00  0.00    +0.008 C 
ATOM     28  C   UNL     1      35.046 -18.980 -23.386  0.00  0.00    +0.038 C 
ATOM     29  C   UNL     1      34.397 -19.093 -21.069  0.00  0.00    +0.000 C 
ATOM     30  C   UNL     1      34.778 -19.732 -22.245  0.00  0.00    +0.003 C 
ENDBRANCH  17  21
ENDBRANCH  16  17
ENDBRANCH   1  16
TORSDOF 6
ENDMDL
MODEL 9
REMARK VINA RESULT:     -10.8      6.636     12.772
REMARK  Name = 9801640
REMARK  6 active torsions:
REMARK  status: ('A' for Active; 'I' for Inactive)
REMARK    1  A    between atoms: C_1  and  C_2
REMARK    2  A    between atoms: C_1  and  C_16
REMARK    3  A    between atoms: C_2  and  N_3
REMARK    4  A    between atoms: C_7  and  C_11
REMARK    5  A    between atoms: C_16  and  C_17
REMARK    6  A    between atoms: C_17  and  N_21
REMARK                            x       y       z     vdW  Elec       q    Type
REMARK                         _______ _______ _______ _____ _____    ______ ____
ROOT
ATOM      1  C   UNL     1      36.388 -21.631 -18.429  0.00  0.00    -0.021 C 
ENDROOT
BRANCH   1   2
ATOM      2  C   UNL     1      35.654 -22.044 -19.704  0.00  0.00    -0.077 C 
BRANCH   2   3
ATOM      3  N   UNL     1      35.402 -20.876 -20.545  0.00  0.00    +0.390 N 
ATOM      4  C   UNL     1      34.109 -20.263 -20.228  0.00  0.00    -0.072 C 
ATOM      5  C   UNL     1      36.490 -19.894 -20.412  0.00  0.00    -0.051 C 
ATOM      6  C   UNL     1      33.799 -19.146 -21.236  0.00  0.00    +0.005 C 
ATOM      7  C   UNL     1      34.961 -18.201 -21.444  0.00  0.00    -0.013 C 
ATOM      8  C   UNL     1      36.197 -18.565 -21.054  0.00  0.00    -0.052 C 
ATOM      9  H   UNL     1      35.371 -21.190 -21.515  0.00  0.00    -0.079 HD
BRANCH   7  11
ATOM     10  N   UNL     1      34.632 -16.891 -23.437  0.00  0.00    -0.244 NA
ATOM     11  C   UNL     1      34.695 -16.890 -22.085  0.00  0.00    +0.077 C 
ATOM     12  C   UNL     1      34.528 -15.756 -21.304  0.00  0.00    +0.019 C 
ATOM     13  C   UNL     1      34.282 -14.549 -21.951  0.00  0.00    +0.003 C 
ATOM     14  C   UNL     1      34.391 -15.699 -24.030  0.00  0.00    +0.099 C 
ATOM     15  C   UNL     1      34.211 -14.512 -23.339  0.00  0.00    +0.021 C 
ENDBRANCH   7  11
ENDBRANCH   2   3
ENDBRANCH   1   2
BRANCH   1  16
ATOM     16  C   UNL     1      35.654 -22.135 -17.182  0.00  0.00    +0.020 C 
BRANCH  16  17
ATOM     17  C   UNL     1      34.645 -23.233 -17.499  0.00  0.00    +0.099 C 
BRANCH  17  21
ATOM     18 CL   UNL     1      35.893 -24.801 -15.352  0.00  0.00    -0.062 Cl
ATOM     19  O   UNL     1      32.621 -23.431 -13.597  0.00  0.00    -0.448 OA
ATOM     20  O   UNL     1      31.964 -22.553 -17.492  0.00  0.00    -0.269 OA
ATOM     21  N   UNL     1      33.760 -23.528 -16.362  0.00  0.00    -0.244 N 
ATOM     22  C   UNL     1      32.394 -23.217 -16.545  0.00  0.00    +0.256 C 
ATOM     23  C   UNL     1      34.318 -24.074 -15.208  0.00  0.00    +0.151 C 
ATOM     24  C   UNL     1      31.364 -23.780 -15.640  0.00  0.00    +0.088 C 
ATOM     25  C   UNL     1      31.501 -23.850 -14.257  0.00  0.00    +0.150 C 
ATOM     26  C   UNL     1      33.787 -24.033 -13.979  0.00  0.00    +0.206 C 
ATOM     27  C   UNL     1      30.158 -24.205 -16.223  0.00  0.00    +0.008 C 
ATOM     28  C   UNL     1      30.448 -24.313 -13.459  0.00  0.00    +0.038 C 
ATOM     29  C   UNL     1      29.115 -24.688 -15.430  0.00  0.00    +0.000 C 
ATOM     30  C   UNL     1      29.259 -24.738 -14.047  0.00  0.00    +0.003 C 
ENDBRANCH  17  21
ENDBRANCH  16  17
ENDBRANCH   1  16
TORSDOF 6
ENDMDL
