MODEL 1
REMARK VINA RESULT:      -8.5      0.000      0.000
REMARK  Name = 44585557
REMARK  2 active torsions:
REMARK  status: ('A' for Active; 'I' for Inactive)
REMARK    1  A    between atoms: N_1  and  C_9
REMARK    2  A    between atoms: N_1  and  C_10
REMARK                            x       y       z     vdW  Elec       q    Type
REMARK                         _______ _______ _______ _____ _____    ______ ____
ROOT
ATOM      1  N   UNL     1      35.737 -18.635 -21.952  0.00  0.00    -0.312 N 
ATOM      2  H   UNL     1      36.601 -18.324 -21.595  0.00  0.00    +0.152 HD
ENDROOT
BRANCH   1   9
ATOM      3  O   UNL     1      33.857 -15.310 -24.674  0.00  0.00    -0.445 OA
ATOM      4  O   UNL     1      34.830 -17.040 -25.842  0.00  0.00    -0.245 OA
ATOM      5  C   UNL     1      34.574 -15.825 -22.487  0.00  0.00    +0.082 C 
ATOM      6  C   UNL     1      34.895 -16.917 -23.431  0.00  0.00    +0.072 C 
ATOM      7  C   UNL     1      33.556 -15.055 -23.294  0.00  0.00    +0.214 C 
ATOM      8  C   UNL     1      34.547 -16.482 -24.797  0.00  0.00    +0.339 C 
ATOM      9  C   UNL     1      35.384 -18.129 -23.160  0.00  0.00    +0.064 C 
ENDBRANCH   1   9
BRANCH   1  10
ATOM     10  C   UNL     1      35.036 -19.543 -21.142  0.00  0.00    +0.048 C 
ATOM     11  C   UNL     1      33.645 -19.476 -21.062  0.00  0.00    +0.015 C 
ATOM     12  C   UNL     1      35.730 -20.512 -20.418  0.00  0.00    +0.015 C 
ATOM     13  C   UNL     1      32.949 -20.378 -20.257  0.00  0.00    +0.001 C 
ATOM     14  C   UNL     1      35.034 -21.413 -19.613  0.00  0.00    +0.001 C 
ATOM     15  C   UNL     1      33.644 -21.346 -19.532  0.00  0.00    +0.000 C 
ENDBRANCH   1  10
TORSDOF 2
ENDMDL
MODEL 2
REMARK VINA RESULT:      -8.5      0.048      1.292
REMARK  Name = 44585557
REMARK  2 active torsions:
REMARK  status: ('A' for Active; 'I' for Inactive)
REMARK    1  A    between atoms: N_1  and  C_9
REMARK    2  A    between atoms: N_1  and  C_10
REMARK                            x       y       z     vdW  Elec       q    Type
REMARK                         _______ _______ _______ _____ _____    ______ ____
ROOT
ATOM      1  N   UNL     1      35.759 -18.645 -21.929  0.00  0.00    -0.312 N 
ATOM      2  H   UNL     1      36.620 -18.323 -21.575  0.00  0.00    +0.152 HD
ENDROOT
BRANCH   1   9
ATOM      3  O   UNL     1      33.878 -15.319 -24.650  0.00  0.00    -0.445 OA
ATOM      4  O   UNL     1      34.824 -17.063 -25.818  0.00  0.00    -0.245 OA
ATOM      5  C   UNL     1      34.614 -15.827 -22.467  0.00  0.00    +0.082 C 
ATOM      6  C   UNL     1      34.916 -16.928 -23.409  0.00  0.00    +0.072 C 
ATOM      7  C   UNL     1      33.594 -15.053 -23.267  0.00  0.00    +0.214 C 
ATOM      8  C   UNL     1      34.557 -16.496 -24.774  0.00  0.00    +0.339 C 
ATOM      9  C   UNL     1      35.397 -18.142 -23.137  0.00  0.00    +0.064 C 
ENDBRANCH   1   9
BRANCH   1  10
ATOM     10  C   UNL     1      35.070 -19.561 -21.118  0.00  0.00    +0.048 C 
ATOM     11  C   UNL     1      35.777 -20.523 -20.398  0.00  0.00    +0.015 C 
ATOM     12  C   UNL     1      33.679 -19.507 -21.032  0.00  0.00    +0.015 C 
ATOM     13  C   UNL     1      35.092 -21.433 -19.592  0.00  0.00    +0.001 C 
ATOM     14  C   UNL     1      32.995 -20.416 -20.227  0.00  0.00    +0.001 C 
ATOM     15  C   UNL     1      33.700 -21.380 -19.507  0.00  0.00    +0.000 C 
ENDBRANCH   1  10
TORSDOF 2
ENDMDL
MODEL 3
REMARK VINA RESULT:      -8.2      0.982      1.712
REMARK  Name = 44585557
REMARK  2 active torsions:
REMARK  status: ('A' for Active; 'I' for Inactive)
REMARK    1  A    between atoms: N_1  and  C_9
REMARK    2  A    between atoms: N_1  and  C_10
REMARK                            x       y       z     vdW  Elec       q    Type
REMARK                         _______ _______ _______ _____ _____    ______ ____
ROOT
ATOM      1  N   UNL     1      36.051 -19.054 -21.468  0.00  0.00    -0.312 N 
ATOM      2  H   UNL     1      36.969 -19.369 -21.639  0.00  0.00    +0.152 HD
ENDROOT
BRANCH   1   9
ATOM      3  O   UNL     1      34.449 -16.218 -24.843  0.00  0.00    -0.445 OA
ATOM      4  O   UNL     1      34.953 -15.139 -22.873  0.00  0.00    -0.245 OA
ATOM      5  C   UNL     1      34.646 -18.465 -24.155  0.00  0.00    +0.082 C 
ATOM      6  C   UNL     1      35.129 -17.536 -23.110  0.00  0.00    +0.072 C 
ATOM      7  C   UNL     1      34.632 -17.548 -25.354  0.00  0.00    +0.214 C 
ATOM      8  C   UNL     1      34.856 -16.152 -23.542  0.00  0.00    +0.339 C 
ATOM      9  C   UNL     1      35.749 -17.828 -21.965  0.00  0.00    +0.064 C 
ENDBRANCH   1   9
BRANCH   1  10
ATOM     10  C   UNL     1      35.231 -19.933 -20.743  0.00  0.00    +0.048 C 
ATOM     11  C   UNL     1      33.846 -19.765 -20.755  0.00  0.00    +0.015 C 
ATOM     12  C   UNL     1      35.800 -20.974 -20.011  0.00  0.00    +0.015 C 
ATOM     13  C   UNL     1      33.031 -20.637 -20.034  0.00  0.00    +0.001 C 
ATOM     14  C   UNL     1      34.986 -21.846 -19.290  0.00  0.00    +0.001 C 
ATOM     15  C   UNL     1      33.602 -21.679 -19.301  0.00  0.00    +0.000 C 
ENDBRANCH   1  10
TORSDOF 2
ENDMDL
MODEL 4
REMARK VINA RESULT:      -8.0      5.861      8.226
REMARK  Name = 44585557
REMARK  2 active torsions:
REMARK  status: ('A' for Active; 'I' for Inactive)
REMARK    1  A    between atoms: N_1  and  C_9
REMARK    2  A    between atoms: N_1  and  C_10
REMARK                            x       y       z     vdW  Elec       q    Type
REMARK                         _______ _______ _______ _____ _____    ______ ____
ROOT
ATOM      1  N   UNL     1      32.967 -22.452 -18.730  0.00  0.00    -0.312 N 
ATOM      2  H   UNL     1      32.133 -22.791 -19.129  0.00  0.00    +0.152 HD
ENDROOT
BRANCH   1   9
ATOM      3  O   UNL     1      31.918 -23.638 -14.315  0.00  0.00    -0.445 OA
ATOM      4  O   UNL     1      34.032 -24.264 -14.977  0.00  0.00    -0.245 OA
ATOM      5  C   UNL     1      31.022 -22.933 -16.380  0.00  0.00    +0.082 C 
ATOM      6  C   UNL     1      32.474 -23.201 -16.484  0.00  0.00    +0.072 C 
ATOM      7  C   UNL     1      30.867 -22.840 -14.881  0.00  0.00    +0.214 C 
ATOM      8  C   UNL     1      32.945 -23.764 -15.204  0.00  0.00    +0.339 C 
ATOM      9  C   UNL     1      33.287 -22.963 -17.514  0.00  0.00    +0.064 C 
ENDBRANCH   1   9
BRANCH   1  10
ATOM     10  C   UNL     1      33.666 -21.504 -19.494  0.00  0.00    +0.048 C 
ATOM     11  C   UNL     1      32.968 -20.524 -20.198  0.00  0.00    +0.015 C 
ATOM     12  C   UNL     1      35.059 -21.542 -19.548  0.00  0.00    +0.015 C 
ATOM     13  C   UNL     1      33.662 -19.582 -20.957  0.00  0.00    +0.001 C 
ATOM     14  C   UNL     1      35.754 -20.601 -20.307  0.00  0.00    +0.001 C 
ATOM     15  C   UNL     1      35.056 -19.621 -21.012  0.00  0.00    +0.000 C 
ENDBRANCH   1  10
TORSDOF 2
ENDMDL
MODEL 5
REMARK VINA RESULT:      -7.6      3.282      5.960
REMARK  Name = 44585557
REMARK  2 active torsions:
REMARK  status: ('A' for Active; 'I' for Inactive)
REMARK    1  A    between atoms: N_1  and  C_9
REMARK    2  A    between atoms: N_1  and  C_10
REMARK                            x       y       z     vdW  Elec       q    Type
REMARK                         _______ _______ _______ _____ _____    ______ ____
ROOT
ATOM      1  N   UNL     1      34.717 -18.333 -21.244  0.00  0.00    -0.312 N 
ATOM      2  H   UNL     1      34.187 -17.801 -20.607  0.00  0.00    +0.152 HD
ENDROOT
BRANCH   1   9
ATOM      3  O   UNL     1      34.826 -22.499 -19.089  0.00  0.00    -0.445 OA
ATOM      4  O   UNL     1      36.890 -21.742 -19.774  0.00  0.00    -0.245 OA
ATOM      5  C   UNL     1      33.428 -20.913 -20.137  0.00  0.00    +0.082 C 
ATOM      6  C   UNL     1      34.854 -20.532 -20.246  0.00  0.00    +0.072 C 
ATOM      7  C   UNL     1      33.503 -21.942 -19.035  0.00  0.00    +0.214 C 
ATOM      8  C   UNL     1      35.680 -21.623 -19.695  0.00  0.00    +0.339 C 
ATOM      9  C   UNL     1      35.374 -19.397 -20.717  0.00  0.00    +0.064 C 
ENDBRANCH   1   9
BRANCH   1  10
ATOM     10  C   UNL     1      34.692 -17.890 -22.576  0.00  0.00    +0.048 C 
ATOM     11  C   UNL     1      34.614 -18.814 -23.617  0.00  0.00    +0.015 C 
ATOM     12  C   UNL     1      34.745 -16.525 -22.857  0.00  0.00    +0.015 C 
ATOM     13  C   UNL     1      34.590 -18.373 -24.941  0.00  0.00    +0.001 C 
ATOM     14  C   UNL     1      34.721 -16.084 -24.180  0.00  0.00    +0.001 C 
ATOM     15  C   UNL     1      34.643 -17.007 -25.222  0.00  0.00    +0.000 C 
ENDBRANCH   1  10
TORSDOF 2
ENDMDL
MODEL 6
REMARK VINA RESULT:      -7.6      5.931      8.549
REMARK  Name = 44585557
REMARK  2 active torsions:
REMARK  status: ('A' for Active; 'I' for Inactive)
REMARK    1  A    between atoms: N_1  and  C_9
REMARK    2  A    between atoms: N_1  and  C_10
REMARK                            x       y       z     vdW  Elec       q    Type
REMARK                         _______ _______ _______ _____ _____    ______ ____
ROOT
ATOM      1  N   UNL     1      33.517 -23.086 -18.500  0.00  0.00    -0.312 N 
ATOM      2  H   UNL     1      33.731 -23.985 -18.839  0.00  0.00    +0.152 HD
ENDROOT
BRANCH   1   9
ATOM      3  O   UNL     1      32.900 -23.739 -13.896  0.00  0.00    -0.445 OA
ATOM      4  O   UNL     1      31.111 -22.746 -14.951  0.00  0.00    -0.245 OA
ATOM      5  C   UNL     1      34.497 -23.680 -15.632  0.00  0.00    +0.082 C 
ATOM      6  C   UNL     1      33.157 -23.281 -16.116  0.00  0.00    +0.072 C 
ATOM      7  C   UNL     1      34.130 -24.344 -14.326  0.00  0.00    +0.214 C 
ATOM      8  C   UNL     1      32.238 -23.207 -14.964  0.00  0.00    +0.339 C 
ATOM      9  C   UNL     1      32.766 -23.048 -17.370  0.00  0.00    +0.064 C 
ENDBRANCH   1   9
BRANCH   1  10
ATOM     10  C   UNL     1      34.029 -22.014 -19.249  0.00  0.00    +0.048 C 
ATOM     11  C   UNL     1      35.408 -21.854 -19.386  0.00  0.00    +0.015 C 
ATOM     12  C   UNL     1      33.159 -21.111 -19.858  0.00  0.00    +0.015 C 
ATOM     13  C   UNL     1      35.916 -20.790 -20.130  0.00  0.00    +0.001 C 
ATOM     14  C   UNL     1      33.667 -20.047 -20.602  0.00  0.00    +0.001 C 
ATOM     15  C   UNL     1      35.045 -19.885 -20.738  0.00  0.00    +0.000 C 
ENDBRANCH   1  10
TORSDOF 2
ENDMDL
MODEL 7
REMARK VINA RESULT:      -7.6      3.186      5.933
REMARK  Name = 44585557
REMARK  2 active torsions:
REMARK  status: ('A' for Active; 'I' for Inactive)
REMARK    1  A    between atoms: N_1  and  C_9
REMARK    2  A    between atoms: N_1  and  C_10
REMARK                            x       y       z     vdW  Elec       q    Type
REMARK                         _______ _______ _______ _____ _____    ______ ____
ROOT
ATOM      1  N   UNL     1      34.749 -18.444 -22.293  0.00  0.00    -0.312 N 
ATOM      2  H   UNL     1      35.375 -18.817 -22.956  0.00  0.00    +0.152 HD
ENDROOT
BRANCH   1   9
ATOM      3  O   UNL     1      34.767 -21.910 -19.132  0.00  0.00    -0.445 OA
ATOM      4  O   UNL     1      32.663 -21.151 -19.681  0.00  0.00    -0.245 OA
ATOM      5  C   UNL     1      36.094 -20.284 -20.208  0.00  0.00    +0.082 C 
ATOM      6  C   UNL     1      34.668 -20.149 -20.579  0.00  0.00    +0.072 C 
ATOM      7  C   UNL     1      36.095 -21.676 -19.625  0.00  0.00    +0.214 C 
ATOM      8  C   UNL     1      33.876 -21.100 -19.775  0.00  0.00    +0.339 C 
ATOM      9  C   UNL     1      34.125 -19.352 -21.500  0.00  0.00    +0.064 C 
ENDBRANCH   1   9
BRANCH   1  10
ATOM     10  C   UNL     1      34.622 -17.046 -22.294  0.00  0.00    +0.048 C 
ATOM     11  C   UNL     1      34.600 -16.347 -21.088  0.00  0.00    +0.015 C 
ATOM     12  C   UNL     1      34.519 -16.356 -23.502  0.00  0.00    +0.015 C 
ATOM     13  C   UNL     1      34.473 -14.957 -21.089  0.00  0.00    +0.001 C 
ATOM     14  C   UNL     1      34.392 -14.968 -23.504  0.00  0.00    +0.001 C 
ATOM     15  C   UNL     1      34.369 -14.268 -22.298  0.00  0.00    +0.000 C 
ENDBRANCH   1  10
TORSDOF 2
ENDMDL
MODEL 8
REMARK VINA RESULT:      -7.6      2.991      5.478
REMARK  Name = 44585557
REMARK  2 active torsions:
REMARK  status: ('A' for Active; 'I' for Inactive)
REMARK    1  A    between atoms: N_1  and  C_9
REMARK    2  A    between atoms: N_1  and  C_10
REMARK                            x       y       z     vdW  Elec       q    Type
REMARK                         _______ _______ _______ _____ _____    ______ ____
ROOT
ATOM      1  N   UNL     1      35.785 -17.571 -22.454  0.00  0.00    -0.312 N 
ATOM      2  H   UNL     1      36.215 -17.639 -23.337  0.00  0.00    +0.152 HD
ENDROOT
BRANCH   1   9
ATOM      3  O   UNL     1      34.411 -21.176 -19.786  0.00  0.00    -0.445 OA
ATOM      4  O   UNL     1      36.695 -20.909 -19.900  0.00  0.00    -0.245 OA
ATOM      5  C   UNL     1      33.726 -19.635 -21.436  0.00  0.00    +0.082 C 
ATOM      6  C   UNL     1      35.173 -19.515 -21.152  0.00  0.00    +0.072 C 
ATOM      7  C   UNL     1      33.273 -20.418 -20.227  0.00  0.00    +0.214 C 
ATOM      8  C   UNL     1      35.564 -20.588 -20.218  0.00  0.00    +0.339 C 
ATOM      9  C   UNL     1      36.030 -18.595 -21.600  0.00  0.00    +0.064 C 
ENDBRANCH   1   9
BRANCH   1  10
ATOM     10  C   UNL     1      34.997 -16.426 -22.248  0.00  0.00    +0.048 C 
ATOM     11  C   UNL     1      34.526 -15.698 -23.340  0.00  0.00    +0.015 C 
ATOM     12  C   UNL     1      34.686 -16.018 -20.951  0.00  0.00    +0.015 C 
ATOM     13  C   UNL     1      33.744 -14.561 -23.135  0.00  0.00    +0.001 C 
ATOM     14  C   UNL     1      33.905 -14.882 -20.746  0.00  0.00    +0.001 C 
ATOM     15  C   UNL     1      33.434 -14.153 -21.837  0.00  0.00    +0.000 C 
ENDBRANCH   1  10
TORSDOF 2
ENDMDL
MODEL 9
REMARK VINA RESULT:      -7.6      1.429      2.571
REMARK  Name = 44585557
REMARK  2 active torsions:
REMARK  status: ('A' for Active; 'I' for Inactive)
REMARK    1  A    between atoms: N_1  and  C_9
REMARK    2  A    between atoms: N_1  and  C_10
REMARK                            x       y       z     vdW  Elec       q    Type
REMARK                         _______ _______ _______ _____ _____    ______ ____
ROOT
ATOM      1  N   UNL     1      35.709 -17.216 -22.704  0.00  0.00    -0.312 N 
ATOM      2  H   UNL     1      36.509 -17.251 -23.276  0.00  0.00    +0.152 HD
ENDROOT
BRANCH   1   9
ATOM      3  O   UNL     1      32.907 -14.330 -25.118  0.00  0.00    -0.445 OA
ATOM      4  O   UNL     1      33.181 -13.741 -22.909  0.00  0.00    -0.245 OA
ATOM      5  C   UNL     1      33.944 -16.449 -25.120  0.00  0.00    +0.082 C 
ATOM      6  C   UNL     1      34.165 -15.740 -23.839  0.00  0.00    +0.072 C 
ATOM      7  C   UNL     1      33.498 -15.302 -25.995  0.00  0.00    +0.214 C 
ATOM      8  C   UNL     1      33.384 -14.488 -23.849  0.00  0.00    +0.339 C 
ATOM      9  C   UNL     1      34.951 -16.096 -22.822  0.00  0.00    +0.064 C 
ENDBRANCH   1   9
BRANCH   1  10
ATOM     10  C   UNL     1      35.504 -18.330 -21.874  0.00  0.00    +0.048 C 
ATOM     11  C   UNL     1      36.589 -18.943 -21.250  0.00  0.00    +0.015 C 
ATOM     12  C   UNL     1      34.215 -18.823 -21.674  0.00  0.00    +0.015 C 
ATOM     13  C   UNL     1      36.386 -20.051 -20.426  0.00  0.00    +0.001 C 
ATOM     14  C   UNL     1      34.011 -19.929 -20.851  0.00  0.00    +0.001 C 
ATOM     15  C   UNL     1      35.096 -20.544 -20.227  0.00  0.00    +0.000 C 
ENDBRANCH   1  10
TORSDOF 2
ENDMDL
