MODEL 1
REMARK VINA RESULT:      -9.6      0.000      0.000
REMARK  Name = 40466968
REMARK  14 active torsions:
REMARK  status: ('A' for Active; 'I' for Inactive)
REMARK    1  A    between atoms: C_1  and  O_7
REMARK    2  A    between atoms: C_2  and  C_20
REMARK    3  A    between atoms: O_7  and  C_8
REMARK    4  A    between atoms: C_8  and  C_9
REMARK    5  A    between atoms: C_9  and  C_10
REMARK    6  A    between atoms: C_10  and  C_11
REMARK    7  A    between atoms: C_11  and  C_13
REMARK    8  A    between atoms: C_20  and  C_21
REMARK    9  A    between atoms: C_21  and  C_24
REMARK   10  A    between atoms: C_21  and  N_25
REMARK   11  A    between atoms: N_25  and  S_27
REMARK   12  A    between atoms: S_27  and  C_30
REMARK   13  A    between atoms: C_30  and  C_31
REMARK   14  A    between atoms: C_31  and  C_32
REMARK                            x       y       z     vdW  Elec       q    Type
REMARK                         _______ _______ _______ _____ _____    ______ ____
ROOT
ATOM      1  C   UNL     1      36.076 -21.774 -17.800  0.00  0.00    +0.139 C 
ATOM      2  C   UNL     1      35.263 -23.619 -15.872  0.00  0.00    -0.020 C 
ATOM      3  C   UNL     1      34.832 -22.397 -17.911  0.00  0.00    +0.037 C 
ATOM      4  C   UNL     1      36.912 -22.073 -16.724  0.00  0.00    +0.037 C 
ATOM      5  C   UNL     1      34.426 -23.319 -16.948  0.00  0.00    -0.001 C 
ATOM      6  C   UNL     1      36.506 -22.996 -15.761  0.00  0.00    -0.001 C 
ENDROOT
BRANCH   1   7
ATOM      7  O   UNL     1      36.474 -20.866 -18.746  0.00  0.00    -0.475 OA
BRANCH   7   8
ATOM      8  C   UNL     1      36.180 -21.180 -20.101  0.00  0.00    +0.205 C 
BRANCH   8   9
ATOM      9  C   UNL     1      35.233 -20.126 -20.655  0.00  0.00    +0.047 C 
BRANCH   9  10
ATOM     10  C   UNL     1      35.991 -18.989 -21.337  0.00  0.00    +0.004 C 
BRANCH  10  11
ATOM     11  C   UNL     1      35.275 -17.655 -21.142  0.00  0.00    -0.000 C 
BRANCH  11  13
ATOM     12  N   UNL     1      33.830 -15.787 -24.722  0.00  0.00    +0.384 N 
ATOM     13  C   UNL     1      35.257 -16.843 -22.435  0.00  0.00    -0.004 C 
ATOM     14  C   UNL     1      34.300 -15.648 -22.313  0.00  0.00    -0.023 C 
ATOM     15  C   UNL     1      34.868 -17.728 -23.629  0.00  0.00    -0.023 C 
ATOM     16  C   UNL     1      34.214 -14.863 -23.614  0.00  0.00    -0.082 C 
ATOM     17  C   UNL     1      34.778 -16.923 -24.917  0.00  0.00    -0.082 C 
ATOM     18  H   UNL     1      33.789 -15.251 -25.588  0.00  0.00    -0.085 HD
ATOM     19  H   UNL     1      32.929 -16.193 -24.469  0.00  0.00    -0.085 HD
ENDBRANCH  11  13
ENDBRANCH  10  11
ENDBRANCH   9  10
ENDBRANCH   8   9
ENDBRANCH   7   8
ENDBRANCH   1   7
BRANCH   2  20
ATOM     20  C   UNL     1      34.827 -24.603 -14.840  0.00  0.00    +0.055 C 
BRANCH  20  21
ATOM     21  C   UNL     1      34.094 -23.954 -13.657  0.00  0.00    +0.182 C 
BRANCH  21  24
ATOM     22  O   UNL     1      32.037 -25.033 -13.239  0.00  0.00    -0.244 OA
ATOM     23  O   UNL     1      32.000 -22.958 -14.193  0.00  0.00    -0.244 OA
ATOM     24  C   UNL     1      32.560 -23.979 -13.705  0.00  0.00    +0.381 C 
ENDBRANCH  21  24
BRANCH  21  25
ATOM     25  N   UNL     1      34.410 -24.712 -12.417  0.00  0.00    -0.173 NA
ATOM     26  H   UNL     1      33.612 -24.608 -11.792  0.00  0.00    +0.149 HD
BRANCH  25  27
ATOM     27  S   UNL     1      35.799 -24.290 -11.531  0.00  0.00    +0.041 S 
ATOM     28  O   UNL     1      35.550 -24.443 -10.112  0.00  0.00    -0.157 OA
ATOM     29  O   UNL     1      36.312 -23.041 -12.063  0.00  0.00    -0.157 OA
BRANCH  27  30
ATOM     30  C   UNL     1      36.916 -25.579 -12.034  0.00  0.00    +0.169 C 
BRANCH  30  31
ATOM     31  C   UNL     1      38.143 -25.008 -12.729  0.00  0.00    +0.027 C 
BRANCH  31  32
ATOM     32  C   UNL     1      38.437 -25.750 -14.031  0.00  0.00    +0.002 C 
ATOM     33  C   UNL     1      39.806 -25.384 -14.583  0.00  0.00    +0.000 C 
ENDBRANCH  31  32
ENDBRANCH  30  31
ENDBRANCH  27  30
ENDBRANCH  25  27
ENDBRANCH  21  25
ENDBRANCH  20  21
ENDBRANCH   2  20
TORSDOF 14
ENDMDL
MODEL 2
REMARK VINA RESULT:      -9.5      0.806      1.277
REMARK  Name = 40466968
REMARK  14 active torsions:
REMARK  status: ('A' for Active; 'I' for Inactive)
REMARK    1  A    between atoms: C_1  and  O_7
REMARK    2  A    between atoms: C_2  and  C_20
REMARK    3  A    between atoms: O_7  and  C_8
REMARK    4  A    between atoms: C_8  and  C_9
REMARK    5  A    between atoms: C_9  and  C_10
REMARK    6  A    between atoms: C_10  and  C_11
REMARK    7  A    between atoms: C_11  and  C_13
REMARK    8  A    between atoms: C_20  and  C_21
REMARK    9  A    between atoms: C_21  and  C_24
REMARK   10  A    between atoms: C_21  and  N_25
REMARK   11  A    between atoms: N_25  and  S_27
REMARK   12  A    between atoms: S_27  and  C_30
REMARK   13  A    between atoms: C_30  and  C_31
REMARK   14  A    between atoms: C_31  and  C_32
REMARK                            x       y       z     vdW  Elec       q    Type
REMARK                         _______ _______ _______ _____ _____    ______ ____
ROOT
ATOM      1  C   UNL     1      36.057 -21.837 -17.796  0.00  0.00    +0.139 C 
ATOM      2  C   UNL     1      35.209 -23.668 -15.869  0.00  0.00    -0.020 C 
ATOM      3  C   UNL     1      34.795 -22.424 -17.899  0.00  0.00    +0.037 C 
ATOM      4  C   UNL     1      36.893 -22.165 -16.730  0.00  0.00    +0.037 C 
ATOM      5  C   UNL     1      34.371 -23.340 -16.936  0.00  0.00    -0.001 C 
ATOM      6  C   UNL     1      36.470 -23.081 -15.767  0.00  0.00    -0.001 C 
ENDROOT
BRANCH   1   7
ATOM      7  O   UNL     1      36.472 -20.936 -18.742  0.00  0.00    -0.475 OA
BRANCH   7   8
ATOM      8  C   UNL     1      36.149 -21.231 -20.094  0.00  0.00    +0.205 C 
BRANCH   8   9
ATOM      9  C   UNL     1      35.246 -20.132 -20.635  0.00  0.00    +0.047 C 
BRANCH   9  10
ATOM     10  C   UNL     1      36.045 -18.899 -21.050  0.00  0.00    +0.004 C 
BRANCH  10  11
ATOM     11  C   UNL     1      35.643 -18.427 -22.445  0.00  0.00    -0.000 C 
BRANCH  11  13
ATOM     12  N   UNL     1      34.392 -14.338 -22.109  0.00  0.00    +0.384 N 
ATOM     13  C   UNL     1      34.736 -17.201 -22.374  0.00  0.00    -0.004 C 
ATOM     14  C   UNL     1      35.033 -16.237 -23.533  0.00  0.00    -0.023 C 
ATOM     15  C   UNL     1      34.889 -16.486 -21.024  0.00  0.00    -0.023 C 
ATOM     16  C   UNL     1      34.187 -14.975 -23.444  0.00  0.00    -0.082 C 
ATOM     17  C   UNL     1      34.044 -15.222 -20.958  0.00  0.00    -0.082 C 
ATOM     18  H   UNL     1      33.810 -13.503 -22.059  0.00  0.00    -0.085 HD
ATOM     19  H   UNL     1      35.388 -14.129 -22.031  0.00  0.00    -0.085 HD
ENDBRANCH  11  13
ENDBRANCH  10  11
ENDBRANCH   9  10
ENDBRANCH   8   9
ENDBRANCH   7   8
ENDBRANCH   1   7
BRANCH   2  20
ATOM     20  C   UNL     1      34.754 -24.645 -14.838  0.00  0.00    +0.055 C 
BRANCH  20  21
ATOM     21  C   UNL     1      34.063 -23.980 -13.639  0.00  0.00    +0.182 C 
BRANCH  21  24
ATOM     22  O   UNL     1      31.985 -25.013 -13.209  0.00  0.00    -0.244 OA
ATOM     23  O   UNL     1      31.987 -22.914 -14.107  0.00  0.00    -0.244 OA
ATOM     24  C   UNL     1      32.528 -23.962 -13.658  0.00  0.00    +0.381 C 
ENDBRANCH  21  24
BRANCH  21  25
ATOM     25  N   UNL     1      34.382 -24.750 -12.408  0.00  0.00    -0.173 NA
ATOM     26  H   UNL     1      33.585 -24.654 -11.780  0.00  0.00    +0.149 HD
BRANCH  25  27
ATOM     27  S   UNL     1      35.772 -24.337 -11.519  0.00  0.00    +0.041 S 
ATOM     28  O   UNL     1      35.543 -24.556 -10.106  0.00  0.00    -0.157 OA
ATOM     29  O   UNL     1      36.251 -23.056 -12.003  0.00  0.00    -0.157 OA
BRANCH  27  30
ATOM     30  C   UNL     1      36.910 -25.578 -12.090  0.00  0.00    +0.169 C 
BRANCH  30  31
ATOM     31  C   UNL     1      38.166 -24.951 -12.674  0.00  0.00    +0.027 C 
BRANCH  31  32
ATOM     32  C   UNL     1      38.558 -25.618 -13.991  0.00  0.00    +0.002 C 
ATOM     33  C   UNL     1      37.590 -26.730 -14.361  0.00  0.00    +0.000 C 
ENDBRANCH  31  32
ENDBRANCH  30  31
ENDBRANCH  27  30
ENDBRANCH  25  27
ENDBRANCH  21  25
ENDBRANCH  20  21
ENDBRANCH   2  20
TORSDOF 14
ENDMDL
MODEL 3
REMARK VINA RESULT:      -9.5      6.522     10.972
REMARK  Name = 40466968
REMARK  14 active torsions:
REMARK  status: ('A' for Active; 'I' for Inactive)
REMARK    1  A    between atoms: C_1  and  O_7
REMARK    2  A    between atoms: C_2  and  C_20
REMARK    3  A    between atoms: O_7  and  C_8
REMARK    4  A    between atoms: C_8  and  C_9
REMARK    5  A    between atoms: C_9  and  C_10
REMARK    6  A    between atoms: C_10  and  C_11
REMARK    7  A    between atoms: C_11  and  C_13
REMARK    8  A    between atoms: C_20  and  C_21
REMARK    9  A    between atoms: C_21  and  C_24
REMARK   10  A    between atoms: C_21  and  N_25
REMARK   11  A    between atoms: N_25  and  S_27
REMARK   12  A    between atoms: S_27  and  C_30
REMARK   13  A    between atoms: C_30  and  C_31
REMARK   14  A    between atoms: C_31  and  C_32
REMARK                            x       y       z     vdW  Elec       q    Type
REMARK                         _______ _______ _______ _____ _____    ______ ____
ROOT
ATOM      1  C   UNL     1      32.340 -13.075 -21.857  0.00  0.00    +0.139 C 
ATOM      2  C   UNL     1      34.250 -14.801 -22.932  0.00  0.00    -0.020 C 
ATOM      3  C   UNL     1      32.989 -13.996 -21.034  0.00  0.00    +0.037 C 
ATOM      4  C   UNL     1      32.646 -13.017 -23.216  0.00  0.00    +0.037 C 
ATOM      5  C   UNL     1      33.944 -14.859 -21.571  0.00  0.00    -0.001 C 
ATOM      6  C   UNL     1      33.600 -13.880 -23.754  0.00  0.00    -0.001 C 
ENDROOT
BRANCH   1   7
ATOM      7  O   UNL     1      31.403 -12.226 -21.329  0.00  0.00    -0.475 OA
BRANCH   7   8
ATOM      8  C   UNL     1      31.565 -11.859 -19.965  0.00  0.00    +0.205 C 
BRANCH   8   9
ATOM      9  C   UNL     1      31.219 -10.386 -19.807  0.00  0.00    +0.047 C 
BRANCH   9  10
ATOM     10  C   UNL     1      31.896  -9.530 -20.876  0.00  0.00    +0.004 C 
BRANCH  10  11
ATOM     11  C   UNL     1      32.308  -8.172 -20.313  0.00  0.00    -0.000 C 
BRANCH  11  13
ATOM     12  N   UNL     1      32.401  -6.272 -24.157  0.00  0.00    +0.384 N 
ATOM     13  C   UNL     1      32.686  -7.202 -21.430  0.00  0.00    -0.004 C 
ATOM     14  C   UNL     1      31.461  -6.397 -21.889  0.00  0.00    -0.023 C 
ATOM     15  C   UNL     1      33.315  -7.951 -22.613  0.00  0.00    -0.023 C 
ATOM     16  C   UNL     1      31.799  -5.473 -23.049  0.00  0.00    -0.082 C 
ATOM     17  C   UNL     1      33.637  -7.012 -23.766  0.00  0.00    -0.082 C 
ATOM     18  H   UNL     1      32.635  -5.638 -24.921  0.00  0.00    -0.085 HD
ATOM     19  H   UNL     1      31.709  -6.972 -24.425  0.00  0.00    -0.085 HD
ENDBRANCH  11  13
ENDBRANCH  10  11
ENDBRANCH   9  10
ENDBRANCH   8   9
ENDBRANCH   7   8
ENDBRANCH   1   7
BRANCH   2  20
ATOM     20  C   UNL     1      35.273 -15.722 -23.505  0.00  0.00    +0.055 C 
BRANCH  20  21
ATOM     21  C   UNL     1      34.823 -17.190 -23.519  0.00  0.00    +0.182 C 
BRANCH  21  24
ATOM     22  O   UNL     1      34.691 -17.013 -25.869  0.00  0.00    -0.244 OA
ATOM     23  O   UNL     1      34.037 -18.970 -24.891  0.00  0.00    -0.244 OA
ATOM     24  C   UNL     1      34.480 -17.788 -24.892  0.00  0.00    +0.381 C 
ENDBRANCH  21  24
BRANCH  21  25
ATOM     25  N   UNL     1      35.944 -18.044 -23.045  0.00  0.00    -0.173 NA
ATOM     26  H   UNL     1      35.954 -18.878 -23.631  0.00  0.00    +0.149 HD
BRANCH  25  27
ATOM     27  S   UNL     1      35.946 -18.569 -21.426  0.00  0.00    +0.041 S 
ATOM     28  O   UNL     1      35.363 -17.553 -20.573  0.00  0.00    -0.157 OA
ATOM     29  O   UNL     1      37.255 -19.122 -21.134  0.00  0.00    -0.157 OA
BRANCH  27  30
ATOM     30  C   UNL     1      34.804 -19.929 -21.519  0.00  0.00    +0.169 C 
BRANCH  30  31
ATOM     31  C   UNL     1      33.434 -19.539 -20.986  0.00  0.00    +0.027 C 
BRANCH  31  32
ATOM     32  C   UNL     1      32.943 -20.535 -19.937  0.00  0.00    +0.002 C 
ATOM     33  C   UNL     1      34.038 -21.514 -19.544  0.00  0.00    +0.000 C 
ENDBRANCH  31  32
ENDBRANCH  30  31
ENDBRANCH  27  30
ENDBRANCH  25  27
ENDBRANCH  21  25
ENDBRANCH  20  21
ENDBRANCH   2  20
TORSDOF 14
ENDMDL
MODEL 4
REMARK VINA RESULT:      -9.5      2.021      2.592
REMARK  Name = 40466968
REMARK  14 active torsions:
REMARK  status: ('A' for Active; 'I' for Inactive)
REMARK    1  A    between atoms: C_1  and  O_7
REMARK    2  A    between atoms: C_2  and  C_20
REMARK    3  A    between atoms: O_7  and  C_8
REMARK    4  A    between atoms: C_8  and  C_9
REMARK    5  A    between atoms: C_9  and  C_10
REMARK    6  A    between atoms: C_10  and  C_11
REMARK    7  A    between atoms: C_11  and  C_13
REMARK    8  A    between atoms: C_20  and  C_21
REMARK    9  A    between atoms: C_21  and  C_24
REMARK   10  A    between atoms: C_21  and  N_25
REMARK   11  A    between atoms: N_25  and  S_27
REMARK   12  A    between atoms: S_27  and  C_30
REMARK   13  A    between atoms: C_30  and  C_31
REMARK   14  A    between atoms: C_31  and  C_32
REMARK                            x       y       z     vdW  Elec       q    Type
REMARK                         _______ _______ _______ _____ _____    ______ ____
ROOT
ATOM      1  C   UNL     1      35.419 -21.817 -19.065  0.00  0.00    +0.139 C 
ATOM      2  C   UNL     1      34.588 -23.014 -16.686  0.00  0.00    -0.020 C 
ATOM      3  C   UNL     1      34.144 -22.376 -18.974  0.00  0.00    +0.037 C 
ATOM      4  C   UNL     1      36.277 -21.855 -17.966  0.00  0.00    +0.037 C 
ATOM      5  C   UNL     1      33.728 -22.975 -17.785  0.00  0.00    -0.001 C 
ATOM      6  C   UNL     1      35.862 -22.454 -16.777  0.00  0.00    -0.001 C 
ENDROOT
BRANCH   1   7
ATOM      7  O   UNL     1      35.826 -21.227 -20.233  0.00  0.00    -0.475 OA
BRANCH   7   8
ATOM      8  C   UNL     1      35.105 -20.078 -20.658  0.00  0.00    +0.205 C 
BRANCH   8   9
ATOM      9  C   UNL     1      36.096 -18.984 -21.028  0.00  0.00    +0.047 C 
BRANCH   9  10
ATOM     10  C   UNL     1      35.405 -17.806 -21.712  0.00  0.00    +0.004 C 
BRANCH  10  11
ATOM     11  C   UNL     1      34.857 -16.818 -20.685  0.00  0.00    -0.000 C 
BRANCH  11  13
ATOM     12  N   UNL     1      32.689 -14.069 -23.162  0.00  0.00    +0.384 N 
ATOM     13  C   UNL     1      34.424 -15.514 -21.350  0.00  0.00    -0.004 C 
ATOM     14  C   UNL     1      32.972 -15.173 -20.984  0.00  0.00    -0.023 C 
ATOM     15  C   UNL     1      34.593 -15.595 -22.874  0.00  0.00    -0.023 C 
ATOM     16  C   UNL     1      32.497 -13.912 -21.690  0.00  0.00    -0.082 C 
ATOM     17  C   UNL     1      34.104 -14.330 -23.562  0.00  0.00    -0.082 C 
ATOM     18  H   UNL     1      32.380 -13.212 -23.621  0.00  0.00    -0.085 HD
ATOM     19  H   UNL     1      32.146 -14.884 -23.446  0.00  0.00    -0.085 HD
ENDBRANCH  11  13
ENDBRANCH  10  11
ENDBRANCH   9  10
ENDBRANCH   8   9
ENDBRANCH   7   8
ENDBRANCH   1   7
BRANCH   2  20
ATOM     20  C   UNL     1      34.142 -23.652 -15.414  0.00  0.00    +0.055 C 
BRANCH  20  21
ATOM     21  C   UNL     1      35.305 -24.201 -14.574  0.00  0.00    +0.182 C 
BRANCH  21  24
ATOM     22  O   UNL     1      34.250 -24.524 -12.488  0.00  0.00    -0.244 OA
ATOM     23  O   UNL     1      36.139 -23.244 -12.562  0.00  0.00    -0.244 OA
ATOM     24  C   UNL     1      35.228 -23.961 -13.060  0.00  0.00    +0.381 C 
ENDBRANCH  21  24
BRANCH  21  25
ATOM     25  N   UNL     1      35.323 -25.683 -14.686  0.00  0.00    -0.173 NA
ATOM     26  H   UNL     1      34.898 -26.053 -13.837  0.00  0.00    +0.149 HD
BRANCH  25  27
ATOM     27  S   UNL     1      36.819 -26.471 -14.879  0.00  0.00    +0.041 S 
ATOM     28  O   UNL     1      36.838 -27.204 -16.129  0.00  0.00    -0.157 OA
ATOM     29  O   UNL     1      37.146 -27.130 -13.629  0.00  0.00    -0.157 OA
BRANCH  27  30
ATOM     30  C   UNL     1      37.908 -25.076 -15.044  0.00  0.00    +0.169 C 
BRANCH  30  31
ATOM     31  C   UNL     1      38.853 -24.967 -13.857  0.00  0.00    +0.027 C 
BRANCH  31  32
ATOM     32  C   UNL     1      40.308 -25.134 -14.289  0.00  0.00    +0.002 C 
ATOM     33  C   UNL     1      40.734 -26.593 -14.257  0.00  0.00    +0.000 C 
ENDBRANCH  31  32
ENDBRANCH  30  31
ENDBRANCH  27  30
ENDBRANCH  25  27
ENDBRANCH  21  25
ENDBRANCH  20  21
ENDBRANCH   2  20
TORSDOF 14
ENDMDL
MODEL 5
REMARK VINA RESULT:      -9.4      1.899      3.576
REMARK  Name = 40466968
REMARK  14 active torsions:
REMARK  status: ('A' for Active; 'I' for Inactive)
REMARK    1  A    between atoms: C_1  and  O_7
REMARK    2  A    between atoms: C_2  and  C_20
REMARK    3  A    between atoms: O_7  and  C_8
REMARK    4  A    between atoms: C_8  and  C_9
REMARK    5  A    between atoms: C_9  and  C_10
REMARK    6  A    between atoms: C_10  and  C_11
REMARK    7  A    between atoms: C_11  and  C_13
REMARK    8  A    between atoms: C_20  and  C_21
REMARK    9  A    between atoms: C_21  and  C_24
REMARK   10  A    between atoms: C_21  and  N_25
REMARK   11  A    between atoms: N_25  and  S_27
REMARK   12  A    between atoms: S_27  and  C_30
REMARK   13  A    between atoms: C_30  and  C_31
REMARK   14  A    between atoms: C_31  and  C_32
REMARK                            x       y       z     vdW  Elec       q    Type
REMARK                         _______ _______ _______ _____ _____    ______ ____
ROOT
ATOM      1  C   UNL     1      34.686 -22.152 -18.672  0.00  0.00    +0.139 C 
ATOM      2  C   UNL     1      36.482 -22.483 -16.563  0.00  0.00    -0.020 C 
ATOM      3  C   UNL     1      34.298 -22.852 -17.529  0.00  0.00    +0.037 C 
ATOM      4  C   UNL     1      35.971 -21.617 -18.760  0.00  0.00    +0.037 C 
ATOM      5  C   UNL     1      35.196 -23.018 -16.475  0.00  0.00    -0.001 C 
ATOM      6  C   UNL     1      36.869 -21.783 -17.706  0.00  0.00    -0.001 C 
ENDROOT
BRANCH   1   7
ATOM      7  O   UNL     1      33.803 -21.989 -19.707  0.00  0.00    -0.475 OA
BRANCH   7   8
ATOM      8  C   UNL     1      32.883 -20.910 -19.602  0.00  0.00    +0.205 C 
BRANCH   8   9
ATOM      9  C   UNL     1      32.928 -20.098 -20.889  0.00  0.00    +0.047 C 
BRANCH   9  10
ATOM     10  C   UNL     1      34.118 -19.142 -20.911  0.00  0.00    +0.004 C 
BRANCH  10  11
ATOM     11  C   UNL     1      35.102 -19.514 -22.017  0.00  0.00    -0.000 C 
BRANCH  11  13
ATOM     12  N   UNL     1      34.189 -16.211 -24.597  0.00  0.00    +0.384 N 
ATOM     13  C   UNL     1      35.291 -18.361 -23.001  0.00  0.00    -0.004 C 
ATOM     14  C   UNL     1      34.842 -17.033 -22.374  0.00  0.00    -0.023 C 
ATOM     15  C   UNL     1      34.528 -18.628 -24.306  0.00  0.00    -0.023 C 
ATOM     16  C   UNL     1      34.957 -15.880 -23.360  0.00  0.00    -0.082 C 
ATOM     17  C   UNL     1      34.646 -17.461 -25.275  0.00  0.00    -0.082 C 
ATOM     18  H   UNL     1      34.286 -15.437 -25.253  0.00  0.00    -0.085 HD
ATOM     19  H   UNL     1      33.222 -16.366 -24.312  0.00  0.00    -0.085 HD
ENDBRANCH  11  13
ENDBRANCH  10  11
ENDBRANCH   9  10
ENDBRANCH   8   9
ENDBRANCH   7   8
ENDBRANCH   1   7
BRANCH   2  20
ATOM     20  C   UNL     1      37.441 -22.657 -15.434  0.00  0.00    +0.055 C 
BRANCH  20  21
ATOM     21  C   UNL     1      37.309 -24.017 -14.735  0.00  0.00    +0.182 C 
BRANCH  21  24
ATOM     22  O   UNL     1      39.601 -24.508 -15.015  0.00  0.00    -0.244 OA
ATOM     23  O   UNL     1      38.105 -26.232 -15.092  0.00  0.00    -0.244 OA
ATOM     24  C   UNL     1      38.446 -25.022 -14.972  0.00  0.00    +0.381 C 
ENDBRANCH  21  24
BRANCH  21  25
ATOM     25  N   UNL     1      37.338 -23.810 -13.263  0.00  0.00    -0.173 NA
ATOM     26  H   UNL     1      38.265 -24.083 -12.940  0.00  0.00    +0.149 HD
BRANCH  25  27
ATOM     27  S   UNL     1      36.207 -24.636 -12.296  0.00  0.00    +0.041 S 
ATOM     28  O   UNL     1      35.707 -23.759 -11.256  0.00  0.00    -0.157 OA
ATOM     29  O   UNL     1      36.760 -25.936 -11.968  0.00  0.00    -0.157 OA
BRANCH  27  30
ATOM     30  C   UNL     1      34.898 -24.897 -13.470  0.00  0.00    +0.169 C 
BRANCH  30  31
ATOM     31  C   UNL     1      33.742 -23.937 -13.234  0.00  0.00    +0.027 C 
BRANCH  31  32
ATOM     32  C   UNL     1      32.635 -24.137 -14.267  0.00  0.00    +0.002 C 
ATOM     33  C   UNL     1      31.569 -25.098 -13.762  0.00  0.00    +0.000 C 
ENDBRANCH  31  32
ENDBRANCH  30  31
ENDBRANCH  27  30
ENDBRANCH  25  27
ENDBRANCH  21  25
ENDBRANCH  20  21
ENDBRANCH   2  20
TORSDOF 14
ENDMDL
MODEL 6
REMARK VINA RESULT:      -9.4      2.020      2.760
REMARK  Name = 40466968
REMARK  14 active torsions:
REMARK  status: ('A' for Active; 'I' for Inactive)
REMARK    1  A    between atoms: C_1  and  O_7
REMARK    2  A    between atoms: C_2  and  C_20
REMARK    3  A    between atoms: O_7  and  C_8
REMARK    4  A    between atoms: C_8  and  C_9
REMARK    5  A    between atoms: C_9  and  C_10
REMARK    6  A    between atoms: C_10  and  C_11
REMARK    7  A    between atoms: C_11  and  C_13
REMARK    8  A    between atoms: C_20  and  C_21
REMARK    9  A    between atoms: C_21  and  C_24
REMARK   10  A    between atoms: C_21  and  N_25
REMARK   11  A    between atoms: N_25  and  S_27
REMARK   12  A    between atoms: S_27  and  C_30
REMARK   13  A    between atoms: C_30  and  C_31
REMARK   14  A    between atoms: C_31  and  C_32
REMARK                            x       y       z     vdW  Elec       q    Type
REMARK                         _______ _______ _______ _____ _____    ______ ____
ROOT
ATOM      1  C   UNL     1      33.042 -22.631 -17.993  0.00  0.00    +0.139 C 
ATOM      2  C   UNL     1      33.433 -23.414 -15.344  0.00  0.00    -0.020 C 
ATOM      3  C   UNL     1      31.943 -22.886 -17.172  0.00  0.00    +0.037 C 
ATOM      4  C   UNL     1      34.336 -22.767 -17.489  0.00  0.00    +0.037 C 
ATOM      5  C   UNL     1      32.138 -23.278 -15.848  0.00  0.00    -0.001 C 
ATOM      6  C   UNL     1      34.531 -23.160 -16.165  0.00  0.00    -0.001 C 
ENDROOT
BRANCH   1   7
ATOM      7  O   UNL     1      32.850 -22.244 -19.294  0.00  0.00    -0.475 OA
BRANCH   7   8
ATOM      8  C   UNL     1      32.999 -20.860 -19.580  0.00  0.00    +0.205 C 
BRANCH   8   9
ATOM      9  C   UNL     1      34.272 -20.660 -20.390  0.00  0.00    +0.047 C 
BRANCH   9  10
ATOM     10  C   UNL     1      34.177 -19.435 -21.297  0.00  0.00    +0.004 C 
BRANCH  10  11
ATOM     11  C   UNL     1      35.545 -18.786 -21.490  0.00  0.00    -0.000 C 
BRANCH  11  13
ATOM     12  N   UNL     1      34.064 -16.166 -24.545  0.00  0.00    +0.384 N 
ATOM     13  C   UNL     1      35.527 -17.792 -22.648  0.00  0.00    -0.004 C 
ATOM     14  C   UNL     1      34.836 -16.485 -22.233  0.00  0.00    -0.023 C 
ATOM     15  C   UNL     1      34.839 -18.401 -23.878  0.00  0.00    -0.023 C 
ATOM     16  C   UNL     1      34.745 -15.505 -23.393  0.00  0.00    -0.082 C 
ATOM     17  C   UNL     1      34.749 -17.402 -25.023  0.00  0.00    -0.082 C 
ATOM     18  H   UNL     1      34.022 -15.503 -25.318  0.00  0.00    -0.085 HD
ATOM     19  H   UNL     1      33.139 -16.447 -24.219  0.00  0.00    -0.085 HD
ENDBRANCH  11  13
ENDBRANCH  10  11
ENDBRANCH   9  10
ENDBRANCH   8   9
ENDBRANCH   7   8
ENDBRANCH   1   7
BRANCH   2  20
ATOM     20  C   UNL     1      33.641 -23.831 -13.927  0.00  0.00    +0.055 C 
BRANCH  20  21
ATOM     21  C   UNL     1      35.117 -24.077 -13.581  0.00  0.00    +0.182 C 
BRANCH  21  24
ATOM     22  O   UNL     1      36.339 -23.070 -11.831  0.00  0.00    -0.244 OA
ATOM     23  O   UNL     1      34.933 -24.796 -11.320  0.00  0.00    -0.244 OA
ATOM     24  C   UNL     1      35.498 -23.977 -12.097  0.00  0.00    +0.381 C 
ENDBRANCH  21  24
BRANCH  21  25
ATOM     25  N   UNL     1      35.468 -25.478 -13.931  0.00  0.00    -0.173 NA
ATOM     26  H   UNL     1      35.736 -25.945 -13.065  0.00  0.00    +0.149 HD
BRANCH  25  27
ATOM     27  S   UNL     1      36.716 -25.754 -15.055  0.00  0.00    +0.041 S 
ATOM     28  O   UNL     1      37.239 -24.492 -15.537  0.00  0.00    -0.157 OA
ATOM     29  O   UNL     1      36.267 -26.774 -15.984  0.00  0.00    -0.157 OA
BRANCH  27  30
ATOM     30  C   UNL     1      37.947 -26.494 -14.008  0.00  0.00    +0.169 C 
BRANCH  30  31
ATOM     31  C   UNL     1      38.772 -25.437 -13.290  0.00  0.00    +0.027 C 
BRANCH  31  32
ATOM     32  C   UNL     1      40.238 -25.499 -13.711  0.00  0.00    +0.002 C 
ATOM     33  C   UNL     1      40.379 -25.740 -15.206  0.00  0.00    +0.000 C 
ENDBRANCH  31  32
ENDBRANCH  30  31
ENDBRANCH  27  30
ENDBRANCH  25  27
ENDBRANCH  21  25
ENDBRANCH  20  21
ENDBRANCH   2  20
TORSDOF 14
ENDMDL
MODEL 7
REMARK VINA RESULT:      -9.3      4.232     11.808
REMARK  Name = 40466968
REMARK  14 active torsions:
REMARK  status: ('A' for Active; 'I' for Inactive)
REMARK    1  A    between atoms: C_1  and  O_7
REMARK    2  A    between atoms: C_2  and  C_20
REMARK    3  A    between atoms: O_7  and  C_8
REMARK    4  A    between atoms: C_8  and  C_9
REMARK    5  A    between atoms: C_9  and  C_10
REMARK    6  A    between atoms: C_10  and  C_11
REMARK    7  A    between atoms: C_11  and  C_13
REMARK    8  A    between atoms: C_20  and  C_21
REMARK    9  A    between atoms: C_21  and  C_24
REMARK   10  A    between atoms: C_21  and  N_25
REMARK   11  A    between atoms: N_25  and  S_27
REMARK   12  A    between atoms: S_27  and  C_30
REMARK   13  A    between atoms: C_30  and  C_31
REMARK   14  A    between atoms: C_31  and  C_32
REMARK                            x       y       z     vdW  Elec       q    Type
REMARK                         _______ _______ _______ _____ _____    ______ ____
ROOT
ATOM      1  C   UNL     1      33.671 -21.414 -19.675  0.00  0.00    +0.139 C 
ATOM      2  C   UNL     1      35.113 -19.406 -20.968  0.00  0.00    -0.020 C 
ATOM      3  C   UNL     1      33.000 -20.439 -20.412  0.00  0.00    +0.037 C 
ATOM      4  C   UNL     1      35.063 -21.386 -19.584  0.00  0.00    +0.037 C 
ATOM      5  C   UNL     1      33.720 -19.434 -21.059  0.00  0.00    -0.001 C 
ATOM      6  C   UNL     1      35.784 -20.382 -20.230  0.00  0.00    -0.001 C 
ENDROOT
BRANCH   1   7
ATOM      7  O   UNL     1      32.963 -22.402 -19.041  0.00  0.00    -0.475 OA
BRANCH   7   8
ATOM      8  C   UNL     1      33.473 -22.860 -17.796  0.00  0.00    +0.205 C 
BRANCH   8   9
ATOM      9  C   UNL     1      32.309 -23.102 -16.847  0.00  0.00    +0.047 C 
BRANCH   9  10
ATOM     10  C   UNL     1      32.791 -23.531 -15.462  0.00  0.00    +0.004 C 
BRANCH  10  11
ATOM     11  C   UNL     1      34.284 -23.260 -15.291  0.00  0.00    -0.000 C 
BRANCH  11  13
ATOM     12  N   UNL     1      37.203 -25.292 -12.896  0.00  0.00    +0.384 N 
ATOM     13  C   UNL     1      34.949 -24.341 -14.443  0.00  0.00    -0.004 C 
ATOM     14  C   UNL     1      35.239 -23.821 -13.027  0.00  0.00    -0.023 C 
ATOM     15  C   UNL     1      36.238 -24.842 -15.110  0.00  0.00    -0.023 C 
ATOM     16  C   UNL     1      35.964 -24.860 -12.185  0.00  0.00    -0.082 C 
ATOM     17  C   UNL     1      36.953 -25.872 -14.249  0.00  0.00    -0.082 C 
ATOM     18  H   UNL     1      37.671 -25.997 -12.327  0.00  0.00    -0.085 HD
ATOM     19  H   UNL     1      37.773 -24.457 -13.032  0.00  0.00    -0.085 HD
ENDBRANCH  11  13
ENDBRANCH  10  11
ENDBRANCH   9  10
ENDBRANCH   8   9
ENDBRANCH   7   8
ENDBRANCH   1   7
BRANCH   2  20
ATOM     20  C   UNL     1      35.883 -18.334 -21.661  0.00  0.00    +0.055 C 
BRANCH  20  21
ATOM     21  C   UNL     1      34.996 -17.198 -22.189  0.00  0.00    +0.182 C 
BRANCH  21  24
ATOM     22  O   UNL     1      34.923 -14.844 -22.023  0.00  0.00    -0.244 OA
ATOM     23  O   UNL     1      34.949 -16.068 -20.095  0.00  0.00    -0.244 OA
ATOM     24  C   UNL     1      34.954 -15.914 -21.348  0.00  0.00    +0.381 C 
ENDBRANCH  21  24
BRANCH  21  25
ATOM     25  N   UNL     1      35.532 -16.733 -23.496  0.00  0.00    -0.173 NA
ATOM     26  H   UNL     1      35.648 -15.722 -23.429  0.00  0.00    +0.149 HD
BRANCH  25  27
ATOM     27  S   UNL     1      34.632 -17.041 -24.907  0.00  0.00    +0.041 S 
ATOM     28  O   UNL     1      33.909 -18.290 -24.773  0.00  0.00    -0.157 OA
ATOM     29  O   UNL     1      35.492 -16.800 -26.050  0.00  0.00    -0.157 OA
BRANCH  27  30
ATOM     30  C   UNL     1      33.451 -15.713 -24.842  0.00  0.00    +0.169 C 
BRANCH  30  31
ATOM     31  C   UNL     1      32.914 -15.382 -26.226  0.00  0.00    +0.027 C 
BRANCH  31  32
ATOM     32  C   UNL     1      32.679 -13.882 -26.385  0.00  0.00    +0.002 C 
ATOM     33  C   UNL     1      33.656 -13.267 -27.375  0.00  0.00    +0.000 C 
ENDBRANCH  31  32
ENDBRANCH  30  31
ENDBRANCH  27  30
ENDBRANCH  25  27
ENDBRANCH  21  25
ENDBRANCH  20  21
ENDBRANCH   2  20
TORSDOF 14
ENDMDL
MODEL 8
REMARK VINA RESULT:      -9.3      4.944     11.531
REMARK  Name = 40466968
REMARK  14 active torsions:
REMARK  status: ('A' for Active; 'I' for Inactive)
REMARK    1  A    between atoms: C_1  and  O_7
REMARK    2  A    between atoms: C_2  and  C_20
REMARK    3  A    between atoms: O_7  and  C_8
REMARK    4  A    between atoms: C_8  and  C_9
REMARK    5  A    between atoms: C_9  and  C_10
REMARK    6  A    between atoms: C_10  and  C_11
REMARK    7  A    between atoms: C_11  and  C_13
REMARK    8  A    between atoms: C_20  and  C_21
REMARK    9  A    between atoms: C_21  and  C_24
REMARK   10  A    between atoms: C_21  and  N_25
REMARK   11  A    between atoms: N_25  and  S_27
REMARK   12  A    between atoms: S_27  and  C_30
REMARK   13  A    between atoms: C_30  and  C_31
REMARK   14  A    between atoms: C_31  and  C_32
REMARK                            x       y       z     vdW  Elec       q    Type
REMARK                         _______ _______ _______ _____ _____    ______ ____
ROOT
ATOM      1  C   UNL     1      33.639 -21.310 -19.716  0.00  0.00    +0.139 C 
ATOM      2  C   UNL     1      35.066 -19.310 -21.040  0.00  0.00    -0.020 C 
ATOM      3  C   UNL     1      35.033 -21.357 -19.756  0.00  0.00    +0.037 C 
ATOM      4  C   UNL     1      32.959 -20.262 -20.337  0.00  0.00    +0.037 C 
ATOM      5  C   UNL     1      35.747 -20.359 -20.418  0.00  0.00    -0.001 C 
ATOM      6  C   UNL     1      33.672 -19.263 -20.999  0.00  0.00    -0.001 C 
ENDROOT
BRANCH   1   7
ATOM      7  O   UNL     1      32.939 -22.291 -19.064  0.00  0.00    -0.475 OA
BRANCH   7   8
ATOM      8  C   UNL     1      33.700 -23.259 -18.355  0.00  0.00    +0.205 C 
BRANCH   8   9
ATOM      9  C   UNL     1      33.826 -22.818 -16.903  0.00  0.00    +0.047 C 
BRANCH   9  10
ATOM     10  C   UNL     1      33.136 -23.796 -15.955  0.00  0.00    +0.004 C 
BRANCH  10  11
ATOM     11  C   UNL     1      32.397 -23.056 -14.843  0.00  0.00    -0.000 C 
BRANCH  11  13
ATOM     12  N   UNL     1      28.590 -24.394 -16.294  0.00  0.00    +0.384 N 
ATOM     13  C   UNL     1      30.885 -23.210 -14.986  0.00  0.00    -0.004 C 
ATOM     14  C   UNL     1      30.458 -24.661 -14.720  0.00  0.00    -0.023 C 
ATOM     15  C   UNL     1      30.420 -22.756 -16.377  0.00  0.00    -0.023 C 
ATOM     16  C   UNL     1      28.963 -24.853 -14.924  0.00  0.00    -0.082 C 
ATOM     17  C   UNL     1      28.924 -22.965 -16.565  0.00  0.00    -0.082 C 
ATOM     18  H   UNL     1      27.584 -24.516 -16.412  0.00  0.00    -0.085 HD
ATOM     19  H   UNL     1      29.132 -24.955 -16.952  0.00  0.00    -0.085 HD
ENDBRANCH  11  13
ENDBRANCH  10  11
ENDBRANCH   9  10
ENDBRANCH   8   9
ENDBRANCH   7   8
ENDBRANCH   1   7
BRANCH   2  20
ATOM     20  C   UNL     1      35.829 -18.241 -21.745  0.00  0.00    +0.055 C 
BRANCH  20  21
ATOM     21  C   UNL     1      34.944 -17.076 -22.212  0.00  0.00    +0.182 C 
BRANCH  21  24
ATOM     22  O   UNL     1      34.967 -16.070 -20.076  0.00  0.00    -0.244 OA
ATOM     23  O   UNL     1      34.885 -14.715 -21.913  0.00  0.00    -0.244 OA
ATOM     24  C   UNL     1      34.928 -15.827 -21.318  0.00  0.00    +0.381 C 
ENDBRANCH  21  24
BRANCH  21  25
ATOM     25  N   UNL     1      35.464 -16.563 -23.507  0.00  0.00    -0.173 NA
ATOM     26  H   UNL     1      35.542 -15.551 -23.418  0.00  0.00    +0.149 HD
BRANCH  25  27
ATOM     27  S   UNL     1      34.577 -16.873 -24.926  0.00  0.00    +0.041 S 
ATOM     28  O   UNL     1      33.823 -18.102 -24.782  0.00  0.00    -0.157 OA
ATOM     29  O   UNL     1      35.458 -16.672 -26.060  0.00  0.00    -0.157 OA
BRANCH  27  30
ATOM     30  C   UNL     1      33.428 -15.518 -24.900  0.00  0.00    +0.169 C 
BRANCH  30  31
ATOM     31  C   UNL     1      33.218 -14.943 -26.293  0.00  0.00    +0.027 C 
BRANCH  31  32
ATOM     32  C   UNL     1      33.157 -13.417 -26.259  0.00  0.00    +0.002 C 
ATOM     33  C   UNL     1      33.556 -12.874 -24.897  0.00  0.00    +0.000 C 
ENDBRANCH  31  32
ENDBRANCH  30  31
ENDBRANCH  27  30
ENDBRANCH  25  27
ENDBRANCH  21  25
ENDBRANCH  20  21
ENDBRANCH   2  20
TORSDOF 14
ENDMDL
MODEL 9
REMARK VINA RESULT:      -9.3      4.140     10.794
REMARK  Name = 40466968
REMARK  14 active torsions:
REMARK  status: ('A' for Active; 'I' for Inactive)
REMARK    1  A    between atoms: C_1  and  O_7
REMARK    2  A    between atoms: C_2  and  C_20
REMARK    3  A    between atoms: O_7  and  C_8
REMARK    4  A    between atoms: C_8  and  C_9
REMARK    5  A    between atoms: C_9  and  C_10
REMARK    6  A    between atoms: C_10  and  C_11
REMARK    7  A    between atoms: C_11  and  C_13
REMARK    8  A    between atoms: C_20  and  C_21
REMARK    9  A    between atoms: C_21  and  C_24
REMARK   10  A    between atoms: C_21  and  N_25
REMARK   11  A    between atoms: N_25  and  S_27
REMARK   12  A    between atoms: S_27  and  C_30
REMARK   13  A    between atoms: C_30  and  C_31
REMARK   14  A    between atoms: C_31  and  C_32
REMARK                            x       y       z     vdW  Elec       q    Type
REMARK                         _______ _______ _______ _____ _____    ______ ____
ROOT
ATOM      1  C   UNL     1      34.912 -21.840 -19.058  0.00  0.00    +0.139 C 
ATOM      2  C   UNL     1      34.055 -19.925 -20.898  0.00  0.00    -0.020 C 
ATOM      3  C   UNL     1      35.848 -21.077 -19.758  0.00  0.00    +0.037 C 
ATOM      4  C   UNL     1      33.549 -21.645 -19.278  0.00  0.00    +0.037 C 
ATOM      5  C   UNL     1      35.420 -20.120 -20.678  0.00  0.00    -0.001 C 
ATOM      6  C   UNL     1      33.120 -20.689 -20.198  0.00  0.00    -0.001 C 
ENDROOT
BRANCH   1   7
ATOM      7  O   UNL     1      35.333 -22.779 -18.153  0.00  0.00    -0.475 OA
BRANCH   7   8
ATOM      8  C   UNL     1      35.816 -22.297 -16.906  0.00  0.00    +0.205 C 
BRANCH   8   9
ATOM      9  C   UNL     1      35.193 -23.120 -15.787  0.00  0.00    +0.047 C 
BRANCH   9  10
ATOM     10  C   UNL     1      33.702 -23.351 -16.021  0.00  0.00    +0.004 C 
BRANCH  10  11
ATOM     11  C   UNL     1      32.989 -23.705 -14.718  0.00  0.00    -0.000 C 
BRANCH  11  13
ATOM     12  N   UNL     1      29.003 -24.336 -16.169  0.00  0.00    +0.384 N 
ATOM     13  C   UNL     1      31.475 -23.581 -14.864  0.00  0.00    -0.004 C 
ATOM     14  C   UNL     1      30.789 -24.926 -14.586  0.00  0.00    -0.023 C 
ATOM     15  C   UNL     1      31.103 -23.062 -16.261  0.00  0.00    -0.023 C 
ATOM     16  C   UNL     1      29.284 -24.842 -14.793  0.00  0.00    -0.082 C 
ATOM     17  C   UNL     1      29.595 -22.995 -16.451  0.00  0.00    -0.082 C 
ATOM     18  H   UNL     1      27.993 -24.272 -16.288  0.00  0.00    -0.085 HD
ATOM     19  H   UNL     1      29.435 -24.993 -16.819  0.00  0.00    -0.085 HD
ENDBRANCH  11  13
ENDBRANCH  10  11
ENDBRANCH   9  10
ENDBRANCH   8   9
ENDBRANCH   7   8
ENDBRANCH   1   7
BRANCH   2  20
ATOM     20  C   UNL     1      33.598 -18.900 -21.879  0.00  0.00    +0.055 C 
BRANCH  20  21
ATOM     21  C   UNL     1      34.754 -18.212 -22.617  0.00  0.00    +0.182 C 
BRANCH  21  24
ATOM     22  O   UNL     1      35.010 -19.796 -24.349  0.00  0.00    -0.244 OA
ATOM     23  O   UNL     1      34.941 -17.582 -24.905  0.00  0.00    -0.244 OA
ATOM     24  C   UNL     1      34.919 -18.558 -24.104  0.00  0.00    +0.381 C 
ENDBRANCH  21  24
BRANCH  21  25
ATOM     25  N   UNL     1      34.514 -16.745 -22.632  0.00  0.00    -0.173 NA
ATOM     26  H   UNL     1      35.350 -16.309 -23.020  0.00  0.00    +0.149 HD
BRANCH  25  27
ATOM     27  S   UNL     1      34.174 -15.956 -21.163  0.00  0.00    +0.041 S 
ATOM     28  O   UNL     1      35.178 -16.292 -20.174  0.00  0.00    -0.157 OA
ATOM     29  O   UNL     1      32.762 -16.128 -20.876  0.00  0.00    -0.157 OA
BRANCH  27  30
ATOM     30  C   UNL     1      34.416 -14.259 -21.636  0.00  0.00    +0.169 C 
BRANCH  30  31
ATOM     31  C   UNL     1      34.096 -14.043 -23.107  0.00  0.00    +0.027 C 
BRANCH  31  32
ATOM     32  C   UNL     1      32.643 -13.614 -23.301  0.00  0.00    +0.002 C 
ATOM     33  C   UNL     1      32.137 -12.808 -22.114  0.00  0.00    +0.000 C 
ENDBRANCH  31  32
ENDBRANCH  30  31
ENDBRANCH  27  30
ENDBRANCH  25  27
ENDBRANCH  21  25
ENDBRANCH  20  21
ENDBRANCH   2  20
TORSDOF 14
ENDMDL
