MODEL 1
REMARK VINA RESULT:      -6.1      0.000      0.000
REMARK  Name = 9797017
REMARK  10 active torsions:
REMARK  status: ('A' for Active; 'I' for Inactive)
REMARK    1  A    between atoms: C_1  and  C_2
REMARK    2  A    between atoms: C_1  and  C_11
REMARK    3  A    between atoms: C_2  and  N_3
REMARK    4  A    between atoms: C_2  and  C_8
REMARK    5  A    between atoms: C_8  and  O_9
REMARK    6  A    between atoms: C_11  and  S_12
REMARK    7  A    between atoms: S_12  and  C_13
REMARK    8  A    between atoms: C_13  and  C_14
REMARK    9  A    between atoms: C_14  and  N_15
REMARK   10  A    between atoms: N_15  and  C_17
REMARK                            x       y       z     vdW  Elec       q    Type
REMARK                         _______ _______ _______ _____ _____    ______ ____
ROOT
ATOM      1  C   UNK     1      37.819 -24.344 -14.598  0.00  0.00    +0.001 C 
ENDROOT
BRANCH   1   2
ATOM      2  C   UNK     1      38.680 -25.608 -14.462  0.00  0.00    +0.037 C 
BRANCH   2   3
ATOM      3  N   UNK     1      38.737 -26.004 -13.051  0.00  0.00    +0.389 N 
ATOM      4  H   UNK     1      38.382 -26.955 -12.950  0.00  0.00    -0.088 HD
ATOM      5  H   UNK     1      38.165 -25.367 -12.496  0.00  0.00    -0.088 HD
ATOM      6  H   UNK     1      39.702 -25.965 -12.726  0.00  0.00    -0.088 HD
ENDBRANCH   2   3
BRANCH   2   8
ATOM      7  O   UNK     1      40.928 -24.688 -14.262  0.00  0.00    -0.253 OA
ATOM      8  C   UNK     1      40.111 -25.346 -14.895  0.00  0.00    +0.293 C 
BRANCH   8   9
ATOM      9  O   UNK     1      40.413 -25.950 -16.073  0.00  0.00    -0.482 OA
ATOM     10  H   UNK     1      41.257 -26.337 -16.199  0.00  0.00    +0.295 HD
ENDBRANCH   8   9
ENDBRANCH   2   8
ENDBRANCH   1   2
BRANCH   1  11
ATOM     11  C   UNK     1      36.364 -24.580 -15.013  0.00  0.00    +0.056 C 
BRANCH  11  12
ATOM     12  S   UNK     1      35.576 -23.106 -15.726  0.00  0.00    -0.138 S 
BRANCH  12  13
ATOM     13  C   UNK     1      33.878 -23.722 -15.790  0.00  0.00    +0.081 C 
BRANCH  13  14
ATOM     14  C   UNK     1      33.146 -23.157 -16.997  0.00  0.00    +0.125 C 
BRANCH  14  15
ATOM     15  N   UNK     1      33.995 -23.317 -18.179  0.00  0.00    -0.225 NA
BRANCH  15  17
ATOM     16  N   UNK     1      32.923 -21.845 -19.752  0.00  0.00    -0.389 N 
ATOM     17  C   UNK     1      33.980 -22.351 -19.032  0.00  0.00    +0.095 C 
ATOM     18  C   UNK     1      35.313 -21.683 -19.295  0.00  0.00    +0.068 C 
ATOM     19  H   UNK     1      32.022 -22.226 -19.638  0.00  0.00    +0.157 HD
ATOM     20  H   UNK     1      33.066 -21.101 -20.380  0.00  0.00    +0.157 HD
ENDBRANCH  15  17
ENDBRANCH  14  15
ENDBRANCH  13  14
ENDBRANCH  12  13
ENDBRANCH  11  12
ENDBRANCH   1  11
TORSDOF 10
ENDMDL
MODEL 2
REMARK VINA RESULT:      -6.0      2.374      2.832
REMARK  Name = 9797017
REMARK  10 active torsions:
REMARK  status: ('A' for Active; 'I' for Inactive)
REMARK    1  A    between atoms: C_1  and  C_2
REMARK    2  A    between atoms: C_1  and  C_11
REMARK    3  A    between atoms: C_2  and  N_3
REMARK    4  A    between atoms: C_2  and  C_8
REMARK    5  A    between atoms: C_8  and  O_9
REMARK    6  A    between atoms: C_11  and  S_12
REMARK    7  A    between atoms: S_12  and  C_13
REMARK    8  A    between atoms: C_13  and  C_14
REMARK    9  A    between atoms: C_14  and  N_15
REMARK   10  A    between atoms: N_15  and  C_17
REMARK                            x       y       z     vdW  Elec       q    Type
REMARK                         _______ _______ _______ _____ _____    ______ ____
ROOT
ATOM      1  C   UNK     1      38.602 -25.097 -13.048  0.00  0.00    +0.001 C 
ENDROOT
BRANCH   1   2
ATOM      2  C   UNK     1      38.944 -25.150 -14.544  0.00  0.00    +0.037 C 
BRANCH   2   3
ATOM      3  N   UNK     1      37.894 -25.889 -15.254  0.00  0.00    +0.389 N 
ATOM      4  H   UNK     1      37.168 -25.241 -15.558  0.00  0.00    -0.088 HD
ATOM      5  H   UNK     1      37.489 -26.587 -14.630  0.00  0.00    -0.088 HD
ATOM      6  H   UNK     1      38.297 -26.354 -16.067  0.00  0.00    -0.088 HD
ENDBRANCH   2   3
BRANCH   2   8
ATOM      7  O   UNK     1      40.935 -26.403 -13.908  0.00  0.00    -0.253 OA
ATOM      8  C   UNK     1      40.240 -25.903 -14.784  0.00  0.00    +0.293 C 
BRANCH   8   9
ATOM      9  O   UNK     1      40.549 -25.992 -16.103  0.00  0.00    -0.482 OA
ATOM     10  H   UNK     1      41.373 -26.349 -16.368  0.00  0.00    +0.295 HD
ENDBRANCH   8   9
ENDBRANCH   2   8
ENDBRANCH   1   2
BRANCH   1  11
ATOM     11  C   UNK     1      37.311 -25.814 -12.642  0.00  0.00    +0.056 C 
BRANCH  11  12
ATOM     12  S   UNK     1      36.110 -24.720 -11.829  0.00  0.00    -0.138 S 
BRANCH  12  13
ATOM     13  C   UNK     1      35.687 -23.692 -13.254  0.00  0.00    +0.081 C 
BRANCH  13  14
ATOM     14  C   UNK     1      34.749 -24.435 -14.193  0.00  0.00    +0.125 C 
BRANCH  14  15
ATOM     15  N   UNK     1      35.342 -24.451 -15.532  0.00  0.00    -0.225 NA
BRANCH  15  17
ATOM     16  N   UNK     1      36.073 -22.420 -16.596  0.00  0.00    -0.389 N 
ATOM     17  C   UNK     1      35.167 -23.396 -16.251  0.00  0.00    +0.095 C 
ATOM     18  C   UNK     1      33.765 -23.188 -16.785  0.00  0.00    +0.068 C 
ATOM     19  H   UNK     1      37.005 -22.483 -16.287  0.00  0.00    +0.157 HD
ATOM     20  H   UNK     1      35.788 -21.659 -17.151  0.00  0.00    +0.157 HD
ENDBRANCH  15  17
ENDBRANCH  14  15
ENDBRANCH  13  14
ENDBRANCH  12  13
ENDBRANCH  11  12
ENDBRANCH   1  11
TORSDOF 10
ENDMDL
MODEL 3
REMARK VINA RESULT:      -6.0      6.102      7.692
REMARK  Name = 9797017
REMARK  10 active torsions:
REMARK  status: ('A' for Active; 'I' for Inactive)
REMARK    1  A    between atoms: C_1  and  C_2
REMARK    2  A    between atoms: C_1  and  C_11
REMARK    3  A    between atoms: C_2  and  N_3
REMARK    4  A    between atoms: C_2  and  C_8
REMARK    5  A    between atoms: C_8  and  O_9
REMARK    6  A    between atoms: C_11  and  S_12
REMARK    7  A    between atoms: S_12  and  C_13
REMARK    8  A    between atoms: C_13  and  C_14
REMARK    9  A    between atoms: C_14  and  N_15
REMARK   10  A    between atoms: N_15  and  C_17
REMARK                            x       y       z     vdW  Elec       q    Type
REMARK                         _______ _______ _______ _____ _____    ______ ____
ROOT
ATOM      1  C   UNK     1      29.914 -22.700 -15.127  0.00  0.00    +0.001 C 
ENDROOT
BRANCH   1   2
ATOM      2  C   UNK     1      28.667 -23.491 -15.549  0.00  0.00    +0.037 C 
BRANCH   2   3
ATOM      3  N   UNK     1      29.060 -24.857 -15.908  0.00  0.00    +0.389 N 
ATOM      4  H   UNK     1      30.048 -24.872 -16.162  0.00  0.00    -0.088 HD
ATOM      5  H   UNK     1      28.501 -25.175 -16.700  0.00  0.00    -0.088 HD
ATOM      6  H   UNK     1      28.905 -25.476 -15.112  0.00  0.00    -0.088 HD
ENDBRANCH   2   3
BRANCH   2   8
ATOM      7  O   UNK     1      27.899 -21.686 -16.996  0.00  0.00    -0.253 OA
ATOM      8  C   UNK     1      28.027 -22.886 -16.786  0.00  0.00    +0.293 C 
BRANCH   8   9
ATOM      9  O   UNK     1      27.620 -23.832 -17.671  0.00  0.00    -0.482 OA
ATOM     10  H   UNK     1      27.731 -24.740 -17.471  0.00  0.00    +0.295 HD
ENDBRANCH   8   9
ENDBRANCH   2   8
ENDBRANCH   1   2
BRANCH   1  11
ATOM     11  C   UNK     1      31.208 -23.070 -15.859  0.00  0.00    +0.056 C 
BRANCH  11  12
ATOM     12  S   UNK     1      32.571 -23.491 -14.734  0.00  0.00    -0.138 S 
BRANCH  12  13
ATOM     13  C   UNK     1      33.907 -23.540 -15.949  0.00  0.00    +0.081 C 
BRANCH  13  14
ATOM     14  C   UNK     1      33.379 -23.236 -17.342  0.00  0.00    +0.125 C 
BRANCH  14  15
ATOM     15  N   UNK     1      34.485 -22.745 -18.168  0.00  0.00    -0.225 NA
BRANCH  15  17
ATOM     16  N   UNK     1      32.929 -21.823 -19.755  0.00  0.00    -0.389 N 
ATOM     17  C   UNK     1      34.165 -22.024 -19.186  0.00  0.00    +0.095 C 
ATOM     18  C   UNK     1      35.309 -21.301 -19.866  0.00  0.00    +0.068 C 
ATOM     19  H   UNK     1      32.134 -22.258 -19.371  0.00  0.00    +0.157 HD
ATOM     20  H   UNK     1      32.839 -21.243 -20.545  0.00  0.00    +0.157 HD
ENDBRANCH  15  17
ENDBRANCH  14  15
ENDBRANCH  13  14
ENDBRANCH  12  13
ENDBRANCH  11  12
ENDBRANCH   1  11
TORSDOF 10
ENDMDL
MODEL 4
REMARK VINA RESULT:      -5.9      2.059      2.530
REMARK  Name = 9797017
REMARK  10 active torsions:
REMARK  status: ('A' for Active; 'I' for Inactive)
REMARK    1  A    between atoms: C_1  and  C_2
REMARK    2  A    between atoms: C_1  and  C_11
REMARK    3  A    between atoms: C_2  and  N_3
REMARK    4  A    between atoms: C_2  and  C_8
REMARK    5  A    between atoms: C_8  and  O_9
REMARK    6  A    between atoms: C_11  and  S_12
REMARK    7  A    between atoms: S_12  and  C_13
REMARK    8  A    between atoms: C_13  and  C_14
REMARK    9  A    between atoms: C_14  and  N_15
REMARK   10  A    between atoms: N_15  and  C_17
REMARK                            x       y       z     vdW  Elec       q    Type
REMARK                         _______ _______ _______ _____ _____    ______ ____
ROOT
ATOM      1  C   UNK     1      37.554 -24.452 -14.377  0.00  0.00    +0.001 C 
ENDROOT
BRANCH   1   2
ATOM      2  C   UNK     1      36.732 -25.741 -14.237  0.00  0.00    +0.037 C 
BRANCH   2   3
ATOM      3  N   UNK     1      36.865 -26.252 -12.868  0.00  0.00    +0.389 N 
ATOM      4  H   UNK     1      36.015 -26.752 -12.608  0.00  0.00    -0.088 HD
ATOM      5  H   UNK     1      37.012 -25.472 -12.227  0.00  0.00    -0.088 HD
ATOM      6  H   UNK     1      37.661 -26.887 -12.819  0.00  0.00    -0.088 HD
ENDBRANCH   2   3
BRANCH   2   8
ATOM      7  O   UNK     1      36.672 -27.255 -16.146  0.00  0.00    -0.253 OA
ATOM      8  C   UNK     1      37.256 -26.829 -15.157  0.00  0.00    +0.293 C 
BRANCH   8   9
ATOM      9  O   UNK     1      38.481 -27.279 -14.780  0.00  0.00    -0.482 OA
ATOM     10  H   UNK     1      39.241 -26.757 -14.939  0.00  0.00    +0.295 HD
ENDBRANCH   8   9
ENDBRANCH   2   8
ENDBRANCH   1   2
BRANCH   1  11
ATOM     11  C   UNK     1      36.770 -23.148 -14.207  0.00  0.00    +0.056 C 
BRANCH  11  12
ATOM     12  S   UNK     1      35.757 -22.728 -15.656  0.00  0.00    -0.138 S 
BRANCH  12  13
ATOM     13  C   UNK     1      37.067 -22.057 -16.705  0.00  0.00    +0.081 C 
BRANCH  13  14
ATOM     14  C   UNK     1      36.518 -21.667 -18.068  0.00  0.00    +0.125 C 
BRANCH  14  15
ATOM     15  N   UNK     1      35.264 -22.391 -18.294  0.00  0.00    -0.225 NA
BRANCH  15  17
ATOM     16  N   UNK     1      33.138 -22.187 -19.402  0.00  0.00    -0.389 N 
ATOM     17  C   UNK     1      34.460 -21.887 -19.165  0.00  0.00    +0.095 C 
ATOM     18  C   UNK     1      35.048 -20.823 -20.068  0.00  0.00    +0.068 C 
ATOM     19  H   UNK     1      32.683 -22.868 -18.857  0.00  0.00    +0.157 HD
ATOM     20  H   UNK     1      32.648 -21.719 -20.116  0.00  0.00    +0.157 HD
ENDBRANCH  15  17
ENDBRANCH  14  15
ENDBRANCH  13  14
ENDBRANCH  12  13
ENDBRANCH  11  12
ENDBRANCH   1  11
TORSDOF 10
ENDMDL
MODEL 5
REMARK VINA RESULT:      -5.8      2.371      2.754
REMARK  Name = 9797017
REMARK  10 active torsions:
REMARK  status: ('A' for Active; 'I' for Inactive)
REMARK    1  A    between atoms: C_1  and  C_2
REMARK    2  A    between atoms: C_1  and  C_11
REMARK    3  A    between atoms: C_2  and  N_3
REMARK    4  A    between atoms: C_2  and  C_8
REMARK    5  A    between atoms: C_8  and  O_9
REMARK    6  A    between atoms: C_11  and  S_12
REMARK    7  A    between atoms: S_12  and  C_13
REMARK    8  A    between atoms: C_13  and  C_14
REMARK    9  A    between atoms: C_14  and  N_15
REMARK   10  A    between atoms: N_15  and  C_17
REMARK                            x       y       z     vdW  Elec       q    Type
REMARK                         _______ _______ _______ _____ _____    ______ ____
ROOT
ATOM      1  C   UNK     1      37.721 -24.552 -14.620  0.00  0.00    +0.001 C 
ENDROOT
BRANCH   1   2
ATOM      2  C   UNK     1      38.595 -24.989 -13.435  0.00  0.00    +0.037 C 
BRANCH   2   3
ATOM      3  N   UNK     1      39.328 -26.206 -13.798  0.00  0.00    +0.389 N 
ATOM      4  H   UNK     1      39.858 -26.538 -12.992  0.00  0.00    -0.088 HD
ATOM      5  H   UNK     1      39.968 -26.001 -14.565  0.00  0.00    -0.088 HD
ATOM      6  H   UNK     1      38.667 -26.926 -14.090  0.00  0.00    -0.088 HD
ENDBRANCH   2   3
BRANCH   2   8
ATOM      7  O   UNK     1      37.064 -26.353 -12.117  0.00  0.00    -0.253 OA
ATOM      8  C   UNK     1      37.745 -25.341 -12.227  0.00  0.00    +0.293 C 
BRANCH   8   9
ATOM      9  O   UNK     1      37.836 -24.410 -11.242  0.00  0.00    -0.482 OA
ATOM     10  H   UNK     1      37.507 -23.545 -11.383  0.00  0.00    +0.295 HD
ENDBRANCH   8   9
ENDBRANCH   2   8
ENDBRANCH   1   2
BRANCH   1  11
ATOM     11  C   UNK     1      36.926 -23.260 -14.412  0.00  0.00    +0.056 C 
BRANCH  11  12
ATOM     12  S   UNK     1      35.851 -22.848 -15.817  0.00  0.00    -0.138 S 
BRANCH  12  13
ATOM     13  C   UNK     1      37.097 -22.095 -16.888  0.00  0.00    +0.081 C 
BRANCH  13  14
ATOM     14  C   UNK     1      36.485 -21.684 -18.218  0.00  0.00    +0.125 C 
BRANCH  14  15
ATOM     15  N   UNK     1      35.187 -22.347 -18.363  0.00  0.00    -0.225 NA
BRANCH  15  17
ATOM     16  N   UNK     1      33.135 -22.288 -19.619  0.00  0.00    -0.389 N 
ATOM     17  C   UNK     1      34.403 -21.882 -19.274  0.00  0.00    +0.095 C 
ATOM     18  C   UNK     1      34.953 -20.733 -20.093  0.00  0.00    +0.068 C 
ATOM     19  H   UNK     1      32.707 -23.030 -19.133  0.00  0.00    +0.157 HD
ATOM     20  H   UNK     1      32.655 -21.837 -20.350  0.00  0.00    +0.157 HD
ENDBRANCH  15  17
ENDBRANCH  14  15
ENDBRANCH  13  14
ENDBRANCH  12  13
ENDBRANCH  11  12
ENDBRANCH   1  11
TORSDOF 10
ENDMDL
MODEL 6
REMARK VINA RESULT:      -5.8      3.184      3.804
REMARK  Name = 9797017
REMARK  10 active torsions:
REMARK  status: ('A' for Active; 'I' for Inactive)
REMARK    1  A    between atoms: C_1  and  C_2
REMARK    2  A    between atoms: C_1  and  C_11
REMARK    3  A    between atoms: C_2  and  N_3
REMARK    4  A    between atoms: C_2  and  C_8
REMARK    5  A    between atoms: C_8  and  O_9
REMARK    6  A    between atoms: C_11  and  S_12
REMARK    7  A    between atoms: S_12  and  C_13
REMARK    8  A    between atoms: C_13  and  C_14
REMARK    9  A    between atoms: C_14  and  N_15
REMARK   10  A    between atoms: N_15  and  C_17
REMARK                            x       y       z     vdW  Elec       q    Type
REMARK                         _______ _______ _______ _____ _____    ______ ____
ROOT
ATOM      1  C   UNK     1      37.416 -25.775 -12.615  0.00  0.00    +0.001 C 
ENDROOT
BRANCH   1   2
ATOM      2  C   UNK     1      37.025 -24.388 -12.085  0.00  0.00    +0.037 C 
BRANCH   2   3
ATOM      3  N   UNK     1      38.184 -23.779 -11.424  0.00  0.00    +0.389 N 
ATOM      4  H   UNK     1      38.282 -22.811 -11.731  0.00  0.00    -0.088 HD
ATOM      5  H   UNK     1      39.027 -24.300 -11.667  0.00  0.00    -0.088 HD
ATOM      6  H   UNK     1      38.050 -23.803 -10.413  0.00  0.00    -0.088 HD
ENDBRANCH   2   3
BRANCH   2   8
ATOM      7  O   UNK     1      36.067 -24.204  -9.851  0.00  0.00    -0.253 OA
ATOM      8  C   UNK     1      35.933 -24.489 -11.035  0.00  0.00    +0.293 C 
BRANCH   8   9
ATOM      9  O   UNK     1      34.753 -24.915 -11.556  0.00  0.00    -0.482 OA
ATOM     10  H   UNK     1      33.946 -24.566 -11.235  0.00  0.00    +0.295 HD
ENDBRANCH   8   9
ENDBRANCH   2   8
ENDBRANCH   1   2
BRANCH   1  11
ATOM     11  C   UNK     1      37.529 -25.892 -14.137  0.00  0.00    +0.056 C 
BRANCH  11  12
ATOM     12  S   UNK     1      35.959 -25.578 -14.997  0.00  0.00    -0.138 S 
BRANCH  12  13
ATOM     13  C   UNK     1      36.238 -23.844 -15.425  0.00  0.00    +0.081 C 
BRANCH  13  14
ATOM     14  C   UNK     1      34.919 -23.139 -15.698  0.00  0.00    +0.125 C 
BRANCH  14  15
ATOM     15  N   UNK     1      34.520 -23.406 -17.082  0.00  0.00    -0.225 NA
BRANCH  15  17
ATOM     16  N   UNK     1      32.866 -22.499 -18.576  0.00  0.00    -0.389 N 
ATOM     17  C   UNK     1      33.320 -23.070 -17.409  0.00  0.00    +0.095 C 
ATOM     18  C   UNK     1      32.256 -23.325 -16.363  0.00  0.00    +0.068 C 
ATOM     19  H   UNK     1      33.496 -22.302 -19.306  0.00  0.00    +0.157 HD
ATOM     20  H   UNK     1      31.910 -22.289 -18.681  0.00  0.00    +0.157 HD
ENDBRANCH  15  17
ENDBRANCH  14  15
ENDBRANCH  13  14
ENDBRANCH  12  13
ENDBRANCH  11  12
ENDBRANCH   1  11
TORSDOF 10
ENDMDL
MODEL 7
REMARK VINA RESULT:      -5.8      3.575      3.885
REMARK  Name = 9797017
REMARK  10 active torsions:
REMARK  status: ('A' for Active; 'I' for Inactive)
REMARK    1  A    between atoms: C_1  and  C_2
REMARK    2  A    between atoms: C_1  and  C_11
REMARK    3  A    between atoms: C_2  and  N_3
REMARK    4  A    between atoms: C_2  and  C_8
REMARK    5  A    between atoms: C_8  and  O_9
REMARK    6  A    between atoms: C_11  and  S_12
REMARK    7  A    between atoms: S_12  and  C_13
REMARK    8  A    between atoms: C_13  and  C_14
REMARK    9  A    between atoms: C_14  and  N_15
REMARK   10  A    between atoms: N_15  and  C_17
REMARK                            x       y       z     vdW  Elec       q    Type
REMARK                         _______ _______ _______ _____ _____    ______ ____
ROOT
ATOM      1  C   UNK     1      37.865 -25.969 -14.116  0.00  0.00    +0.001 C 
ENDROOT
BRANCH   1   2
ATOM      2  C   UNK     1      39.099 -25.097 -14.388  0.00  0.00    +0.037 C 
BRANCH   2   3
ATOM      3  N   UNK     1      38.840 -24.245 -15.554  0.00  0.00    +0.389 N 
ATOM      4  H   UNK     1      38.614 -24.829 -16.359  0.00  0.00    -0.088 HD
ATOM      5  H   UNK     1      39.670 -23.689 -15.759  0.00  0.00    -0.088 HD
ATOM      6  H   UNK     1      38.057 -23.624 -15.353  0.00  0.00    -0.088 HD
ENDBRANCH   2   3
BRANCH   2   8
ATOM      7  O   UNK     1      41.000 -26.552 -13.925  0.00  0.00    -0.253 OA
ATOM      8  C   UNK     1      40.307 -25.949 -14.736  0.00  0.00    +0.293 C 
BRANCH   8   9
ATOM      9  O   UNK     1      40.536 -25.998 -16.074  0.00  0.00    -0.482 OA
ATOM     10  H   UNK     1      40.985 -26.731 -16.445  0.00  0.00    +0.295 HD
ENDBRANCH   8   9
ENDBRANCH   2   8
ENDBRANCH   1   2
BRANCH   1  11
ATOM     11  C   UNK     1      36.694 -25.258 -13.432  0.00  0.00    +0.056 C 
BRANCH  11  12
ATOM     12  S   UNK     1      35.380 -24.770 -14.589  0.00  0.00    -0.138 S 
BRANCH  12  13
ATOM     13  C   UNK     1      34.139 -24.265 -13.377  0.00  0.00    +0.081 C 
BRANCH  13  14
ATOM     14  C   UNK     1      32.889 -23.745 -14.071  0.00  0.00    +0.125 C 
BRANCH  14  15
ATOM     15  N   UNK     1      31.713 -24.230 -13.346  0.00  0.00    -0.225 NA
BRANCH  15  17
ATOM     16  N   UNK     1      29.820 -25.439 -14.209  0.00  0.00    -0.389 N 
ATOM     17  C   UNK     1      30.623 -24.338 -14.025  0.00  0.00    +0.095 C 
ATOM     18  C   UNK     1      30.162 -23.082 -14.734  0.00  0.00    +0.068 C 
ATOM     19  H   UNK     1      30.051 -26.294 -13.780  0.00  0.00    +0.157 HD
ATOM     20  H   UNK     1      29.012 -25.371 -14.767  0.00  0.00    +0.157 HD
ENDBRANCH  15  17
ENDBRANCH  14  15
ENDBRANCH  13  14
ENDBRANCH  12  13
ENDBRANCH  11  12
ENDBRANCH   1  11
TORSDOF 10
ENDMDL
MODEL 8
REMARK VINA RESULT:      -5.8      1.802      2.079
REMARK  Name = 9797017
REMARK  10 active torsions:
REMARK  status: ('A' for Active; 'I' for Inactive)
REMARK    1  A    between atoms: C_1  and  C_2
REMARK    2  A    between atoms: C_1  and  C_11
REMARK    3  A    between atoms: C_2  and  N_3
REMARK    4  A    between atoms: C_2  and  C_8
REMARK    5  A    between atoms: C_8  and  O_9
REMARK    6  A    between atoms: C_11  and  S_12
REMARK    7  A    between atoms: S_12  and  C_13
REMARK    8  A    between atoms: C_13  and  C_14
REMARK    9  A    between atoms: C_14  and  N_15
REMARK   10  A    between atoms: N_15  and  C_17
REMARK                            x       y       z     vdW  Elec       q    Type
REMARK                         _______ _______ _______ _____ _____    ______ ____
ROOT
ATOM      1  C   UNK     1      35.645 -24.922 -14.795  0.00  0.00    +0.001 C 
ENDROOT
BRANCH   1   2
ATOM      2  C   UNK     1      36.761 -25.667 -14.048  0.00  0.00    +0.037 C 
BRANCH   2   3
ATOM      3  N   UNK     1      37.773 -24.702 -13.605  0.00  0.00    +0.389 N 
ATOM      4  H   UNK     1      37.904 -23.992 -14.325  0.00  0.00    -0.088 HD
ATOM      5  H   UNK     1      38.656 -25.187 -13.441  0.00  0.00    -0.088 HD
ATOM      6  H   UNK     1      37.464 -24.258 -12.741  0.00  0.00    -0.088 HD
ENDBRANCH   2   3
BRANCH   2   8
ATOM      7  O   UNK     1      38.583 -27.123 -14.757  0.00  0.00    -0.253 OA
ATOM      8  C   UNK     1      37.472 -26.649 -14.962  0.00  0.00    +0.293 C 
BRANCH   8   9
ATOM      9  O   UNK     1      36.724 -26.980 -16.046  0.00  0.00    -0.482 OA
ATOM     10  H   UNK     1      35.861 -27.325 -15.933  0.00  0.00    +0.295 HD
ENDBRANCH   8   9
ENDBRANCH   2   8
ENDBRANCH   1   2
BRANCH   1  11
ATOM     11  C   UNK     1      34.557 -24.307 -13.910  0.00  0.00    +0.056 C 
BRANCH  11  12
ATOM     12  S   UNK     1      33.220 -23.527 -14.860  0.00  0.00    -0.138 S 
BRANCH  12  13
ATOM     13  C   UNK     1      34.046 -23.456 -16.466  0.00  0.00    +0.081 C 
BRANCH  13  14
ATOM     14  C   UNK     1      33.046 -23.157 -17.573  0.00  0.00    +0.125 C 
BRANCH  14  15
ATOM     15  N   UNK     1      33.766 -23.071 -18.845  0.00  0.00    -0.225 NA
BRANCH  15  17
ATOM     16  N   UNK     1      32.884 -21.032 -19.771  0.00  0.00    -0.389 N 
ATOM     17  C   UNK     1      33.874 -21.898 -19.366  0.00  0.00    +0.095 C 
ATOM     18  C   UNK     1      35.288 -21.399 -19.578  0.00  0.00    +0.068 C 
ATOM     19  H   UNK     1      31.938 -21.283 -19.666  0.00  0.00    +0.157 HD
ATOM     20  H   UNK     1      33.122 -20.161 -20.163  0.00  0.00    +0.157 HD
ENDBRANCH  15  17
ENDBRANCH  14  15
ENDBRANCH  13  14
ENDBRANCH  12  13
ENDBRANCH  11  12
ENDBRANCH   1  11
TORSDOF 10
ENDMDL
MODEL 9
REMARK VINA RESULT:      -5.7      9.273     12.032
REMARK  Name = 9797017
REMARK  10 active torsions:
REMARK  status: ('A' for Active; 'I' for Inactive)
REMARK    1  A    between atoms: C_1  and  C_2
REMARK    2  A    between atoms: C_1  and  C_11
REMARK    3  A    between atoms: C_2  and  N_3
REMARK    4  A    between atoms: C_2  and  C_8
REMARK    5  A    between atoms: C_8  and  O_9
REMARK    6  A    between atoms: C_11  and  S_12
REMARK    7  A    between atoms: S_12  and  C_13
REMARK    8  A    between atoms: C_13  and  C_14
REMARK    9  A    between atoms: C_14  and  N_15
REMARK   10  A    between atoms: N_15  and  C_17
REMARK                            x       y       z     vdW  Elec       q    Type
REMARK                         _______ _______ _______ _____ _____    ______ ____
ROOT
ATOM      1  C   UNK     1      33.975 -15.293 -22.528  0.00  0.00    +0.001 C 
ENDROOT
BRANCH   1   2
ATOM      2  C   UNK     1      33.179 -14.078 -23.023  0.00  0.00    +0.037 C 
BRANCH   2   3
ATOM      3  N   UNK     1      34.110 -13.063 -23.528  0.00  0.00    +0.389 N 
ATOM      4  H   UNK     1      34.971 -13.089 -22.981  0.00  0.00    -0.088 HD
ATOM      5  H   UNK     1      33.683 -12.141 -23.448  0.00  0.00    -0.088 HD
ATOM      6  H   UNK     1      34.324 -13.255 -24.506  0.00  0.00    -0.088 HD
ENDBRANCH   2   3
BRANCH   2   8
ATOM      7  O   UNK     1      32.577 -13.662 -20.698  0.00  0.00    -0.253 OA
ATOM      8  C   UNK     1      32.406 -13.429 -21.889  0.00  0.00    +0.293 C 
BRANCH   8   9
ATOM      9  O   UNK     1      31.501 -12.520 -22.334  0.00  0.00    -0.482 OA
ATOM     10  H   UNK     1      30.690 -12.405 -21.880  0.00  0.00    +0.295 HD
ENDBRANCH   8   9
ENDBRANCH   2   8
ENDBRANCH   1   2
BRANCH   1  11
ATOM     11  C   UNK     1      34.973 -15.881 -23.530  0.00  0.00    +0.056 C 
BRANCH  11  12
ATOM     12  S   UNK     1      34.190 -16.459 -25.064  0.00  0.00    -0.138 S 
BRANCH  12  13
ATOM     13  C   UNK     1      34.550 -18.222 -24.893  0.00  0.00    +0.081 C 
BRANCH  13  14
ATOM     14  C   UNK     1      35.379 -18.483 -23.645  0.00  0.00    +0.125 C 
BRANCH  14  15
ATOM     15  N   UNK     1      34.649 -19.414 -22.782  0.00  0.00    -0.225 NA
BRANCH  15  17
ATOM     16  N   UNK     1      35.476 -18.311 -20.810  0.00  0.00    -0.389 N 
ATOM     17  C   UNK     1      34.649 -19.150 -21.521  0.00  0.00    +0.095 C 
ATOM     18  C   UNK     1      33.603 -19.869 -20.696  0.00  0.00    +0.068 C 
ATOM     19  H   UNK     1      36.183 -17.808 -21.274  0.00  0.00    +0.157 HD
ATOM     20  H   UNK     1      35.361 -18.215 -19.837  0.00  0.00    +0.157 HD
ENDBRANCH  15  17
ENDBRANCH  14  15
ENDBRANCH  13  14
ENDBRANCH  12  13
ENDBRANCH  11  12
ENDBRANCH   1  11
TORSDOF 10
ENDMDL
