MODEL 1
REMARK VINA RESULT:      -8.4      0.000      0.000
REMARK  Name = 159738
REMARK  6 active torsions:
REMARK  status: ('A' for Active; 'I' for Inactive)
REMARK    1  A    between atoms: N_1  and  C1*_12
REMARK    2  A    between atoms: C_7  and  N_22
REMARK    3  A    between atoms: C2*_11  and  O2*_15
REMARK    4  A    between atoms: C3*_13  and  O3*_17
REMARK    5  A    between atoms: C4*_14  and  C5*_19
REMARK    6  A    between atoms: C5*_19  and  O5*_20
REMARK                            x       y       z     vdW  Elec       q    Type
REMARK                         _______ _______ _______ _____ _____    ______ ____
ROOT
ATOM      1  N   UNL     1      35.623 -23.239 -14.752  0.00  0.00    -0.247 N 
ATOM      2  N   UNL     1      35.634 -22.861 -16.951  0.00  0.00    -0.248 NA
ATOM      3  N   UNL     1      33.240 -23.514 -14.378  0.00  0.00    -0.228 NA
ATOM      4  C   UNL     1      34.316 -23.285 -15.151  0.00  0.00    +0.150 C 
ATOM      5  C   UNL     1      36.374 -22.981 -15.869  0.00  0.00    +0.223 C 
ATOM      6  C   UNL     1      34.344 -23.049 -16.519  0.00  0.00    +0.105 C 
ATOM      7  C   UNL     1      33.122 -23.040 -17.204  0.00  0.00    +0.118 C 
ATOM      8  C   UNL     1      31.968 -23.271 -16.456  0.00  0.00    +0.016 C 
ATOM      9  C   UNL     1      32.085 -23.495 -15.088  0.00  0.00    +0.097 C 
ENDROOT
BRANCH   1  12
ATOM     10  O4* UNL     1      37.561 -23.237 -13.383  0.00  0.00    -0.333 OA
ATOM     11  C2* UNL     1      35.885 -24.814 -12.827  0.00  0.00    +0.187 C 
ATOM     12  C1* UNL     1      36.133 -23.426 -13.396  0.00  0.00    +0.225 C 
ATOM     13  C3* UNL     1      36.997 -24.923 -11.801  0.00  0.00    +0.171 C 
ATOM     14  C4* UNL     1      38.154 -24.217 -12.500  0.00  0.00    +0.175 C 
BRANCH  11  15
ATOM     15  O2* UNL     1      34.596 -24.929 -12.260  0.00  0.00    -0.378 OA
ATOM     16  H2* UNL     1      34.461 -24.216 -11.617  0.00  0.00    +0.211 HD
ENDBRANCH  11  15
BRANCH  13  17
ATOM     17  O3* UNL     1      36.640 -24.181 -10.634  0.00  0.00    -0.379 OA
ATOM     18  H3* UNL     1      36.890 -24.683  -9.843  0.00  0.00    +0.211 HD
ENDBRANCH  13  17
BRANCH  14  19
ATOM     19  C5* UNL     1      39.009 -25.160 -13.333  0.00  0.00    +0.169 C 
BRANCH  19  20
ATOM     20  O5* UNL     1      39.302 -24.535 -14.570  0.00  0.00    -0.379 OA
ATOM     21  H5* UNL     1      38.612 -24.754 -15.215  0.00  0.00    +0.211 HD
ENDBRANCH  19  20
ENDBRANCH  14  19
ENDBRANCH   1  12
BRANCH   7  22
ATOM     22  N   UNL     1      33.038 -22.810 -18.588  0.00  0.00    -0.314 NA
ATOM     23  H   UNL     1      33.708 -23.202 -19.195  0.00  0.00    +0.119 HD
ATOM     24  H   UNL     1      32.310 -22.257 -18.952  0.00  0.00    +0.119 HD
ENDBRANCH   7  22
TORSDOF 6
ENDMDL
MODEL 2
REMARK VINA RESULT:      -8.3      1.905      2.223
REMARK  Name = 159738
REMARK  6 active torsions:
REMARK  status: ('A' for Active; 'I' for Inactive)
REMARK    1  A    between atoms: N_1  and  C1*_12
REMARK    2  A    between atoms: C_7  and  N_22
REMARK    3  A    between atoms: C2*_11  and  O2*_15
REMARK    4  A    between atoms: C3*_13  and  O3*_17
REMARK    5  A    between atoms: C4*_14  and  C5*_19
REMARK    6  A    between atoms: C5*_19  and  O5*_20
REMARK                            x       y       z     vdW  Elec       q    Type
REMARK                         _______ _______ _______ _____ _____    ______ ____
ROOT
ATOM      1  N   UNL     1      36.624 -23.294 -15.782  0.00  0.00    -0.247 N 
ATOM      2  N   UNL     1      37.183 -21.800 -17.342  0.00  0.00    -0.248 NA
ATOM      3  N   UNL     1      34.342 -23.778 -16.453  0.00  0.00    -0.228 NA
ATOM      4  C   UNL     1      35.523 -23.149 -16.580  0.00  0.00    +0.150 C 
ATOM      5  C   UNL     1      37.593 -22.463 -16.281  0.00  0.00    +0.223 C 
ATOM      6  C   UNL     1      35.890 -22.218 -17.542  0.00  0.00    +0.105 C 
ATOM      7  C   UNL     1      34.939 -21.871 -18.510  0.00  0.00    +0.118 C 
ATOM      8  C   UNL     1      33.692 -22.491 -18.432  0.00  0.00    +0.016 C 
ATOM      9  C   UNL     1      33.458 -23.409 -17.412  0.00  0.00    +0.097 C 
ENDROOT
BRANCH   1  12
ATOM     10  O4* UNL     1      37.979 -23.866 -13.920  0.00  0.00    -0.333 OA
ATOM     11  C2* UNL     1      36.813 -25.647 -14.955  0.00  0.00    +0.187 C 
ATOM     12  C1* UNL     1      36.754 -24.166 -14.617  0.00  0.00    +0.225 C 
ATOM     13  C3* UNL     1      37.555 -26.202 -13.754  0.00  0.00    +0.171 C 
ATOM     14  C4* UNL     1      38.574 -25.103 -13.467  0.00  0.00    +0.175 C 
BRANCH  11  15
ATOM     15  O2* UNL     1      35.524 -26.203 -15.113  0.00  0.00    -0.378 OA
ATOM     16  H2* UNL     1      35.599 -27.091 -15.497  0.00  0.00    +0.211 HD
ENDBRANCH  11  15
BRANCH  13  17
ATOM     17  O3* UNL     1      36.660 -26.301 -12.647  0.00  0.00    -0.379 OA
ATOM     18  H3* UNL     1      36.532 -25.424 -12.255  0.00  0.00    +0.211 HD
ENDBRANCH  13  17
BRANCH  14  19
ATOM     19  C5* UNL     1      39.888 -25.304 -14.208  0.00  0.00    +0.169 C 
BRANCH  19  20
ATOM     20  O5* UNL     1      39.993 -26.665 -14.587  0.00  0.00    -0.379 OA
ATOM     21  H5* UNL     1      40.913 -26.957 -14.489  0.00  0.00    +0.211 HD
ENDBRANCH  19  20
ENDBRANCH  14  19
ENDBRANCH   1  12
BRANCH   7  22
ATOM     22  N   UNL     1      35.207 -20.939 -19.527  0.00  0.00    -0.314 NA
ATOM     23  H   UNL     1      34.557 -20.803 -20.255  0.00  0.00    +0.119 HD
ATOM     24  H   UNL     1      36.045 -20.422 -19.513  0.00  0.00    +0.119 HD
ENDBRANCH   7  22
TORSDOF 6
ENDMDL
MODEL 3
REMARK VINA RESULT:      -8.2      1.768      2.341
REMARK  Name = 159738
REMARK  6 active torsions:
REMARK  status: ('A' for Active; 'I' for Inactive)
REMARK    1  A    between atoms: N_1  and  C1*_12
REMARK    2  A    between atoms: C_7  and  N_22
REMARK    3  A    between atoms: C2*_11  and  O2*_15
REMARK    4  A    between atoms: C3*_13  and  O3*_17
REMARK    5  A    between atoms: C4*_14  and  C5*_19
REMARK    6  A    between atoms: C5*_19  and  O5*_20
REMARK                            x       y       z     vdW  Elec       q    Type
REMARK                         _______ _______ _______ _____ _____    ______ ____
ROOT
ATOM      1  N   UNL     1      34.228 -24.267 -14.214  0.00  0.00    -0.247 N 
ATOM      2  N   UNL     1      33.684 -23.126 -16.052  0.00  0.00    -0.248 NA
ATOM      3  N   UNL     1      32.016 -24.805 -13.374  0.00  0.00    -0.228 NA
ATOM      4  C   UNL     1      32.862 -24.249 -14.257  0.00  0.00    +0.150 C 
ATOM      5  C   UNL     1      34.674 -23.580 -15.313  0.00  0.00    +0.223 C 
ATOM      6  C   UNL     1      32.544 -23.536 -15.405  0.00  0.00    +0.105 C 
ATOM      7  C   UNL     1      31.187 -23.357 -15.706  0.00  0.00    +0.118 C 
ATOM      8  C   UNL     1      30.258 -23.912 -14.826  0.00  0.00    +0.016 C 
ATOM      9  C   UNL     1      30.718 -24.604 -13.710  0.00  0.00    +0.097 C 
ENDROOT
BRANCH   1  12
ATOM     10  O4* UNL     1      35.257 -23.989 -12.094  0.00  0.00    -0.333 OA
ATOM     11  C2* UNL     1      36.457 -25.271 -13.681  0.00  0.00    +0.187 C 
ATOM     12  C1* UNL     1      35.065 -24.897 -13.196  0.00  0.00    +0.225 C 
ATOM     13  C3* UNL     1      37.240 -25.272 -12.382  0.00  0.00    +0.171 C 
ATOM     14  C4* UNL     1      36.622 -24.099 -11.630  0.00  0.00    +0.175 C 
BRANCH  11  15
ATOM     15  O2* UNL     1      36.468 -26.523 -14.335  0.00  0.00    -0.378 OA
ATOM     16  H2* UNL     1      36.361 -26.391 -15.290  0.00  0.00    +0.211 HD
ENDBRANCH  11  15
BRANCH  13  17
ATOM     17  O3* UNL     1      36.967 -26.476 -11.664  0.00  0.00    -0.379 OA
ATOM     18  H3* UNL     1      37.379 -26.430 -10.787  0.00  0.00    +0.211 HD
ENDBRANCH  13  17
BRANCH  14  19
ATOM     19  C5* UNL     1      37.329 -22.779 -11.903  0.00  0.00    +0.169 C 
BRANCH  19  20
ATOM     20  O5* UNL     1      38.714 -22.945 -11.651  0.00  0.00    -0.379 OA
ATOM     21  H5* UNL     1      38.858 -23.048 -10.697  0.00  0.00    +0.211 HD
ENDBRANCH  19  20
ENDBRANCH  14  19
ENDBRANCH   1  12
BRANCH   7  22
ATOM     22  N   UNL     1      30.756 -22.651 -16.843  0.00  0.00    -0.314 NA
ATOM     23  H   UNL     1      29.940 -22.933 -17.318  0.00  0.00    +0.119 HD
ATOM     24  H   UNL     1      31.269 -21.875 -17.164  0.00  0.00    +0.119 HD
ENDBRANCH   7  22
TORSDOF 6
ENDMDL
MODEL 4
REMARK VINA RESULT:      -8.1      7.302      9.697
REMARK  Name = 159738
REMARK  6 active torsions:
REMARK  status: ('A' for Active; 'I' for Inactive)
REMARK    1  A    between atoms: N_1  and  C1*_12
REMARK    2  A    between atoms: C_7  and  N_22
REMARK    3  A    between atoms: C2*_11  and  O2*_15
REMARK    4  A    between atoms: C3*_13  and  O3*_17
REMARK    5  A    between atoms: C4*_14  and  C5*_19
REMARK    6  A    between atoms: C5*_19  and  O5*_20
REMARK                            x       y       z     vdW  Elec       q    Type
REMARK                         _______ _______ _______ _____ _____    ______ ____
ROOT
ATOM      1  N   UNL     1      34.338 -19.419 -20.923  0.00  0.00    -0.247 N 
ATOM      2  N   UNL     1      32.811 -20.914 -20.282  0.00  0.00    -0.248 NA
ATOM      3  N   UNL     1      36.283 -20.262 -19.741  0.00  0.00    -0.228 NA
ATOM      4  C   UNL     1      34.988 -20.294 -20.096  0.00  0.00    +0.150 C 
ATOM      5  C   UNL     1      33.034 -19.835 -21.002  0.00  0.00    +0.223 C 
ATOM      6  C   UNL     1      34.023 -21.214 -19.709  0.00  0.00    +0.105 C 
ATOM      7  C   UNL     1      34.415 -22.245 -18.845  0.00  0.00    +0.118 C 
ATOM      8  C   UNL     1      35.750 -22.266 -18.440  0.00  0.00    +0.016 C 
ATOM      9  C   UNL     1      36.612 -21.279 -18.906  0.00  0.00    +0.097 C 
ENDROOT
BRANCH   1  12
ATOM     10  O4* UNL     1      34.896 -17.122 -20.714  0.00  0.00    -0.333 OA
ATOM     11  C2* UNL     1      34.159 -17.833 -22.849  0.00  0.00    +0.187 C 
ATOM     12  C1* UNL     1      34.913 -18.259 -21.599  0.00  0.00    +0.225 C 
ATOM     13  C3* UNL     1      34.532 -16.366 -22.941  0.00  0.00    +0.171 C 
ATOM     14  C4* UNL     1      34.551 -15.943 -21.476  0.00  0.00    +0.175 C 
BRANCH  11  15
ATOM     15  O2* UNL     1      34.556 -18.576 -23.983  0.00  0.00    -0.378 OA
ATOM     16  H2* UNL     1      34.924 -17.976 -24.650  0.00  0.00    +0.211 HD
ENDBRANCH  11  15
BRANCH  13  17
ATOM     17  O3* UNL     1      35.852 -16.243 -23.472  0.00  0.00    -0.379 OA
ATOM     18  H3* UNL     1      35.912 -15.434 -24.003  0.00  0.00    +0.211 HD
ENDBRANCH  13  17
BRANCH  14  19
ATOM     19  C5* UNL     1      33.201 -15.435 -20.987  0.00  0.00    +0.169 C 
BRANCH  19  20
ATOM     20  O5* UNL     1      32.554 -14.765 -22.055  0.00  0.00    -0.379 OA
ATOM     21  H5* UNL     1      31.707 -15.199 -22.242  0.00  0.00    +0.211 HD
ENDBRANCH  19  20
ENDBRANCH  14  19
ENDBRANCH   1  12
BRANCH   7  22
ATOM     22  N   UNL     1      33.518 -23.228 -18.392  0.00  0.00    -0.314 NA
ATOM     23  H   UNL     1      32.713 -22.966 -17.889  0.00  0.00    +0.119 HD
ATOM     24  H   UNL     1      33.695 -24.178 -18.576  0.00  0.00    +0.119 HD
ENDBRANCH   7  22
TORSDOF 6
ENDMDL
MODEL 5
REMARK VINA RESULT:      -8.1      1.802      2.719
REMARK  Name = 159738
REMARK  6 active torsions:
REMARK  status: ('A' for Active; 'I' for Inactive)
REMARK    1  A    between atoms: N_1  and  C1*_12
REMARK    2  A    between atoms: C_7  and  N_22
REMARK    3  A    between atoms: C2*_11  and  O2*_15
REMARK    4  A    between atoms: C3*_13  and  O3*_17
REMARK    5  A    between atoms: C4*_14  and  C5*_19
REMARK    6  A    between atoms: C5*_19  and  O5*_20
REMARK                            x       y       z     vdW  Elec       q    Type
REMARK                         _______ _______ _______ _____ _____    ______ ____
ROOT
ATOM      1  N   UNL     1      35.685 -23.247 -15.644  0.00  0.00    -0.247 N 
ATOM      2  N   UNL     1      33.671 -23.475 -16.576  0.00  0.00    -0.248 NA
ATOM      3  N   UNL     1      36.821 -21.994 -17.384  0.00  0.00    -0.228 NA
ATOM      4  C   UNL     1      35.756 -22.621 -16.857  0.00  0.00    +0.150 C 
ATOM      5  C   UNL     1      34.413 -23.743 -15.522  0.00  0.00    +0.223 C 
ATOM      6  C   UNL     1      34.496 -22.773 -17.420  0.00  0.00    +0.105 C 
ATOM      7  C   UNL     1      34.277 -22.220 -18.688  0.00  0.00    +0.118 C 
ATOM      8  C   UNL     1      35.346 -21.555 -19.288  0.00  0.00    +0.016 C 
ATOM      9  C   UNL     1      36.558 -21.476 -18.609  0.00  0.00    +0.097 C 
ENDROOT
BRANCH   1  12
ATOM     10  O4* UNL     1      37.802 -24.211 -15.176  0.00  0.00    -0.333 OA
ATOM     11  C2* UNL     1      36.317 -24.000 -13.344  0.00  0.00    +0.187 C 
ATOM     12  C1* UNL     1      36.754 -23.369 -14.656  0.00  0.00    +0.225 C 
ATOM     13  C3* UNL     1      37.627 -24.565 -12.828  0.00  0.00    +0.171 C 
ATOM     14  C4* UNL     1      38.296 -25.054 -14.109  0.00  0.00    +0.175 C 
BRANCH  11  15
ATOM     15  O2* UNL     1      35.742 -23.052 -12.469  0.00  0.00    -0.378 OA
ATOM     16  H2* UNL     1      36.081 -22.168 -12.680  0.00  0.00    +0.211 HD
ENDBRANCH  11  15
BRANCH  13  17
ATOM     17  O3* UNL     1      38.413 -23.511 -12.272  0.00  0.00    -0.379 OA
ATOM     18  H3* UNL     1      39.146 -23.303 -12.871  0.00  0.00    +0.211 HD
ENDBRANCH  13  17
BRANCH  14  19
ATOM     19  C5* UNL     1      37.955 -26.499 -14.443  0.00  0.00    +0.169 C 
BRANCH  19  20
ATOM     20  O5* UNL     1      37.481 -26.558 -15.777  0.00  0.00    -0.379 OA
ATOM     21  H5* UNL     1      37.403 -25.659 -16.132  0.00  0.00    +0.211 HD
ENDBRANCH  19  20
ENDBRANCH  14  19
ENDBRANCH   1  12
BRANCH   7  22
ATOM     22  N   UNL     1      33.040 -22.317 -19.347  0.00  0.00    -0.314 NA
ATOM     23  H   UNL     1      32.467 -23.107 -19.207  0.00  0.00    +0.119 HD
ATOM     24  H   UNL     1      32.745 -21.597 -19.950  0.00  0.00    +0.119 HD
ENDBRANCH   7  22
TORSDOF 6
ENDMDL
MODEL 6
REMARK VINA RESULT:      -8.0      1.625      3.129
REMARK  Name = 159738
REMARK  6 active torsions:
REMARK  status: ('A' for Active; 'I' for Inactive)
REMARK    1  A    between atoms: N_1  and  C1*_12
REMARK    2  A    between atoms: C_7  and  N_22
REMARK    3  A    between atoms: C2*_11  and  O2*_15
REMARK    4  A    between atoms: C3*_13  and  O3*_17
REMARK    5  A    between atoms: C4*_14  and  C5*_19
REMARK    6  A    between atoms: C5*_19  and  O5*_20
REMARK                            x       y       z     vdW  Elec       q    Type
REMARK                         _______ _______ _______ _____ _____    ______ ____
ROOT
ATOM      1  N   UNL     1      34.957 -24.178 -14.648  0.00  0.00    -0.247 N 
ATOM      2  N   UNL     1      33.110 -23.911 -13.425  0.00  0.00    -0.248 NA
ATOM      3  N   UNL     1      34.114 -23.554 -16.837  0.00  0.00    -0.228 NA
ATOM      4  C   UNL     1      33.985 -23.762 -15.515  0.00  0.00    +0.150 C 
ATOM      5  C   UNL     1      34.382 -24.252 -13.406  0.00  0.00    +0.223 C 
ATOM      6  C   UNL     1      32.847 -23.601 -14.737  0.00  0.00    +0.105 C 
ATOM      7  C   UNL     1      31.676 -23.173 -15.375  0.00  0.00    +0.118 C 
ATOM      8  C   UNL     1      31.745 -22.941 -16.749  0.00  0.00    +0.016 C 
ATOM      9  C   UNL     1      32.955 -23.142 -17.407  0.00  0.00    +0.097 C 
ENDROOT
BRANCH   1  12
ATOM     10  O4* UNL     1      36.703 -25.767 -14.413  0.00  0.00    -0.333 OA
ATOM     11  C2* UNL     1      37.351 -23.490 -14.416  0.00  0.00    +0.187 C 
ATOM     12  C1* UNL     1      36.347 -24.488 -14.972  0.00  0.00    +0.225 C 
ATOM     13  C3* UNL     1      38.605 -24.339 -14.330  0.00  0.00    +0.171 C 
ATOM     14  C4* UNL     1      38.052 -25.692 -13.897  0.00  0.00    +0.175 C 
BRANCH  11  15
ATOM     15  O2* UNL     1      37.500 -22.367 -15.259  0.00  0.00    -0.378 OA
ATOM     16  H2* UNL     1      36.625 -22.042 -15.523  0.00  0.00    +0.211 HD
ENDBRANCH  11  15
BRANCH  13  17
ATOM     17  O3* UNL     1      39.179 -24.470 -15.630  0.00  0.00    -0.379 OA
ATOM     18  H3* UNL     1      39.921 -23.852 -15.720  0.00  0.00    +0.211 HD
ENDBRANCH  13  17
BRANCH  14  19
ATOM     19  C5* UNL     1      37.996 -25.854 -12.384  0.00  0.00    +0.169 C 
BRANCH  19  20
ATOM     20  O5* UNL     1      36.789 -26.512 -12.042  0.00  0.00    -0.379 OA
ATOM     21  H5* UNL     1      36.886 -26.934 -11.174  0.00  0.00    +0.211 HD
ENDBRANCH  19  20
ENDBRANCH  14  19
ENDBRANCH   1  12
BRANCH   7  22
ATOM     22  N   UNL     1      30.469 -22.980 -14.681  0.00  0.00    -0.314 NA
ATOM     23  H   UNL     1      29.763 -23.666 -14.719  0.00  0.00    +0.119 HD
ATOM     24  H   UNL     1      30.329 -22.158 -14.158  0.00  0.00    +0.119 HD
ENDBRANCH   7  22
TORSDOF 6
ENDMDL
MODEL 7
REMARK VINA RESULT:      -7.8      1.786      3.408
REMARK  Name = 159738
REMARK  6 active torsions:
REMARK  status: ('A' for Active; 'I' for Inactive)
REMARK    1  A    between atoms: N_1  and  C1*_12
REMARK    2  A    between atoms: C_7  and  N_22
REMARK    3  A    between atoms: C2*_11  and  O2*_15
REMARK    4  A    between atoms: C3*_13  and  O3*_17
REMARK    5  A    between atoms: C4*_14  and  C5*_19
REMARK    6  A    between atoms: C5*_19  and  O5*_20
REMARK                            x       y       z     vdW  Elec       q    Type
REMARK                         _______ _______ _______ _____ _____    ______ ____
ROOT
ATOM      1  N   UNL     1      33.832 -23.446 -16.465  0.00  0.00    -0.247 N 
ATOM      2  N   UNL     1      32.221 -22.774 -17.853  0.00  0.00    -0.248 NA
ATOM      3  N   UNL     1      32.554 -23.704 -14.418  0.00  0.00    -0.228 NA
ATOM      4  C   UNL     1      32.686 -23.403 -15.721  0.00  0.00    +0.150 C 
ATOM      5  C   UNL     1      33.500 -23.060 -17.737  0.00  0.00    +0.223 C 
ATOM      6  C   UNL     1      31.697 -22.983 -16.600  0.00  0.00    +0.105 C 
ATOM      7  C   UNL     1      30.395 -22.847 -16.101  0.00  0.00    +0.118 C 
ATOM      8  C   UNL     1      30.193 -23.146 -14.753  0.00  0.00    +0.016 C 
ATOM      9  C   UNL     1      31.278 -23.557 -13.984  0.00  0.00    +0.097 C 
ENDROOT
BRANCH   1  12
ATOM     10  O4* UNL     1      35.049 -24.755 -14.903  0.00  0.00    -0.333 OA
ATOM     11  C2* UNL     1      36.002 -22.669 -15.491  0.00  0.00    +0.187 C 
ATOM     12  C1* UNL     1      35.164 -23.831 -16.002  0.00  0.00    +0.225 C 
ATOM     13  C3* UNL     1      36.957 -23.377 -14.549  0.00  0.00    +0.171 C 
ATOM     14  C4* UNL     1      36.063 -24.442 -13.922  0.00  0.00    +0.175 C 
BRANCH  11  15
ATOM     15  O2* UNL     1      36.661 -21.993 -16.541  0.00  0.00    -0.378 OA
ATOM     16  H2* UNL     1      37.621 -22.054 -16.413  0.00  0.00    +0.211 HD
ENDBRANCH  11  15
BRANCH  13  17
ATOM     17  O3* UNL     1      37.981 -24.022 -15.307  0.00  0.00    -0.379 OA
ATOM     18  H3* UNL     1      38.088 -23.568 -16.157  0.00  0.00    +0.211 HD
ENDBRANCH  13  17
BRANCH  14  19
ATOM     19  C5* UNL     1      35.372 -23.965 -12.652  0.00  0.00    +0.169 C 
BRANCH  19  20
ATOM     20  O5* UNL     1      34.395 -24.921 -12.280  0.00  0.00    -0.379 OA
ATOM     21  H5* UNL     1      33.837 -24.556 -11.575  0.00  0.00    +0.211 HD
ENDBRANCH  19  20
ENDBRANCH  14  19
ENDBRANCH   1  12
BRANCH   7  22
ATOM     22  N   UNL     1      29.321 -22.429 -16.905  0.00  0.00    -0.314 NA
ATOM     23  H   UNL     1      29.491 -22.062 -17.803  0.00  0.00    +0.119 HD
ATOM     24  H   UNL     1      28.398 -22.503 -16.571  0.00  0.00    +0.119 HD
ENDBRANCH   7  22
TORSDOF 6
ENDMDL
MODEL 8
REMARK VINA RESULT:      -7.7      1.966      2.605
REMARK  Name = 159738
REMARK  6 active torsions:
REMARK  status: ('A' for Active; 'I' for Inactive)
REMARK    1  A    between atoms: N_1  and  C1*_12
REMARK    2  A    between atoms: C_7  and  N_22
REMARK    3  A    between atoms: C2*_11  and  O2*_15
REMARK    4  A    between atoms: C3*_13  and  O3*_17
REMARK    5  A    between atoms: C4*_14  and  C5*_19
REMARK    6  A    between atoms: C5*_19  and  O5*_20
REMARK                            x       y       z     vdW  Elec       q    Type
REMARK                         _______ _______ _______ _____ _____    ______ ____
ROOT
ATOM      1  N   UNL     1      33.831 -23.787 -15.370  0.00  0.00    -0.247 N 
ATOM      2  N   UNL     1      32.663 -23.093 -17.139  0.00  0.00    -0.248 NA
ATOM      3  N   UNL     1      32.061 -23.920 -13.715  0.00  0.00    -0.228 NA
ATOM      4  C   UNL     1      32.537 -23.669 -14.946  0.00  0.00    +0.150 C 
ATOM      5  C   UNL     1      33.855 -23.430 -16.692  0.00  0.00    +0.223 C 
ATOM      6  C   UNL     1      31.828 -23.237 -16.059  0.00  0.00    +0.105 C 
ATOM      7  C   UNL     1      30.450 -23.029 -15.913  0.00  0.00    +0.118 C 
ATOM      8  C   UNL     1      29.896 -23.273 -14.656  0.00  0.00    +0.016 C 
ATOM      9  C   UNL     1      30.725 -23.704 -13.626  0.00  0.00    +0.097 C 
ENDROOT
BRANCH   1  12
ATOM     10  O4* UNL     1      35.810 -23.074 -14.271  0.00  0.00    -0.333 OA
ATOM     11  C2* UNL     1      35.880 -25.219 -15.270  0.00  0.00    +0.187 C 
ATOM     12  C1* UNL     1      34.979 -24.212 -14.573  0.00  0.00    +0.225 C 
ATOM     13  C3* UNL     1      37.202 -24.982 -14.565  0.00  0.00    +0.171 C 
ATOM     14  C4* UNL     1      37.198 -23.470 -14.367  0.00  0.00    +0.175 C 
BRANCH  11  15
ATOM     15  O2* UNL     1      35.404 -26.541 -15.124  0.00  0.00    -0.378 OA
ATOM     16  H2* UNL     1      36.002 -27.153 -15.583  0.00  0.00    +0.211 HD
ENDBRANCH  11  15
BRANCH  13  17
ATOM     17  O3* UNL     1      37.177 -25.615 -13.285  0.00  0.00    -0.379 OA
ATOM     18  H3* UNL     1      38.004 -25.426 -12.816  0.00  0.00    +0.211 HD
ENDBRANCH  13  17
BRANCH  14  19
ATOM     19  C5* UNL     1      37.832 -22.718 -15.529  0.00  0.00    +0.169 C 
BRANCH  19  20
ATOM     20  O5* UNL     1      38.924 -23.476 -16.019  0.00  0.00    -0.379 OA
ATOM     21  H5* UNL     1      38.685 -24.416 -16.031  0.00  0.00    +0.211 HD
ENDBRANCH  19  20
ENDBRANCH  14  19
ENDBRANCH   1  12
BRANCH   7  22
ATOM     22  N   UNL     1      29.639 -22.592 -16.975  0.00  0.00    -0.314 NA
ATOM     23  H   UNL     1      29.570 -23.132 -17.796  0.00  0.00    +0.119 HD
ATOM     24  H   UNL     1      29.140 -21.747 -16.898  0.00  0.00    +0.119 HD
ENDBRANCH   7  22
TORSDOF 6
ENDMDL
MODEL 9
REMARK VINA RESULT:      -7.7      7.629      9.850
REMARK  Name = 159738
REMARK  6 active torsions:
REMARK  status: ('A' for Active; 'I' for Inactive)
REMARK    1  A    between atoms: N_1  and  C1*_12
REMARK    2  A    between atoms: C_7  and  N_22
REMARK    3  A    between atoms: C2*_11  and  O2*_15
REMARK    4  A    between atoms: C3*_13  and  O3*_17
REMARK    5  A    between atoms: C4*_14  and  C5*_19
REMARK    6  A    between atoms: C5*_19  and  O5*_20
REMARK                            x       y       z     vdW  Elec       q    Type
REMARK                         _______ _______ _______ _____ _____    ______ ____
ROOT
ATOM      1  N   UNL     1      35.804 -18.996 -21.076  0.00  0.00    -0.247 N 
ATOM      2  N   UNL     1      36.684 -20.712 -19.954  0.00  0.00    -0.248 NA
ATOM      3  N   UNL     1      33.440 -19.470 -20.796  0.00  0.00    -0.228 NA
ATOM      4  C   UNL     1      34.745 -19.729 -20.614  0.00  0.00    +0.150 C 
ATOM      5  C   UNL     1      36.944 -19.628 -20.653  0.00  0.00    +0.223 C 
ATOM      6  C   UNL     1      35.312 -20.789 -19.920  0.00  0.00    +0.105 C 
ATOM      7  C   UNL     1      34.447 -21.718 -19.328  0.00  0.00    +0.118 C 
ATOM      8  C   UNL     1      33.077 -21.504 -19.482  0.00  0.00    +0.016 C 
ATOM      9  C   UNL     1      32.645 -20.396 -20.205  0.00  0.00    +0.097 C 
ENDROOT
BRANCH   1  12
ATOM     10  O4* UNL     1      35.308 -16.676 -21.041  0.00  0.00    -0.333 OA
ATOM     11  C2* UNL     1      34.764 -17.835 -23.032  0.00  0.00    +0.187 C 
ATOM     12  C1* UNL     1      35.742 -17.772 -21.870  0.00  0.00    +0.225 C 
ATOM     13  C3* UNL     1      34.441 -16.367 -23.236  0.00  0.00    +0.171 C 
ATOM     14  C4* UNL     1      34.408 -15.841 -21.805  0.00  0.00    +0.175 C 
BRANCH  11  15
ATOM     15  O2* UNL     1      35.339 -18.437 -24.173  0.00  0.00    -0.378 OA
ATOM     16  H2* UNL     1      34.693 -19.033 -24.585  0.00  0.00    +0.211 HD
ENDBRANCH  11  15
BRANCH  13  17
ATOM     17  O3* UNL     1      35.515 -15.736 -23.934  0.00  0.00    -0.379 OA
ATOM     18  H3* UNL     1      36.160 -16.407 -24.208  0.00  0.00    +0.211 HD
ENDBRANCH  13  17
BRANCH  14  19
ATOM     19  C5* UNL     1      33.025 -15.923 -21.173  0.00  0.00    +0.169 C 
BRANCH  19  20
ATOM     20  O5* UNL     1      32.204 -14.921 -21.745  0.00  0.00    -0.379 OA
ATOM     21  H5* UNL     1      31.322 -15.285 -21.918  0.00  0.00    +0.211 HD
ENDBRANCH  19  20
ENDBRANCH  14  19
ENDBRANCH   1  12
BRANCH   7  22
ATOM     22  N   UNL     1      34.916 -22.828 -18.603  0.00  0.00    -0.314 NA
ATOM     23  H   UNL     1      34.503 -23.712 -18.734  0.00  0.00    +0.119 HD
ATOM     24  H   UNL     1      35.658 -22.721 -17.965  0.00  0.00    +0.119 HD
ENDBRANCH   7  22
TORSDOF 6
ENDMDL
