MODEL 1
REMARK VINA RESULT:     -12.5      0.000      0.000
REMARK  Name = 72734520
REMARK  6 active torsions:
REMARK  status: ('A' for Active; 'I' for Inactive)
REMARK    1  A    between atoms: N_1  and  C_19
REMARK    2  A    between atoms: C_8  and  O_28
REMARK    3  A    between atoms: C_14  and  N_20
REMARK    4  A    between atoms: O_28  and  C_29
REMARK    5  A    between atoms: C_32  and  N_36
REMARK    6  A    between atoms: C_37  and  C_39
REMARK                            x       y       z     vdW  Elec       q    Type
REMARK                         _______ _______ _______ _____ _____    ______ ____
ROOT
ATOM      1  N   UNL     1      35.177 -21.054 -21.306  0.00  0.00    -0.238 N 
ATOM      2  N   UNL     1      34.963 -19.769 -23.243  0.00  0.00    -0.316 NA
ATOM      3  N   UNL     1      35.128 -18.732 -21.047  0.00  0.00    -0.294 NA
ATOM      4  N   UNL     1      34.749 -18.163 -25.029  0.00  0.00    -0.289 N 
ATOM      5  C   UNL     1      35.085 -19.780 -21.900  0.00  0.00    +0.207 C 
ATOM      6  C   UNL     1      34.911 -17.343 -22.960  0.00  0.00    +0.181 C 
ATOM      7  C   UNL     1      34.880 -18.512 -23.711  0.00  0.00    +0.188 C 
ATOM      8  C   UNL     1      35.041 -17.491 -21.579  0.00  0.00    +0.281 C 
ATOM      9  C   UNL     1      34.794 -16.263 -23.871  0.00  0.00    +0.008 C 
ATOM     10  C   UNL     1      34.695 -16.797 -25.138  0.00  0.00    +0.060 C 
ATOM     11  H   UNL     1      35.142 -21.795 -21.952  0.00  0.00    +0.166 HD
ATOM     12  H   UNL     1      34.701 -18.795 -25.782  0.00  0.00    +0.154 HD
ENDROOT
BRANCH   1  19
ATOM     13  F   UNL     1      33.364 -23.163 -17.403  0.00  0.00    -0.203 F 
ATOM     14  C   UNL     1      35.578 -22.307 -17.317  0.00  0.00    +0.076 C 
ATOM     15  C   UNL     1      34.387 -22.541 -18.004  0.00  0.00    +0.155 C 
ATOM     16  C   UNL     1      36.635 -21.656 -17.954  0.00  0.00    +0.018 C 
ATOM     17  C   UNL     1      34.255 -22.125 -19.330  0.00  0.00    +0.046 C 
ATOM     18  C   UNL     1      36.502 -21.241 -19.278  0.00  0.00    +0.017 C 
ATOM     19  C   UNL     1      35.312 -21.475 -19.966  0.00  0.00    +0.061 C 
BRANCH  14  20
ATOM     20  N   UNL     1      35.714 -22.722 -15.987  0.00  0.00    -0.310 N 
ATOM     21  N   UNL     1      36.019 -23.318 -13.211  0.00  0.00    +0.388 N 
ATOM     22  C   UNL     1      37.004 -22.497 -15.324  0.00  0.00    +0.068 C 
ATOM     23  C   UNL     1      34.542 -22.739 -15.107  0.00  0.00    +0.068 C 
ATOM     24  C   UNL     1      37.163 -23.435 -14.125  0.00  0.00    -0.056 C 
ATOM     25  C   UNL     1      34.780 -23.668 -13.914  0.00  0.00    -0.056 C 
ATOM     26  C   UNL     1      36.207 -24.178 -12.042  0.00  0.00    -0.101 C 
ATOM     27  H   UNL     1      35.953 -22.353 -12.888  0.00  0.00    -0.080 HD
ENDBRANCH  14  20
ENDBRANCH   1  19
BRANCH   8  28
ATOM     28  O   UNL     1      35.085 -16.417 -20.727  0.00  0.00    -0.429 OA
BRANCH  28  29
ATOM     29  C   UNL     1      34.204 -15.382 -20.967  0.00  0.00    +0.149 C 
ATOM     30  C   UNL     1      34.516 -14.409 -21.918  0.00  0.00    +0.052 C 
ATOM     31  C   UNL     1      33.003 -15.309 -20.262  0.00  0.00    +0.038 C 
ATOM     32  C   UNL     1      33.625 -13.364 -22.163  0.00  0.00    +0.054 C 
ATOM     33  C   UNL     1      32.424 -13.290 -21.458  0.00  0.00    +0.015 C 
ATOM     34  C   UNL     1      32.113 -14.263 -20.508  0.00  0.00    +0.004 C 
BRANCH  32  36
ATOM     35  O   UNL     1      33.301 -13.390 -25.148  0.00  0.00    -0.270 OA
ATOM     36  N   UNL     1      33.936 -12.391 -23.114  0.00  0.00    -0.280 N 
ATOM     37  C   UNL     1      33.763 -12.455 -24.504  0.00  0.00    +0.250 C 
ATOM     38  H   UNL     1      34.325 -11.556 -22.766  0.00  0.00    +0.155 HD
BRANCH  37  39
ATOM     39  C   UNL     1      34.221 -11.204 -25.174  0.00  0.00    +0.058 C 
ATOM     40  C   UNL     1      34.626 -10.156 -24.452  0.00  0.00    +0.005 C 
ENDBRANCH  37  39
ENDBRANCH  32  36
ENDBRANCH  28  29
ENDBRANCH   8  28
TORSDOF 6
ENDMDL
MODEL 2
REMARK VINA RESULT:     -12.4      3.996     10.238
REMARK  Name = 72734520
REMARK  6 active torsions:
REMARK  status: ('A' for Active; 'I' for Inactive)
REMARK    1  A    between atoms: N_1  and  C_19
REMARK    2  A    between atoms: C_8  and  O_28
REMARK    3  A    between atoms: C_14  and  N_20
REMARK    4  A    between atoms: O_28  and  C_29
REMARK    5  A    between atoms: C_32  and  N_36
REMARK    6  A    between atoms: C_37  and  C_39
REMARK                            x       y       z     vdW  Elec       q    Type
REMARK                         _______ _______ _______ _____ _____    ______ ____
ROOT
ATOM      1  N   UNL     1      36.813 -21.198 -18.414  0.00  0.00    -0.238 N 
ATOM      2  N   UNL     1      36.986 -22.643 -16.589  0.00  0.00    -0.316 NA
ATOM      3  N   UNL     1      34.907 -22.420 -17.835  0.00  0.00    -0.294 NA
ATOM      4  N   UNL     1      36.826 -24.213 -14.766  0.00  0.00    -0.289 N 
ATOM      5  C   UNL     1      36.202 -22.141 -17.565  0.00  0.00    +0.207 C 
ATOM      6  C   UNL     1      34.987 -23.913 -15.993  0.00  0.00    +0.181 C 
ATOM      7  C   UNL     1      36.312 -23.528 -15.835  0.00  0.00    +0.188 C 
ATOM      8  C   UNL     1      34.284 -23.320 -17.041  0.00  0.00    +0.281 C 
ATOM      9  C   UNL     1      34.708 -24.862 -14.976  0.00  0.00    +0.008 C 
ATOM     10  C   UNL     1      35.859 -25.027 -14.236  0.00  0.00    +0.060 C 
ATOM     11  H   UNL     1      37.755 -21.016 -18.191  0.00  0.00    +0.166 HD
ATOM     12  H   UNL     1      37.748 -24.133 -14.430  0.00  0.00    +0.154 HD
ENDROOT
BRANCH   1  19
ATOM     13  F   UNL     1      33.268 -19.998 -21.408  0.00  0.00    -0.203 F 
ATOM     14  C   UNL     1      35.408 -19.014 -21.716  0.00  0.00    +0.076 C 
ATOM     15  C   UNL     1      34.546 -19.867 -21.026  0.00  0.00    +0.155 C 
ATOM     16  C   UNL     1      36.736 -18.887 -21.309  0.00  0.00    +0.018 C 
ATOM     17  C   UNL     1      35.013 -20.592 -19.929  0.00  0.00    +0.046 C 
ATOM     18  C   UNL     1      37.203 -19.612 -20.212  0.00  0.00    +0.017 C 
ATOM     19  C   UNL     1      36.341 -20.464 -19.522  0.00  0.00    +0.061 C 
BRANCH  14  20
ATOM     20  N   UNL     1      34.943 -18.286 -22.817  0.00  0.00    -0.310 N 
ATOM     21  N   UNL     1      34.241 -16.729 -25.106  0.00  0.00    +0.388 N 
ATOM     22  C   UNL     1      35.065 -16.824 -22.778  0.00  0.00    +0.068 C 
ATOM     23  C   UNL     1      34.973 -18.890 -24.152  0.00  0.00    +0.068 C 
ATOM     24  C   UNL     1      34.081 -16.176 -23.755  0.00  0.00    -0.056 C 
ATOM     25  C   UNL     1      33.993 -18.175 -25.087  0.00  0.00    -0.056 C 
ATOM     26  C   UNL     1      33.335 -16.065 -26.042  0.00  0.00    -0.101 C 
ATOM     27  H   UNL     1      35.198 -16.564 -25.418  0.00  0.00    -0.080 HD
ENDBRANCH  14  20
ENDBRANCH   1  19
BRANCH   8  28
ATOM     28  O   UNL     1      32.970 -23.615 -17.304  0.00  0.00    -0.429 OA
BRANCH  28  29
ATOM     29  C   UNL     1      32.046 -23.315 -16.323  0.00  0.00    +0.149 C 
ATOM     30  C   UNL     1      30.784 -22.839 -16.678  0.00  0.00    +0.052 C 
ATOM     31  C   UNL     1      32.373 -23.488 -14.979  0.00  0.00    +0.038 C 
ATOM     32  C   UNL     1      29.849 -22.537 -15.688  0.00  0.00    +0.054 C 
ATOM     33  C   UNL     1      30.176 -22.710 -14.343  0.00  0.00    +0.015 C 
ATOM     34  C   UNL     1      31.438 -23.187 -13.988  0.00  0.00    +0.004 C 
BRANCH  32  36
ATOM     35  O   UNL     1      27.842 -23.620 -17.641  0.00  0.00    -0.270 OA
ATOM     36  N   UNL     1      28.585 -22.061 -16.043  0.00  0.00    -0.280 N 
ATOM     37  C   UNL     1      27.685 -22.610 -16.966  0.00  0.00    +0.250 C 
ATOM     38  H   UNL     1      28.291 -21.240 -15.588  0.00  0.00    +0.155 HD
BRANCH  37  39
ATOM     39  C   UNL     1      26.435 -21.801 -17.062  0.00  0.00    +0.058 C 
ATOM     40  C   UNL     1      26.023 -21.324 -18.240  0.00  0.00    +0.005 C 
ENDBRANCH  37  39
ENDBRANCH  32  36
ENDBRANCH  28  29
ENDBRANCH   8  28
TORSDOF 6
ENDMDL
MODEL 3
REMARK VINA RESULT:     -11.9      4.070     10.437
REMARK  Name = 72734520
REMARK  6 active torsions:
REMARK  status: ('A' for Active; 'I' for Inactive)
REMARK    1  A    between atoms: N_1  and  C_19
REMARK    2  A    between atoms: C_8  and  O_28
REMARK    3  A    between atoms: C_14  and  N_20
REMARK    4  A    between atoms: O_28  and  C_29
REMARK    5  A    between atoms: C_32  and  N_36
REMARK    6  A    between atoms: C_37  and  C_39
REMARK                            x       y       z     vdW  Elec       q    Type
REMARK                         _______ _______ _______ _____ _____    ______ ____
ROOT
ATOM      1  N   UNL     1      36.741 -22.514 -17.640  0.00  0.00    -0.238 N 
ATOM      2  N   UNL     1      36.833 -23.806 -15.698  0.00  0.00    -0.316 NA
ATOM      3  N   UNL     1      34.888 -22.438 -16.218  0.00  0.00    -0.294 NA
ATOM      4  N   UNL     1      36.607 -25.012 -13.622  0.00  0.00    -0.289 N 
ATOM      5  C   UNL     1      36.119 -22.945 -16.452  0.00  0.00    +0.207 C 
ATOM      6  C   UNL     1      34.891 -23.717 -14.219  0.00  0.00    +0.181 C 
ATOM      7  C   UNL     1      36.157 -24.154 -14.590  0.00  0.00    +0.188 C 
ATOM      8  C   UNL     1      34.259 -22.827 -15.086  0.00  0.00    +0.281 C 
ATOM      9  C   UNL     1      34.583 -24.342 -12.984  0.00  0.00    +0.008 C 
ATOM     10  C   UNL     1      35.658 -25.134 -12.640  0.00  0.00    +0.060 C 
ATOM     11  H   UNL     1      37.636 -22.900 -17.781  0.00  0.00    +0.166 HD
ATOM     12  H   UNL     1      37.478 -25.471 -13.630  0.00  0.00    +0.154 HD
ENDROOT
BRANCH   1  19
ATOM     13  F   UNL     1      37.753 -19.102 -20.850  0.00  0.00    -0.203 F 
ATOM     14  C   UNL     1      35.524 -19.909 -20.702  0.00  0.00    +0.076 C 
ATOM     15  C   UNL     1      36.855 -19.919 -20.283  0.00  0.00    +0.155 C 
ATOM     16  C   UNL     1      34.598 -20.763 -20.103  0.00  0.00    +0.018 C 
ATOM     17  C   UNL     1      37.259 -20.785 -19.266  0.00  0.00    +0.046 C 
ATOM     18  C   UNL     1      35.002 -21.628 -19.087  0.00  0.00    +0.017 C 
ATOM     19  C   UNL     1      36.333 -21.640 -18.669  0.00  0.00    +0.061 C 
BRANCH  14  20
ATOM     20  N   UNL     1      35.116 -19.041 -21.720  0.00  0.00    -0.310 N 
ATOM     21  N   UNL     1      34.042 -17.367 -23.770  0.00  0.00    +0.388 N 
ATOM     22  C   UNL     1      34.644 -19.630 -22.980  0.00  0.00    +0.068 C 
ATOM     23  C   UNL     1      34.545 -17.735 -21.378  0.00  0.00    +0.068 C 
ATOM     24  C   UNL     1      34.739 -18.611 -24.118  0.00  0.00    -0.056 C 
ATOM     25  C   UNL     1      34.642 -16.777 -22.568  0.00  0.00    -0.056 C 
ATOM     26  C   UNL     1      34.092 -16.422 -24.886  0.00  0.00    -0.101 C 
ATOM     27  H   UNL     1      33.063 -17.580 -23.579  0.00  0.00    -0.080 HD
ENDBRANCH  14  20
ENDBRANCH   1  19
BRANCH   8  28
ATOM     28  O   UNL     1      33.007 -22.322 -14.836  0.00  0.00    -0.429 OA
BRANCH  28  29
ATOM     29  C   UNL     1      31.930 -23.144 -15.096  0.00  0.00    +0.149 C 
ATOM     30  C   UNL     1      30.916 -22.713 -15.952  0.00  0.00    +0.052 C 
ATOM     31  C   UNL     1      31.855 -24.406 -14.506  0.00  0.00    +0.038 C 
ATOM     32  C   UNL     1      29.827 -23.545 -16.217  0.00  0.00    +0.054 C 
ATOM     33  C   UNL     1      29.753 -24.806 -15.627  0.00  0.00    +0.015 C 
ATOM     34  C   UNL     1      30.767 -25.237 -14.772  0.00  0.00    +0.004 C 
BRANCH  32  36
ATOM     35  O   UNL     1      27.306 -22.022 -15.634  0.00  0.00    -0.270 OA
ATOM     36  N   UNL     1      28.813 -23.114 -17.074  0.00  0.00    -0.280 N 
ATOM     37  C   UNL     1      27.651 -22.402 -16.747  0.00  0.00    +0.250 C 
ATOM     38  H   UNL     1      28.929 -23.337 -18.026  0.00  0.00    +0.155 HD
BRANCH  37  39
ATOM     39  C   UNL     1      26.815 -22.129 -17.952  0.00  0.00    +0.058 C 
ATOM     40  C   UNL     1      25.962 -21.101 -17.968  0.00  0.00    +0.005 C 
ENDBRANCH  37  39
ENDBRANCH  32  36
ENDBRANCH  28  29
ENDBRANCH   8  28
TORSDOF 6
ENDMDL
MODEL 4
REMARK VINA RESULT:     -11.4      3.817     10.987
REMARK  Name = 72734520
REMARK  6 active torsions:
REMARK  status: ('A' for Active; 'I' for Inactive)
REMARK    1  A    between atoms: N_1  and  C_19
REMARK    2  A    between atoms: C_8  and  O_28
REMARK    3  A    between atoms: C_14  and  N_20
REMARK    4  A    between atoms: O_28  and  C_29
REMARK    5  A    between atoms: C_32  and  N_36
REMARK    6  A    between atoms: C_37  and  C_39
REMARK                            x       y       z     vdW  Elec       q    Type
REMARK                         _______ _______ _______ _____ _____    ______ ____
ROOT
ATOM      1  N   UNL     1      33.522 -14.594 -25.136  0.00  0.00    -0.238 N 
ATOM      2  N   UNL     1      34.041 -16.819 -25.613  0.00  0.00    -0.316 NA
ATOM      3  N   UNL     1      34.055 -15.976 -23.329  0.00  0.00    -0.294 NA
ATOM      4  N   UNL     1      34.624 -19.155 -25.756  0.00  0.00    -0.289 N 
ATOM      5  C   UNL     1      33.893 -15.869 -24.667  0.00  0.00    +0.207 C 
ATOM      6  C   UNL     1      34.599 -18.254 -23.715  0.00  0.00    +0.181 C 
ATOM      7  C   UNL     1      34.397 -17.994 -25.065  0.00  0.00    +0.188 C 
ATOM      8  C   UNL     1      34.413 -17.185 -22.839  0.00  0.00    +0.281 C 
ATOM      9  C   UNL     1      34.959 -19.621 -23.606  0.00  0.00    +0.008 C 
ATOM     10  C   UNL     1      34.967 -20.150 -24.879  0.00  0.00    +0.060 C 
ATOM     11  H   UNL     1      33.412 -14.548 -26.114  0.00  0.00    +0.166 HD
ATOM     12  H   UNL     1      34.551 -19.258 -26.733  0.00  0.00    +0.154 HD
ENDROOT
BRANCH   1  19
ATOM     13  F   UNL     1      34.332  -9.896 -24.647  0.00  0.00    -0.203 F 
ATOM     14  C   UNL     1      32.787 -10.948 -23.182  0.00  0.00    +0.076 C 
ATOM     15  C   UNL     1      33.691 -11.001 -24.243  0.00  0.00    +0.155 C 
ATOM     16  C   UNL     1      32.128 -12.107 -22.770  0.00  0.00    +0.018 C 
ATOM     17  C   UNL     1      33.935 -12.212 -24.892  0.00  0.00    +0.046 C 
ATOM     18  C   UNL     1      32.372 -13.317 -23.419  0.00  0.00    +0.017 C 
ATOM     19  C   UNL     1      33.275 -13.370 -24.480  0.00  0.00    +0.061 C 
BRANCH  14  20
ATOM     20  N   UNL     1      32.542  -9.736 -22.528  0.00  0.00    -0.310 N 
ATOM     21  N   UNL     1      31.790  -7.292 -21.257  0.00  0.00    +0.388 N 
ATOM     22  C   UNL     1      32.074  -8.601 -23.334  0.00  0.00    +0.068 C 
ATOM     23  C   UNL     1      32.112  -9.740 -21.127  0.00  0.00    +0.068 C 
ATOM     24  C   UNL     1      32.353  -7.280 -22.613  0.00  0.00    -0.056 C 
ATOM     25  C   UNL     1      32.388  -8.381 -20.477  0.00  0.00    -0.056 C 
ATOM     26  C   UNL     1      32.015  -6.005 -20.598  0.00  0.00    -0.101 C 
ATOM     27  H   UNL     1      30.784  -7.446 -21.320  0.00  0.00    -0.080 HD
ENDBRANCH  14  20
ENDBRANCH   1  19
BRANCH   8  28
ATOM     28  O   UNL     1      34.581 -17.310 -21.483  0.00  0.00    -0.429 OA
BRANCH  28  29
ATOM     29  C   UNL     1      35.158 -18.476 -21.022  0.00  0.00    +0.149 C 
ATOM     30  C   UNL     1      34.361 -19.469 -20.452  0.00  0.00    +0.052 C 
ATOM     31  C   UNL     1      36.536 -18.661 -21.126  0.00  0.00    +0.038 C 
ATOM     32  C   UNL     1      34.944 -20.649 -19.987  0.00  0.00    +0.054 C 
ATOM     33  C   UNL     1      36.322 -20.834 -20.091  0.00  0.00    +0.015 C 
ATOM     34  C   UNL     1      37.119 -19.841 -20.662  0.00  0.00    +0.004 C 
BRANCH  32  36
ATOM     35  O   UNL     1      35.470 -22.464 -17.655  0.00  0.00    -0.270 OA
ATOM     36  N   UNL     1      34.147 -21.643 -19.418  0.00  0.00    -0.280 N 
ATOM     37  C   UNL     1      34.444 -22.466 -18.323  0.00  0.00    +0.250 C 
ATOM     38  H   UNL     1      33.268 -21.783 -19.838  0.00  0.00    +0.155 HD
BRANCH  37  39
ATOM     39  C   UNL     1      33.326 -23.406 -18.022  0.00  0.00    +0.058 C 
ATOM     40  C   UNL     1      32.478 -23.156 -17.020  0.00  0.00    +0.005 C 
ENDBRANCH  37  39
ENDBRANCH  32  36
ENDBRANCH  28  29
ENDBRANCH   8  28
TORSDOF 6
ENDMDL
MODEL 5
REMARK VINA RESULT:     -11.3      2.448      4.023
REMARK  Name = 72734520
REMARK  6 active torsions:
REMARK  status: ('A' for Active; 'I' for Inactive)
REMARK    1  A    between atoms: N_1  and  C_19
REMARK    2  A    between atoms: C_8  and  O_28
REMARK    3  A    between atoms: C_14  and  N_20
REMARK    4  A    between atoms: O_28  and  C_29
REMARK    5  A    between atoms: C_32  and  N_36
REMARK    6  A    between atoms: C_37  and  C_39
REMARK                            x       y       z     vdW  Elec       q    Type
REMARK                         _______ _______ _______ _____ _____    ______ ____
ROOT
ATOM      1  N   UNL     1      34.173 -18.129 -24.150  0.00  0.00    -0.238 N 
ATOM      2  N   UNL     1      33.689 -16.470 -25.720  0.00  0.00    -0.316 NA
ATOM      3  N   UNL     1      34.268 -15.910 -23.422  0.00  0.00    -0.294 NA
ATOM      4  N   UNL     1      33.245 -14.528 -27.078  0.00  0.00    -0.289 N 
ATOM      5  C   UNL     1      34.036 -16.759 -24.449  0.00  0.00    +0.207 C 
ATOM      6  C   UNL     1      33.789 -14.155 -24.946  0.00  0.00    +0.181 C 
ATOM      7  C   UNL     1      33.581 -15.143 -25.901  0.00  0.00    +0.188 C 
ATOM      8  C   UNL     1      34.144 -14.586 -23.669  0.00  0.00    +0.281 C 
ATOM      9  C   UNL     1      33.565 -12.909 -25.585  0.00  0.00    +0.008 C 
ATOM     10  C   UNL     1      33.231 -13.169 -26.897  0.00  0.00    +0.060 C 
ATOM     11  H   UNL     1      33.998 -18.721 -24.917  0.00  0.00    +0.166 HD
ATOM     12  H   UNL     1      33.044 -14.991 -27.924  0.00  0.00    +0.154 HD
ENDROOT
BRANCH   1  19
ATOM     13  F   UNL     1      32.881 -20.333 -20.095  0.00  0.00    -0.203 F 
ATOM     14  C   UNL     1      35.190 -20.182 -20.629  0.00  0.00    +0.076 C 
ATOM     15  C   UNL     1      33.852 -19.928 -20.926  0.00  0.00    +0.155 C 
ATOM     16  C   UNL     1      36.191 -19.753 -21.502  0.00  0.00    +0.018 C 
ATOM     17  C   UNL     1      33.514 -19.246 -22.096  0.00  0.00    +0.046 C 
ATOM     18  C   UNL     1      35.854 -19.072 -22.671  0.00  0.00    +0.017 C 
ATOM     19  C   UNL     1      34.515 -18.819 -22.968  0.00  0.00    +0.061 C 
BRANCH  14  20
ATOM     20  N   UNL     1      35.532 -20.865 -19.457  0.00  0.00    -0.310 N 
ATOM     21  N   UNL     1      36.310 -22.453 -17.214  0.00  0.00    +0.388 N 
ATOM     22  C   UNL     1      34.797 -22.094 -19.135  0.00  0.00    +0.068 C 
ATOM     23  C   UNL     1      36.906 -20.796 -18.950  0.00  0.00    +0.068 C 
ATOM     24  C   UNL     1      34.906 -22.410 -17.642  0.00  0.00    -0.056 C 
ATOM     25  C   UNL     1      36.948 -21.155 -17.462  0.00  0.00    -0.056 C 
ATOM     26  C   UNL     1      36.404 -22.810 -15.798  0.00  0.00    -0.101 C 
ATOM     27  H   UNL     1      36.797 -23.167 -17.755  0.00  0.00    -0.080 HD
ENDBRANCH  14  20
ENDBRANCH   1  19
BRANCH   8  28
ATOM     28  O   UNL     1      34.377 -13.711 -22.637  0.00  0.00    -0.429 OA
BRANCH  28  29
ATOM     29  C   UNL     1      33.292 -13.024 -22.133  0.00  0.00    +0.149 C 
ATOM     30  C   UNL     1      32.876 -11.837 -22.737  0.00  0.00    +0.052 C 
ATOM     31  C   UNL     1      32.609 -13.517 -21.021  0.00  0.00    +0.038 C 
ATOM     32  C   UNL     1      31.778 -11.144 -22.228  0.00  0.00    +0.054 C 
ATOM     33  C   UNL     1      31.096 -11.636 -21.116  0.00  0.00    +0.015 C 
ATOM     34  C   UNL     1      31.510 -12.823 -20.513  0.00  0.00    +0.004 C 
BRANCH  32  36
ATOM     35  O   UNL     1      33.023  -8.411 -22.209  0.00  0.00    -0.270 OA
ATOM     36  N   UNL     1      31.362  -9.957 -22.833  0.00  0.00    -0.280 N 
ATOM     37  C   UNL     1      31.985  -8.702 -22.792  0.00  0.00    +0.250 C 
ATOM     38  H   UNL     1      30.528 -10.008 -23.354  0.00  0.00    +0.155 HD
BRANCH  37  39
ATOM     39  C   UNL     1      31.223  -7.683 -23.571  0.00  0.00    +0.058 C 
ATOM     40  C   UNL     1      31.025  -6.458 -23.075  0.00  0.00    +0.005 C 
ENDBRANCH  37  39
ENDBRANCH  32  36
ENDBRANCH  28  29
ENDBRANCH   8  28
TORSDOF 6
ENDMDL
MODEL 6
REMARK VINA RESULT:     -11.1      5.063     10.303
REMARK  Name = 72734520
REMARK  6 active torsions:
REMARK  status: ('A' for Active; 'I' for Inactive)
REMARK    1  A    between atoms: N_1  and  C_19
REMARK    2  A    between atoms: C_8  and  O_28
REMARK    3  A    between atoms: C_14  and  N_20
REMARK    4  A    between atoms: O_28  and  C_29
REMARK    5  A    between atoms: C_32  and  N_36
REMARK    6  A    between atoms: C_37  and  C_39
REMARK                            x       y       z     vdW  Elec       q    Type
REMARK                         _______ _______ _______ _____ _____    ______ ____
ROOT
ATOM      1  N   UNL     1      32.231 -14.185 -20.470  0.00  0.00    -0.238 N 
ATOM      2  N   UNL     1      32.816 -16.444 -20.494  0.00  0.00    -0.316 NA
ATOM      3  N   UNL     1      33.516 -14.936 -22.272  0.00  0.00    -0.294 NA
ATOM      4  N   UNL     1      33.584 -18.706 -20.822  0.00  0.00    -0.289 N 
ATOM      5  C   UNL     1      32.892 -15.249 -21.114  0.00  0.00    +0.207 C 
ATOM      6  C   UNL     1      34.157 -17.219 -22.383  0.00  0.00    +0.181 C 
ATOM      7  C   UNL     1      33.474 -17.391 -21.186  0.00  0.00    +0.188 C 
ATOM      8  C   UNL     1      34.160 -15.932 -22.922  0.00  0.00    +0.281 C 
ATOM      9  C   UNL     1      34.691 -18.483 -22.740  0.00  0.00    +0.008 C 
ATOM     10  C   UNL     1      34.322 -19.380 -21.761  0.00  0.00    +0.060 C 
ATOM     11  H   UNL     1      31.787 -14.444 -19.631  0.00  0.00    +0.166 HD
ATOM     12  H   UNL     1      33.194 -19.107 -20.012  0.00  0.00    +0.154 HD
ENDROOT
BRANCH   1  19
ATOM     13  F   UNL     1      31.509  -9.644 -19.117  0.00  0.00    -0.203 F 
ATOM     14  C   UNL     1      31.788 -10.119 -21.427  0.00  0.00    +0.076 C 
ATOM     15  C   UNL     1      31.718 -10.534 -20.098  0.00  0.00    +0.155 C 
ATOM     16  C   UNL     1      32.004 -11.055 -22.439  0.00  0.00    +0.018 C 
ATOM     17  C   UNL     1      31.866 -11.884 -19.780  0.00  0.00    +0.046 C 
ATOM     18  C   UNL     1      32.151 -12.404 -22.121  0.00  0.00    +0.017 C 
ATOM     19  C   UNL     1      32.083 -12.819 -20.792  0.00  0.00    +0.061 C 
BRANCH  14  20
ATOM     20  N   UNL     1      31.639  -8.765 -21.749  0.00  0.00    -0.310 N 
ATOM     21  N   UNL     1      31.583  -6.006 -22.484  0.00  0.00    +0.388 N 
ATOM     22  C   UNL     1      32.426  -7.785 -20.990  0.00  0.00    +0.068 C 
ATOM     23  C   UNL     1      31.294  -8.377 -23.121  0.00  0.00    +0.068 C 
ATOM     24  C   UNL     1      31.790  -6.397 -21.084  0.00  0.00    -0.056 C 
ATOM     25  C   UNL     1      30.695  -6.969 -23.146  0.00  0.00    -0.056 C 
ATOM     26  C   UNL     1      31.025  -4.655 -22.562  0.00  0.00    -0.101 C 
ATOM     27  H   UNL     1      32.483  -6.006 -22.962  0.00  0.00    -0.080 HD
ENDBRANCH  14  20
ENDBRANCH   1  19
BRANCH   8  28
ATOM     28  O   UNL     1      34.800 -15.631 -24.098  0.00  0.00    -0.429 OA
BRANCH  28  29
ATOM     29  C   UNL     1      34.197 -14.705 -24.925  0.00  0.00    +0.149 C 
ATOM     30  C   UNL     1      34.303 -13.343 -24.641  0.00  0.00    +0.052 C 
ATOM     31  C   UNL     1      33.484 -15.130 -26.046  0.00  0.00    +0.038 C 
ATOM     32  C   UNL     1      33.696 -12.407 -25.478  0.00  0.00    +0.054 C 
ATOM     33  C   UNL     1      32.983 -12.831 -26.598  0.00  0.00    +0.015 C 
ATOM     34  C   UNL     1      32.877 -14.193 -26.883  0.00  0.00    +0.004 C 
BRANCH  32  36
ATOM     35  O   UNL     1      35.977 -10.503 -25.911  0.00  0.00    -0.270 OA
ATOM     36  N   UNL     1      33.803 -11.044 -25.193  0.00  0.00    -0.280 N 
ATOM     37  C   UNL     1      34.898 -10.199 -25.418  0.00  0.00    +0.250 C 
ATOM     38  H   UNL     1      33.011 -10.626 -24.785  0.00  0.00    +0.155 HD
BRANCH  37  39
ATOM     39  C   UNL     1      34.616  -8.803 -24.975  0.00  0.00    +0.058 C 
ATOM     40  C   UNL     1      34.850  -8.431 -23.713  0.00  0.00    +0.005 C 
ENDBRANCH  37  39
ENDBRANCH  32  36
ENDBRANCH  28  29
ENDBRANCH   8  28
TORSDOF 6
ENDMDL
MODEL 7
REMARK VINA RESULT:     -10.9      3.650     10.825
REMARK  Name = 72734520
REMARK  6 active torsions:
REMARK  status: ('A' for Active; 'I' for Inactive)
REMARK    1  A    between atoms: N_1  and  C_19
REMARK    2  A    between atoms: C_8  and  O_28
REMARK    3  A    between atoms: C_14  and  N_20
REMARK    4  A    between atoms: O_28  and  C_29
REMARK    5  A    between atoms: C_32  and  N_36
REMARK    6  A    between atoms: C_37  and  C_39
REMARK                            x       y       z     vdW  Elec       q    Type
REMARK                         _______ _______ _______ _____ _____    ______ ____
ROOT
ATOM      1  N   UNL     1      33.383 -14.806 -25.112  0.00  0.00    -0.238 N 
ATOM      2  N   UNL     1      33.921 -17.009 -25.661  0.00  0.00    -0.316 NA
ATOM      3  N   UNL     1      34.239 -16.153 -23.405  0.00  0.00    -0.294 NA
ATOM      4  N   UNL     1      34.576 -19.318 -25.892  0.00  0.00    -0.289 N 
ATOM      5  C   UNL     1      33.875 -16.061 -24.703  0.00  0.00    +0.207 C 
ATOM      6  C   UNL     1      34.817 -18.407 -23.870  0.00  0.00    +0.181 C 
ATOM      7  C   UNL     1      34.405 -18.165 -25.174  0.00  0.00    +0.188 C 
ATOM      8  C   UNL     1      34.718 -17.342 -22.975  0.00  0.00    +0.281 C 
ATOM      9  C   UNL     1      35.249 -19.757 -23.817  0.00  0.00    +0.008 C 
ATOM     10  C   UNL     1      35.090 -20.293 -25.076  0.00  0.00    +0.060 C 
ATOM     11  H   UNL     1      33.127 -14.770 -26.061  0.00  0.00    +0.166 HD
ATOM     12  H   UNL     1      34.364 -19.430 -26.847  0.00  0.00    +0.154 HD
ENDROOT
BRANCH   1  19
ATOM     13  F   UNL     1      34.302 -10.133 -24.568  0.00  0.00    -0.203 F 
ATOM     14  C   UNL     1      32.790 -11.184 -23.067  0.00  0.00    +0.076 C 
ATOM     15  C   UNL     1      33.654 -11.234 -24.161  0.00  0.00    +0.155 C 
ATOM     16  C   UNL     1      32.125 -12.337 -22.652  0.00  0.00    +0.018 C 
ATOM     17  C   UNL     1      33.851 -12.437 -24.840  0.00  0.00    +0.046 C 
ATOM     18  C   UNL     1      32.321 -13.539 -23.331  0.00  0.00    +0.017 C 
ATOM     19  C   UNL     1      33.184 -13.589 -24.425  0.00  0.00    +0.061 C 
BRANCH  14  20
ATOM     20  N   UNL     1      32.592  -9.979 -22.383  0.00  0.00    -0.310 N 
ATOM     21  N   UNL     1      31.946  -7.520 -21.083  0.00  0.00    +0.388 N 
ATOM     22  C   UNL     1      32.360  -8.766 -23.177  0.00  0.00    +0.068 C 
ATOM     23  C   UNL     1      31.983  -9.992 -21.050  0.00  0.00    +0.068 C 
ATOM     24  C   UNL     1      32.681  -7.516 -22.354  0.00  0.00    -0.056 C 
ATOM     25  C   UNL     1      32.316  -8.701 -20.296  0.00  0.00    -0.056 C 
ATOM     26  C   UNL     1      32.219  -6.295 -20.330  0.00  0.00    -0.101 C 
ATOM     27  H   UNL     1      30.947  -7.555 -21.281  0.00  0.00    -0.080 HD
ENDBRANCH  14  20
ENDBRANCH   1  19
BRANCH   8  28
ATOM     28  O   UNL     1      35.091 -17.452 -21.659  0.00  0.00    -0.429 OA
BRANCH  28  29
ATOM     29  C   UNL     1      34.805 -18.640 -21.018  0.00  0.00    +0.149 C 
ATOM     30  C   UNL     1      35.776 -19.257 -20.228  0.00  0.00    +0.052 C 
ATOM     31  C   UNL     1      33.546 -19.224 -21.158  0.00  0.00    +0.038 C 
ATOM     32  C   UNL     1      35.487 -20.457 -19.578  0.00  0.00    +0.054 C 
ATOM     33  C   UNL     1      34.228 -21.041 -19.718  0.00  0.00    +0.015 C 
ATOM     34  C   UNL     1      33.257 -20.424 -20.507  0.00  0.00    +0.004 C 
BRANCH  32  36
ATOM     35  O   UNL     1      35.203 -22.467 -17.365  0.00  0.00    -0.270 OA
ATOM     36  N   UNL     1      36.458 -21.073 -18.787  0.00  0.00    -0.280 N 
ATOM     37  C   UNL     1      36.269 -22.011 -17.762  0.00  0.00    +0.250 C 
ATOM     38  H   UNL     1      37.390 -20.819 -18.973  0.00  0.00    +0.155 HD
BRANCH  37  39
ATOM     39  C   UNL     1      37.565 -22.431 -17.155  0.00  0.00    +0.058 C 
ATOM     40  C   UNL     1      37.624 -22.813 -15.876  0.00  0.00    +0.005 C 
ENDBRANCH  37  39
ENDBRANCH  32  36
ENDBRANCH  28  29
ENDBRANCH   8  28
TORSDOF 6
ENDMDL
MODEL 8
REMARK VINA RESULT:     -10.8      4.203      9.137
REMARK  Name = 72734520
REMARK  6 active torsions:
REMARK  status: ('A' for Active; 'I' for Inactive)
REMARK    1  A    between atoms: N_1  and  C_19
REMARK    2  A    between atoms: C_8  and  O_28
REMARK    3  A    between atoms: C_14  and  N_20
REMARK    4  A    between atoms: O_28  and  C_29
REMARK    5  A    between atoms: C_32  and  N_36
REMARK    6  A    between atoms: C_37  and  C_39
REMARK                            x       y       z     vdW  Elec       q    Type
REMARK                         _______ _______ _______ _____ _____    ______ ____
ROOT
ATOM      1  N   UNL     1      34.035 -25.058 -13.738  0.00  0.00    -0.238 N 
ATOM      2  N   UNL     1      36.300 -25.503 -13.394  0.00  0.00    -0.316 NA
ATOM      3  N   UNL     1      35.566 -23.875 -15.049  0.00  0.00    -0.294 NA
ATOM      4  N   UNL     1      38.699 -25.724 -13.293  0.00  0.00    -0.289 N 
ATOM      5  C   UNL     1      35.377 -24.797 -14.079  0.00  0.00    +0.207 C 
ATOM      6  C   UNL     1      37.891 -24.261 -14.771  0.00  0.00    +0.181 C 
ATOM      7  C   UNL     1      37.544 -25.184 -13.793  0.00  0.00    +0.188 C 
ATOM      8  C   UNL     1      36.841 -23.598 -15.405  0.00  0.00    +0.281 C 
ATOM      9  C   UNL     1      39.307 -24.257 -14.852  0.00  0.00    +0.008 C 
ATOM     10  C   UNL     1      39.778 -25.168 -13.930  0.00  0.00    +0.060 C 
ATOM     11  H   UNL     1      33.930 -25.733 -13.030  0.00  0.00    +0.166 HD
ATOM     12  H   UNL     1      38.748 -26.406 -12.585  0.00  0.00    +0.154 HD
ENDROOT
BRANCH   1  19
ATOM     13  F   UNL     1      29.418 -25.662 -14.873  0.00  0.00    -0.203 F 
ATOM     14  C   UNL     1      30.393 -23.514 -15.152  0.00  0.00    +0.076 C 
ATOM     15  C   UNL     1      30.485 -24.855 -14.781  0.00  0.00    +0.155 C 
ATOM     16  C   UNL     1      31.511 -22.686 -15.053  0.00  0.00    +0.018 C 
ATOM     17  C   UNL     1      31.694 -25.368 -14.311  0.00  0.00    +0.046 C 
ATOM     18  C   UNL     1      32.720 -23.198 -14.584  0.00  0.00    +0.017 C 
ATOM     19  C   UNL     1      32.812 -24.539 -14.213  0.00  0.00    +0.061 C 
BRANCH  14  20
ATOM     20  N   UNL     1      29.182 -22.997 -15.624  0.00  0.00    -0.310 N 
ATOM     21  N   UNL     1      26.615 -22.185 -16.579  0.00  0.00    +0.388 N 
ATOM     22  C   UNL     1      28.720 -23.426 -16.950  0.00  0.00    +0.068 C 
ATOM     23  C   UNL     1      28.128 -22.629 -14.674  0.00  0.00    +0.068 C 
ATOM     24  C   UNL     1      27.717 -22.421 -17.521  0.00  0.00    -0.056 C 
ATOM     25  C   UNL     1      27.142 -21.650 -15.318  0.00  0.00    -0.056 C 
ATOM     26  C   UNL     1      25.635 -21.265 -17.157  0.00  0.00    -0.101 C 
ATOM     27  H   UNL     1      26.148 -23.071 -16.391  0.00  0.00    -0.080 HD
ENDBRANCH  14  20
ENDBRANCH   1  19
BRANCH   8  28
ATOM     28  O   UNL     1      37.050 -22.663 -16.388  0.00  0.00    -0.429 OA
BRANCH  28  29
ATOM     29  C   UNL     1      36.039 -22.476 -17.308  0.00  0.00    +0.149 C 
ATOM     30  C   UNL     1      36.257 -21.673 -18.428  0.00  0.00    +0.052 C 
ATOM     31  C   UNL     1      34.801 -23.090 -17.120  0.00  0.00    +0.038 C 
ATOM     32  C   UNL     1      35.236 -21.485 -19.360  0.00  0.00    +0.054 C 
ATOM     33  C   UNL     1      33.998 -22.099 -19.172  0.00  0.00    +0.015 C 
ATOM     34  C   UNL     1      33.781 -22.902 -18.052  0.00  0.00    +0.004 C 
BRANCH  32  36
ATOM     35  O   UNL     1      33.456 -19.453 -20.673  0.00  0.00    -0.270 OA
ATOM     36  N   UNL     1      35.454 -20.683 -20.481  0.00  0.00    -0.280 N 
ATOM     37  C   UNL     1      34.584 -19.745 -21.054  0.00  0.00    +0.250 C 
ATOM     38  H   UNL     1      36.327 -20.788 -20.923  0.00  0.00    +0.155 HD
BRANCH  37  39
ATOM     39  C   UNL     1      35.190 -19.090 -22.249  0.00  0.00    +0.058 C 
ATOM     40  C   UNL     1      34.617 -19.205 -23.451  0.00  0.00    +0.005 C 
ENDBRANCH  37  39
ENDBRANCH  32  36
ENDBRANCH  28  29
ENDBRANCH   8  28
TORSDOF 6
ENDMDL
MODEL 9
REMARK VINA RESULT:     -10.6      1.403      1.813
REMARK  Name = 72734520
REMARK  6 active torsions:
REMARK  status: ('A' for Active; 'I' for Inactive)
REMARK    1  A    between atoms: N_1  and  C_19
REMARK    2  A    between atoms: C_8  and  O_28
REMARK    3  A    between atoms: C_14  and  N_20
REMARK    4  A    between atoms: O_28  and  C_29
REMARK    5  A    between atoms: C_32  and  N_36
REMARK    6  A    between atoms: C_37  and  C_39
REMARK                            x       y       z     vdW  Elec       q    Type
REMARK                         _______ _______ _______ _____ _____    ______ ____
ROOT
ATOM      1  N   UNL     1      34.909 -20.851 -21.727  0.00  0.00    -0.238 N 
ATOM      2  N   UNL     1      34.748 -19.531 -23.646  0.00  0.00    -0.316 NA
ATOM      3  N   UNL     1      34.972 -18.533 -21.437  0.00  0.00    -0.294 NA
ATOM      4  N   UNL     1      34.605 -17.893 -25.409  0.00  0.00    -0.289 N 
ATOM      5  C   UNL     1      34.875 -19.566 -22.304  0.00  0.00    +0.207 C 
ATOM      6  C   UNL     1      34.813 -17.110 -23.330  0.00  0.00    +0.181 C 
ATOM      7  C   UNL     1      34.723 -18.265 -24.096  0.00  0.00    +0.188 C 
ATOM      8  C   UNL     1      34.941 -17.282 -21.952  0.00  0.00    +0.281 C 
ATOM      9  C   UNL     1      34.744 -16.013 -24.226  0.00  0.00    +0.008 C 
ATOM     10  C   UNL     1      34.615 -16.524 -25.499  0.00  0.00    +0.060 C 
ATOM     11  H   UNL     1      34.836 -21.581 -22.383  0.00  0.00    +0.166 HD
ATOM     12  H   UNL     1      34.524 -18.511 -26.170  0.00  0.00    +0.154 HD
ENDROOT
BRANCH   1  19
ATOM     13  F   UNL     1      37.469 -21.292 -17.699  0.00  0.00    -0.203 F 
ATOM     14  C   UNL     1      35.266 -22.178 -17.758  0.00  0.00    +0.076 C 
ATOM     15  C   UNL     1      36.328 -21.513 -18.369  0.00  0.00    +0.155 C 
ATOM     16  C   UNL     1      34.085 -22.403 -18.466  0.00  0.00    +0.018 C 
ATOM     17  C   UNL     1      36.209 -21.071 -19.687  0.00  0.00    +0.046 C 
ATOM     18  C   UNL     1      33.966 -21.962 -19.783  0.00  0.00    +0.017 C 
ATOM     19  C   UNL     1      35.028 -21.296 -20.394  0.00  0.00    +0.061 C 
BRANCH  14  20
ATOM     20  N   UNL     1      35.382 -22.623 -16.436  0.00  0.00    -0.310 N 
ATOM     21  N   UNL     1      35.587 -23.772 -13.830  0.00  0.00    +0.388 N 
ATOM     22  C   UNL     1      34.209 -23.250 -15.814  0.00  0.00    +0.068 C 
ATOM     23  C   UNL     1      36.684 -23.071 -15.931  0.00  0.00    +0.068 C 
ATOM     24  C   UNL     1      34.317 -23.196 -14.289  0.00  0.00    -0.056 C 
ATOM     25  C   UNL     1      36.711 -23.023 -14.401  0.00  0.00    -0.056 C 
ATOM     26  C   UNL     1      35.655 -23.765 -12.368  0.00  0.00    -0.101 C 
ATOM     27  H   UNL     1      35.642 -24.740 -14.146  0.00  0.00    -0.080 HD
ENDBRANCH  14  20
ENDBRANCH   1  19
BRANCH   8  28
ATOM     28  O   UNL     1      35.040 -16.223 -21.085  0.00  0.00    -0.429 OA
BRANCH  28  29
ATOM     29  C   UNL     1      33.998 -15.318 -21.072  0.00  0.00    +0.149 C 
ATOM     30  C   UNL     1      34.015 -14.223 -21.936  0.00  0.00    +0.052 C 
ATOM     31  C   UNL     1      32.928 -15.498 -20.195  0.00  0.00    +0.038 C 
ATOM     32  C   UNL     1      32.961 -13.309 -21.924  0.00  0.00    +0.054 C 
ATOM     33  C   UNL     1      31.892 -13.489 -21.048  0.00  0.00    +0.015 C 
ATOM     34  C   UNL     1      31.874 -14.584 -20.184  0.00  0.00    +0.004 C 
BRANCH  32  36
ATOM     35  O   UNL     1      32.028 -10.486 -21.506  0.00  0.00    -0.270 OA
ATOM     36  N   UNL     1      32.978 -12.214 -22.789  0.00  0.00    -0.280 N 
ATOM     37  C   UNL     1      32.527 -10.910 -22.541  0.00  0.00    +0.250 C 
ATOM     38  H   UNL     1      33.354 -12.378 -23.684  0.00  0.00    +0.155 HD
BRANCH  37  39
ATOM     39  C   UNL     1      32.720 -10.026 -23.727  0.00  0.00    +0.058 C 
ATOM     40  C   UNL     1      33.694  -9.111 -23.740  0.00  0.00    +0.005 C 
ENDBRANCH  37  39
ENDBRANCH  32  36
ENDBRANCH  28  29
ENDBRANCH   8  28
TORSDOF 6
ENDMDL
