MODEL 1
REMARK VINA RESULT:      -6.8      0.000      0.000
REMARK  Name = 54675858
REMARK  3 active torsions:
REMARK  status: ('A' for Active; 'I' for Inactive)
REMARK    1  A    between atoms: C_2  and  C_11
REMARK    2  A    between atoms: C_3  and  O_8
REMARK    3  A    between atoms: C_11  and  O_12
REMARK                            x       y       z     vdW  Elec       q    Type
REMARK                         _______ _______ _______ _____ _____    ______ ____
ROOT
ATOM      1  O   UNL     1      32.925 -22.414 -18.871  0.00  0.00    -0.283 OA
ATOM      2  C   UNL     1      34.801 -19.444 -20.931  0.00  0.00    +0.079 C 
ATOM      3  C   UNL     1      34.920 -21.398 -19.516  0.00  0.00    +0.178 C 
ATOM      4  C   UNL     1      35.557 -20.379 -20.224  0.00  0.00    +0.047 C 
ATOM      5  C   UNL     1      33.409 -19.528 -20.931  0.00  0.00    +0.010 C 
ATOM      6  C   UNL     1      33.528 -21.483 -19.516  0.00  0.00    +0.229 C 
ATOM      7  C   UNL     1      32.773 -20.549 -20.224  0.00  0.00    +0.045 C 
ENDROOT
BRANCH   3   8
ATOM      8  O   UNL     1      35.701 -22.292 -18.838  0.00  0.00    -0.468 OA
ATOM      9  C   UNL     1      36.682 -21.752 -17.958  0.00  0.00    +0.253 C 
ENDBRANCH   3   8
BRANCH   2  11
ATOM     10  O   UNL     1      36.064 -18.519 -22.740  0.00  0.00    -0.245 OA
ATOM     11  C   UNL     1      35.464 -18.381 -21.669  0.00  0.00    +0.338 C 
BRANCH  11  12
ATOM     12  O   UNL     1      35.360 -17.173 -21.050  0.00  0.00    -0.477 OA
ATOM     13  H   UNL     1      36.119 -16.636 -20.940  0.00  0.00    +0.295 HD
ENDBRANCH  11  12
ENDBRANCH   2  11
TORSDOF 3
ENDMDL
MODEL 2
REMARK VINA RESULT:      -6.8      2.770      5.708
REMARK  Name = 54675858
REMARK  3 active torsions:
REMARK  status: ('A' for Active; 'I' for Inactive)
REMARK    1  A    between atoms: C_2  and  C_11
REMARK    2  A    between atoms: C_3  and  O_8
REMARK    3  A    between atoms: C_11  and  O_12
REMARK                            x       y       z     vdW  Elec       q    Type
REMARK                         _______ _______ _______ _____ _____    ______ ____
ROOT
ATOM      1  O   UNL     1      34.596 -16.593 -25.805  0.00  0.00    -0.283 OA
ATOM      2  C   UNL     1      35.000 -18.631 -22.303  0.00  0.00    +0.079 C 
ATOM      3  C   UNL     1      34.961 -16.536 -23.505  0.00  0.00    +0.178 C 
ATOM      4  C   UNL     1      35.098 -17.239 -22.309  0.00  0.00    +0.047 C 
ATOM      5  C   UNL     1      34.764 -19.318 -23.493  0.00  0.00    +0.010 C 
ATOM      6  C   UNL     1      34.725 -17.223 -24.695  0.00  0.00    +0.229 C 
ATOM      7  C   UNL     1      34.625 -18.614 -24.689  0.00  0.00    +0.045 C 
ENDROOT
BRANCH   3   8
ATOM      8  O   UNL     1      35.065 -15.173 -23.463  0.00  0.00    -0.468 OA
ATOM      9  C   UNL     1      34.310 -14.501 -22.460  0.00  0.00    +0.253 C 
ENDBRANCH   3   8
BRANCH   2  11
ATOM     10  O   UNL     1      34.314 -20.153 -20.590  0.00  0.00    -0.245 OA
ATOM     11  C   UNL     1      35.143 -19.365 -21.055  0.00  0.00    +0.338 C 
BRANCH  11  12
ATOM     12  O   UNL     1      36.318 -19.094 -20.423  0.00  0.00    -0.477 OA
ATOM     13  H   UNL     1      36.414 -19.284 -19.511  0.00  0.00    +0.295 HD
ENDBRANCH  11  12
ENDBRANCH   2  11
TORSDOF 3
ENDMDL
MODEL 3
REMARK VINA RESULT:      -6.7      2.874      4.842
REMARK  Name = 54675858
REMARK  3 active torsions:
REMARK  status: ('A' for Active; 'I' for Inactive)
REMARK    1  A    between atoms: C_2  and  C_11
REMARK    2  A    between atoms: C_3  and  O_8
REMARK    3  A    between atoms: C_11  and  O_12
REMARK                            x       y       z     vdW  Elec       q    Type
REMARK                         _______ _______ _______ _____ _____    ______ ____
ROOT
ATOM      1  O   UNL     1      34.944 -15.686 -19.867  0.00  0.00    -0.283 OA
ATOM      2  C   UNL     1      34.588 -16.738 -23.785  0.00  0.00    +0.079 C 
ATOM      3  C   UNL     1      35.182 -17.315 -21.516  0.00  0.00    +0.178 C 
ATOM      4  C   UNL     1      35.058 -17.669 -22.859  0.00  0.00    +0.047 C 
ATOM      5  C   UNL     1      34.243 -15.453 -23.369  0.00  0.00    +0.010 C 
ATOM      6  C   UNL     1      34.837 -16.029 -21.098  0.00  0.00    +0.229 C 
ATOM      7  C   UNL     1      34.366 -15.099 -22.025  0.00  0.00    +0.045 C 
ENDROOT
BRANCH   3   8
ATOM      8  O   UNL     1      35.646 -18.260 -20.643  0.00  0.00    -0.468 OA
ATOM      9  C   UNL     1      35.434 -19.622 -20.999  0.00  0.00    +0.253 C 
ENDBRANCH   3   8
BRANCH   2  11
ATOM     10  O   UNL     1      34.569 -18.251 -25.638  0.00  0.00    -0.245 OA
ATOM     11  C   UNL     1      34.458 -17.107 -25.186  0.00  0.00    +0.338 C 
BRANCH  11  12
ATOM     12  O   UNL     1      34.194 -16.036 -25.984  0.00  0.00    -0.477 OA
ATOM     13  H   UNL     1      34.898 -15.554 -26.370  0.00  0.00    +0.295 HD
ENDBRANCH  11  12
ENDBRANCH   2  11
TORSDOF 3
ENDMDL
MODEL 4
REMARK VINA RESULT:      -6.7      4.072      6.880
REMARK  Name = 54675858
REMARK  3 active torsions:
REMARK  status: ('A' for Active; 'I' for Inactive)
REMARK    1  A    between atoms: C_2  and  C_11
REMARK    2  A    between atoms: C_3  and  O_8
REMARK    3  A    between atoms: C_11  and  O_12
REMARK                            x       y       z     vdW  Elec       q    Type
REMARK                         _______ _______ _______ _____ _____    ______ ____
ROOT
ATOM      1  O   UNL     1      33.596 -15.721 -26.397  0.00  0.00    -0.283 OA
ATOM      2  C   UNL     1      34.653 -16.534 -22.549  0.00  0.00    +0.079 C 
ATOM      3  C   UNL     1      33.710 -15.020 -24.179  0.00  0.00    +0.178 C 
ATOM      4  C   UNL     1      34.074 -15.304 -22.863  0.00  0.00    +0.047 C 
ATOM      5  C   UNL     1      34.867 -17.479 -23.552  0.00  0.00    +0.010 C 
ATOM      6  C   UNL     1      33.924 -15.965 -25.182  0.00  0.00    +0.229 C 
ATOM      7  C   UNL     1      34.502 -17.195 -24.868  0.00  0.00    +0.045 C 
ENDROOT
BRANCH   3   8
ATOM      8  O   UNL     1      33.146 -13.802 -24.439  0.00  0.00    -0.468 OA
ATOM      9  C   UNL     1      33.652 -12.689 -23.709  0.00  0.00    +0.253 C 
ENDBRANCH   3   8
BRANCH   2  11
ATOM     10  O   UNL     1      35.413 -17.930 -20.762  0.00  0.00    -0.245 OA
ATOM     11  C   UNL     1      35.033 -16.831 -21.177  0.00  0.00    +0.338 C 
BRANCH  11  12
ATOM     12  O   UNL     1      34.926 -15.747 -20.361  0.00  0.00    -0.477 OA
ATOM     13  H   UNL     1      34.110 -15.550 -19.946  0.00  0.00    +0.295 HD
ENDBRANCH  11  12
ENDBRANCH   2  11
TORSDOF 3
ENDMDL
MODEL 5
REMARK VINA RESULT:      -6.7      6.167      8.982
REMARK  Name = 54675858
REMARK  3 active torsions:
REMARK  status: ('A' for Active; 'I' for Inactive)
REMARK    1  A    between atoms: C_2  and  C_11
REMARK    2  A    between atoms: C_3  and  O_8
REMARK    3  A    between atoms: C_11  and  O_12
REMARK                            x       y       z     vdW  Elec       q    Type
REMARK                         _______ _______ _______ _____ _____    ______ ____
ROOT
ATOM      1  O   UNL     1      36.359 -26.987 -16.021  0.00  0.00    -0.283 OA
ATOM      2  C   UNL     1      37.240 -24.612 -12.833  0.00  0.00    +0.079 C 
ATOM      3  C   UNL     1      36.180 -24.910 -14.983  0.00  0.00    +0.178 C 
ATOM      4  C   UNL     1      36.485 -24.101 -13.888  0.00  0.00    +0.047 C 
ATOM      5  C   UNL     1      37.690 -25.932 -12.872  0.00  0.00    +0.010 C 
ATOM      6  C   UNL     1      36.630 -26.229 -15.023  0.00  0.00    +0.229 C 
ATOM      7  C   UNL     1      37.384 -26.740 -13.967  0.00  0.00    +0.045 C 
ENDROOT
BRANCH   3   8
ATOM      8  O   UNL     1      35.437 -24.367 -15.994  0.00  0.00    -0.468 OA
ATOM      9  C   UNL     1      34.436 -23.424 -15.622  0.00  0.00    +0.253 C 
ENDBRANCH   3   8
BRANCH   2  11
ATOM     10  O   UNL     1      38.441 -22.907 -11.661  0.00  0.00    -0.245 OA
ATOM     11  C   UNL     1      37.558 -23.770 -11.690  0.00  0.00    +0.338 C 
BRANCH  11  12
ATOM     12  O   UNL     1      36.764 -24.029 -10.615  0.00  0.00    -0.477 OA
ATOM     13  H   UNL     1      37.150 -24.213  -9.781  0.00  0.00    +0.295 HD
ENDBRANCH  11  12
ENDBRANCH   2  11
TORSDOF 3
ENDMDL
MODEL 6
REMARK VINA RESULT:      -6.7      8.241      9.196
REMARK  Name = 54675858
REMARK  3 active torsions:
REMARK  status: ('A' for Active; 'I' for Inactive)
REMARK    1  A    between atoms: C_2  and  C_11
REMARK    2  A    between atoms: C_3  and  O_8
REMARK    3  A    between atoms: C_11  and  O_12
REMARK                            x       y       z     vdW  Elec       q    Type
REMARK                         _______ _______ _______ _____ _____    ______ ____
ROOT
ATOM      1  O   UNL     1      36.807 -27.002 -15.979  0.00  0.00    -0.283 OA
ATOM      2  C   UNL     1      37.156 -24.513 -12.776  0.00  0.00    +0.079 C 
ATOM      3  C   UNL     1      38.148 -26.101 -14.301  0.00  0.00    +0.178 C 
ATOM      4  C   UNL     1      38.262 -25.247 -13.205  0.00  0.00    +0.047 C 
ATOM      5  C   UNL     1      35.937 -24.633 -13.443  0.00  0.00    +0.010 C 
ATOM      6  C   UNL     1      36.930 -26.222 -14.969  0.00  0.00    +0.229 C 
ATOM      7  C   UNL     1      35.825 -25.487 -14.540  0.00  0.00    +0.045 C 
ENDROOT
BRANCH   3   8
ATOM      8  O   UNL     1      39.258 -26.801 -14.687  0.00  0.00    -0.468 OA
ATOM      9  C   UNL     1      40.502 -26.108 -14.645  0.00  0.00    +0.253 C 
ENDBRANCH   3   8
BRANCH   2  11
ATOM     10  O   UNL     1      36.756 -23.804 -10.526  0.00  0.00    -0.245 OA
ATOM     11  C   UNL     1      37.274 -23.621 -11.632  0.00  0.00    +0.338 C 
BRANCH  11  12
ATOM     12  O   UNL     1      38.034 -22.525 -11.903  0.00  0.00    -0.477 OA
ATOM     13  H   UNL     1      38.836 -22.385 -11.439  0.00  0.00    +0.295 HD
ENDBRANCH  11  12
ENDBRANCH   2  11
TORSDOF 3
ENDMDL
MODEL 7
REMARK VINA RESULT:      -6.6      4.634      6.323
REMARK  Name = 54675858
REMARK  3 active torsions:
REMARK  status: ('A' for Active; 'I' for Inactive)
REMARK    1  A    between atoms: C_2  and  C_11
REMARK    2  A    between atoms: C_3  and  O_8
REMARK    3  A    between atoms: C_11  and  O_12
REMARK                            x       y       z     vdW  Elec       q    Type
REMARK                         _______ _______ _______ _____ _____    ______ ____
ROOT
ATOM      1  O   UNL     1      33.495 -15.616 -26.408  0.00  0.00    -0.283 OA
ATOM      2  C   UNL     1      34.485 -15.923 -22.470  0.00  0.00    +0.079 C 
ATOM      3  C   UNL     1      34.383 -16.898 -24.677  0.00  0.00    +0.178 C 
ATOM      4  C   UNL     1      34.720 -16.997 -23.328  0.00  0.00    +0.047 C 
ATOM      5  C   UNL     1      33.914 -14.749 -22.961  0.00  0.00    +0.010 C 
ATOM      6  C   UNL     1      33.812 -15.725 -25.170  0.00  0.00    +0.229 C 
ATOM      7  C   UNL     1      33.578 -14.650 -24.312  0.00  0.00    +0.045 C 
ENDROOT
BRANCH   3   8
ATOM      8  O   UNL     1      34.632 -17.976 -25.481  0.00  0.00    -0.468 OA
ATOM      9  C   UNL     1      34.616 -19.258 -24.861  0.00  0.00    +0.253 C 
ENDBRANCH   3   8
BRANCH   2  11
ATOM     10  O   UNL     1      34.808 -15.096 -20.248  0.00  0.00    -0.245 OA
ATOM     11  C   UNL     1      34.837 -16.025 -21.062  0.00  0.00    +0.338 C 
BRANCH  11  12
ATOM     12  O   UNL     1      35.214 -17.285 -20.710  0.00  0.00    -0.477 OA
ATOM     13  H   UNL     1      35.380 -17.926 -21.371  0.00  0.00    +0.295 HD
ENDBRANCH  11  12
ENDBRANCH   2  11
TORSDOF 3
ENDMDL
MODEL 8
REMARK VINA RESULT:      -6.6      5.718      7.746
REMARK  Name = 54675858
REMARK  3 active torsions:
REMARK  status: ('A' for Active; 'I' for Inactive)
REMARK    1  A    between atoms: C_2  and  C_11
REMARK    2  A    between atoms: C_3  and  O_8
REMARK    3  A    between atoms: C_11  and  O_12
REMARK                            x       y       z     vdW  Elec       q    Type
REMARK                         _______ _______ _______ _____ _____    ______ ____
ROOT
ATOM      1  O   UNL     1      32.340 -24.969 -13.421  0.00  0.00    -0.283 OA
ATOM      2  C   UNL     1      29.446 -23.691 -15.985  0.00  0.00    +0.079 C 
ATOM      3  C   UNL     1      31.747 -23.654 -15.251  0.00  0.00    +0.178 C 
ATOM      4  C   UNL     1      30.751 -23.220 -16.125  0.00  0.00    +0.047 C 
ATOM      5  C   UNL     1      29.136 -24.595 -14.970  0.00  0.00    +0.010 C 
ATOM      6  C   UNL     1      31.438 -24.558 -14.235  0.00  0.00    +0.229 C 
ATOM      7  C   UNL     1      30.132 -25.030 -14.095  0.00  0.00    +0.045 C 
ENDROOT
BRANCH   3   8
ATOM      8  O   UNL     1      33.012 -23.166 -15.426  0.00  0.00    -0.468 OA
ATOM      9  C   UNL     1      33.590 -23.328 -16.717  0.00  0.00    +0.253 C 
ENDBRANCH   3   8
BRANCH   2  11
ATOM     10  O   UNL     1      27.733 -23.968 -17.631  0.00  0.00    -0.245 OA
ATOM     11  C   UNL     1      28.407 -23.239 -16.897  0.00  0.00    +0.338 C 
BRANCH  11  12
ATOM     12  O   UNL     1      28.239 -21.888 -16.867  0.00  0.00    -0.477 OA
ATOM     13  H   UNL     1      28.769 -21.337 -17.408  0.00  0.00    +0.295 HD
ENDBRANCH  11  12
ENDBRANCH   2  11
TORSDOF 3
ENDMDL
MODEL 9
REMARK VINA RESULT:      -6.5      5.910      8.967
REMARK  Name = 54675858
REMARK  3 active torsions:
REMARK  status: ('A' for Active; 'I' for Inactive)
REMARK    1  A    between atoms: C_2  and  C_11
REMARK    2  A    between atoms: C_3  and  O_8
REMARK    3  A    between atoms: C_11  and  O_12
REMARK                            x       y       z     vdW  Elec       q    Type
REMARK                         _______ _______ _______ _____ _____    ______ ____
ROOT
ATOM      1  O   UNL     1      35.273 -24.302 -13.011  0.00  0.00    -0.283 OA
ATOM      2  C   UNL     1      38.942 -25.582 -14.228  0.00  0.00    +0.079 C 
ATOM      3  C   UNL     1      36.793 -24.611 -14.749  0.00  0.00    +0.178 C 
ATOM      4  C   UNL     1      38.050 -25.051 -15.160  0.00  0.00    +0.047 C 
ATOM      5  C   UNL     1      38.576 -25.673 -12.885  0.00  0.00    +0.010 C 
ATOM      6  C   UNL     1      36.425 -24.702 -13.407  0.00  0.00    +0.229 C 
ATOM      7  C   UNL     1      37.317 -25.232 -12.475  0.00  0.00    +0.045 C 
ENDROOT
BRANCH   3   8
ATOM      8  O   UNL     1      35.952 -24.098 -15.697  0.00  0.00    -0.468 OA
ATOM      9  C   UNL     1      36.138 -22.730 -16.050  0.00  0.00    +0.253 C 
ENDBRANCH   3   8
BRANCH   2  11
ATOM     10  O   UNL     1      41.121 -26.518 -13.916  0.00  0.00    -0.245 OA
ATOM     11  C   UNL     1      40.255 -26.040 -14.655  0.00  0.00    +0.338 C 
BRANCH  11  12
ATOM     12  O   UNL     1      40.449 -25.889 -15.994  0.00  0.00    -0.477 OA
ATOM     13  H   UNL     1      40.494 -26.641 -16.550  0.00  0.00    +0.295 HD
ENDBRANCH  11  12
ENDBRANCH   2  11
TORSDOF 3
ENDMDL
