MODEL 1
REMARK VINA RESULT:     -10.0      0.000      0.000
REMARK  Name = 5328120
REMARK  1 active torsions:
REMARK  status: ('A' for Active; 'I' for Inactive)
REMARK    1  A    between atoms: C_5  and  C_16
REMARK                            x       y       z     vdW  Elec       q    Type
REMARK                         _______ _______ _______ _____ _____    ______ ____
ROOT
ATOM      1  N   UNL     1      36.149 -20.180 -20.362  0.00  0.00    -0.324 NA
ATOM      2  N   UNL     1      35.162 -21.739 -18.964  0.00  0.00    -0.272 NA
ATOM      3  N   UNL     1      32.770 -22.000 -18.860  0.00  0.00    -0.169 NA
ATOM      4  N   UNL     1      34.180 -23.327 -17.542  0.00  0.00    -0.292 N 
ATOM      5  C   UNL     1      34.811 -18.750 -21.776  0.00  0.00    +0.046 C 
ATOM      6  C   UNL     1      33.782 -20.371 -20.322  0.00  0.00    +0.106 C 
ATOM      7  C   UNL     1      33.669 -19.352 -21.280  0.00  0.00    +0.018 C 
ATOM      8  C   UNL     1      36.020 -19.198 -21.287  0.00  0.00    +0.190 C 
ATOM      9  C   UNL     1      35.048 -20.769 -19.878  0.00  0.00    +0.152 C 
ATOM     10  C   UNL     1      32.680 -21.024 -19.777  0.00  0.00    +0.124 C 
ATOM     11  C   UNL     1      34.027 -22.304 -18.503  0.00  0.00    +0.152 C 
ATOM     12  H   UNL     1      35.081 -23.592 -17.243  0.00  0.00    +0.155 HD
ATOM     13  H   UNL     1      33.387 -23.776 -17.170  0.00  0.00    +0.155 HD
ATOM     14  N   UNL     1      37.212 -18.603 -21.772  0.00  0.00    -0.332 N 
ATOM     15  H   UNL     1      38.086 -18.908 -21.437  0.00  0.00    +0.145 HD
ATOM     16  H   UNL     1      37.165 -17.886 -22.445  0.00  0.00    +0.145 HD
ENDROOT
BRANCH   5  19
ATOM     17 BR   UNL     1      34.845 -19.795 -24.765  0.00  0.00    -0.049 Br
ATOM     18 BR   UNL     1      34.578 -15.846 -20.531  0.00  0.00    -0.049 Br
ATOM     19  C   UNL     1      34.699 -17.698 -22.764  0.00  0.00    +0.016 C 
ATOM     20  C   UNL     1      34.700 -18.009 -24.128  0.00  0.00    +0.035 C 
ATOM     21  C   UNL     1      34.589 -16.362 -22.363  0.00  0.00    +0.035 C 
ATOM     22  C   UNL     1      34.593 -16.995 -25.080  0.00  0.00    +0.007 C 
ATOM     23  C   UNL     1      34.482 -15.349 -23.315  0.00  0.00    +0.007 C 
ATOM     24  C   UNL     1      34.484 -15.665 -24.674  0.00  0.00    +0.001 C 
ENDBRANCH   5  19
TORSDOF 1
ENDMDL
MODEL 2
REMARK VINA RESULT:     -10.0      0.002      2.128
REMARK  Name = 5328120
REMARK  1 active torsions:
REMARK  status: ('A' for Active; 'I' for Inactive)
REMARK    1  A    between atoms: C_5  and  C_16
REMARK                            x       y       z     vdW  Elec       q    Type
REMARK                         _______ _______ _______ _____ _____    ______ ____
ROOT
ATOM      1  N   UNL     1      36.148 -20.181 -20.362  0.00  0.00    -0.324 NA
ATOM      2  N   UNL     1      35.161 -21.740 -18.963  0.00  0.00    -0.272 NA
ATOM      3  N   UNL     1      32.770 -22.001 -18.859  0.00  0.00    -0.169 NA
ATOM      4  N   UNL     1      34.179 -23.329 -17.542  0.00  0.00    -0.292 N 
ATOM      5  C   UNL     1      34.810 -18.750 -21.775  0.00  0.00    +0.046 C 
ATOM      6  C   UNL     1      33.781 -20.371 -20.321  0.00  0.00    +0.106 C 
ATOM      7  C   UNL     1      33.668 -19.352 -21.278  0.00  0.00    +0.018 C 
ATOM      8  C   UNL     1      36.019 -19.199 -21.286  0.00  0.00    +0.190 C 
ATOM      9  C   UNL     1      35.047 -20.769 -19.877  0.00  0.00    +0.152 C 
ATOM     10  C   UNL     1      32.679 -21.024 -19.775  0.00  0.00    +0.124 C 
ATOM     11  C   UNL     1      34.026 -22.305 -18.503  0.00  0.00    +0.152 C 
ATOM     12  H   UNL     1      35.080 -23.593 -17.243  0.00  0.00    +0.155 HD
ATOM     13  H   UNL     1      33.386 -23.777 -17.170  0.00  0.00    +0.155 HD
ATOM     14  N   UNL     1      37.211 -18.604 -21.771  0.00  0.00    -0.332 N 
ATOM     15  H   UNL     1      38.085 -18.909 -21.437  0.00  0.00    +0.145 HD
ATOM     16  H   UNL     1      37.164 -17.886 -22.444  0.00  0.00    +0.145 HD
ENDROOT
BRANCH   5  19
ATOM     17 BR   UNL     1      34.578 -15.847 -20.529  0.00  0.00    -0.049 Br
ATOM     18 BR   UNL     1      34.846 -19.795 -24.764  0.00  0.00    -0.049 Br
ATOM     19  C   UNL     1      34.699 -17.698 -22.762  0.00  0.00    +0.016 C 
ATOM     20  C   UNL     1      34.589 -16.362 -22.361  0.00  0.00    +0.035 C 
ATOM     21  C   UNL     1      34.700 -18.008 -24.126  0.00  0.00    +0.035 C 
ATOM     22  C   UNL     1      34.482 -15.349 -23.313  0.00  0.00    +0.007 C 
ATOM     23  C   UNL     1      34.593 -16.994 -25.078  0.00  0.00    +0.007 C 
ATOM     24  C   UNL     1      34.484 -15.664 -24.672  0.00  0.00    +0.001 C 
ENDBRANCH   5  19
TORSDOF 1
ENDMDL
MODEL 3
REMARK VINA RESULT:      -8.5      3.202      6.425
REMARK  Name = 5328120
REMARK  1 active torsions:
REMARK  status: ('A' for Active; 'I' for Inactive)
REMARK    1  A    between atoms: C_5  and  C_16
REMARK                            x       y       z     vdW  Elec       q    Type
REMARK                         _______ _______ _______ _____ _____    ______ ____
ROOT
ATOM      1  N   UNL     1      34.450 -17.309 -24.173  0.00  0.00    -0.324 NA
ATOM      2  N   UNL     1      33.995 -15.055 -24.443  0.00  0.00    -0.272 NA
ATOM      3  N   UNL     1      33.909 -13.554 -22.562  0.00  0.00    -0.169 NA
ATOM      4  N   UNL     1      33.536 -12.772 -24.737  0.00  0.00    -0.292 N 
ATOM      5  C   UNL     1      34.856 -18.245 -21.983  0.00  0.00    +0.046 C 
ATOM      6  C   UNL     1      34.384 -15.900 -22.262  0.00  0.00    +0.106 C 
ATOM      7  C   UNL     1      34.677 -16.990 -21.429  0.00  0.00    +0.018 C 
ATOM      8  C   UNL     1      34.733 -18.350 -23.353  0.00  0.00    +0.190 C 
ATOM      9  C   UNL     1      34.276 -16.091 -23.644  0.00  0.00    +0.152 C 
ATOM     10  C   UNL     1      34.190 -14.609 -21.779  0.00  0.00    +0.124 C 
ATOM     11  C   UNL     1      33.828 -13.846 -23.868  0.00  0.00    +0.152 C 
ATOM     12  H   UNL     1      33.464 -12.929 -25.707  0.00  0.00    +0.155 HD
ATOM     13  H   UNL     1      33.404 -11.867 -24.375  0.00  0.00    +0.155 HD
ATOM     14  N   UNL     1      34.910 -19.621 -23.956  0.00  0.00    -0.332 N 
ATOM     15  H   UNL     1      34.827 -19.719 -24.931  0.00  0.00    +0.145 HD
ATOM     16  H   UNL     1      35.116 -20.405 -23.398  0.00  0.00    +0.145 HD
ENDROOT
BRANCH   5  19
ATOM     17 BR   UNL     1      32.292 -19.644 -20.758  0.00  0.00    -0.049 Br
ATOM     18 BR   UNL     1      37.954 -18.839 -21.700  0.00  0.00    -0.049 Br
ATOM     19  C   UNL     1      35.159 -19.373 -21.128  0.00  0.00    +0.016 C 
ATOM     20  C   UNL     1      34.126 -20.091 -20.516  0.00  0.00    +0.035 C 
ATOM     21  C   UNL     1      36.486 -19.755 -20.909  0.00  0.00    +0.035 C 
ATOM     22  C   UNL     1      34.418 -21.178 -19.693  0.00  0.00    +0.007 C 
ATOM     23  C   UNL     1      36.778 -20.842 -20.085  0.00  0.00    +0.007 C 
ATOM     24  C   UNL     1      35.744 -21.555 -19.477  0.00  0.00    +0.001 C 
ENDBRANCH   5  19
TORSDOF 1
ENDMDL
MODEL 4
REMARK VINA RESULT:      -8.5      3.202      6.400
REMARK  Name = 5328120
REMARK  1 active torsions:
REMARK  status: ('A' for Active; 'I' for Inactive)
REMARK    1  A    between atoms: C_5  and  C_16
REMARK                            x       y       z     vdW  Elec       q    Type
REMARK                         _______ _______ _______ _____ _____    ______ ____
ROOT
ATOM      1  N   UNL     1      34.450 -17.309 -24.172  0.00  0.00    -0.324 NA
ATOM      2  N   UNL     1      33.995 -15.055 -24.442  0.00  0.00    -0.272 NA
ATOM      3  N   UNL     1      33.906 -13.555 -22.560  0.00  0.00    -0.169 NA
ATOM      4  N   UNL     1      33.536 -12.772 -24.736  0.00  0.00    -0.292 N 
ATOM      5  C   UNL     1      34.853 -18.246 -21.982  0.00  0.00    +0.046 C 
ATOM      6  C   UNL     1      34.381 -15.901 -22.261  0.00  0.00    +0.106 C 
ATOM      7  C   UNL     1      34.673 -16.992 -21.428  0.00  0.00    +0.018 C 
ATOM      8  C   UNL     1      34.732 -18.350 -23.353  0.00  0.00    +0.190 C 
ATOM      9  C   UNL     1      34.275 -16.091 -23.643  0.00  0.00    +0.152 C 
ATOM     10  C   UNL     1      34.186 -14.610 -21.777  0.00  0.00    +0.124 C 
ATOM     11  C   UNL     1      33.827 -13.846 -23.866  0.00  0.00    +0.152 C 
ATOM     12  H   UNL     1      33.466 -12.928 -25.706  0.00  0.00    +0.155 HD
ATOM     13  H   UNL     1      33.403 -11.867 -24.373  0.00  0.00    +0.155 HD
ATOM     14  N   UNL     1      34.909 -19.621 -23.956  0.00  0.00    -0.332 N 
ATOM     15  H   UNL     1      34.827 -19.719 -24.931  0.00  0.00    +0.145 HD
ATOM     16  H   UNL     1      35.115 -20.406 -23.398  0.00  0.00    +0.145 HD
ENDROOT
BRANCH   5  19
ATOM     17 BR   UNL     1      37.951 -18.840 -21.696  0.00  0.00    -0.049 Br
ATOM     18 BR   UNL     1      32.288 -19.644 -20.759  0.00  0.00    -0.049 Br
ATOM     19  C   UNL     1      35.155 -19.375 -21.128  0.00  0.00    +0.016 C 
ATOM     20  C   UNL     1      36.482 -19.756 -20.906  0.00  0.00    +0.035 C 
ATOM     21  C   UNL     1      34.121 -20.092 -20.516  0.00  0.00    +0.035 C 
ATOM     22  C   UNL     1      36.773 -20.844 -20.083  0.00  0.00    +0.007 C 
ATOM     23  C   UNL     1      34.412 -21.179 -19.693  0.00  0.00    +0.007 C 
ATOM     24  C   UNL     1      35.738 -21.556 -19.476  0.00  0.00    +0.001 C 
ENDBRANCH   5  19
TORSDOF 1
ENDMDL
MODEL 5
REMARK VINA RESULT:      -8.3      3.236      6.459
REMARK  Name = 5328120
REMARK  1 active torsions:
REMARK  status: ('A' for Active; 'I' for Inactive)
REMARK    1  A    between atoms: C_5  and  C_16
REMARK                            x       y       z     vdW  Elec       q    Type
REMARK                         _______ _______ _______ _____ _____    ______ ____
ROOT
ATOM      1  N   UNL     1      34.381 -15.731 -22.210  0.00  0.00    -0.324 NA
ATOM      2  N   UNL     1      33.802 -14.809 -24.254  0.00  0.00    -0.272 NA
ATOM      3  N   UNL     1      33.634 -16.160 -26.241  0.00  0.00    -0.169 NA
ATOM      4  N   UNL     1      33.210 -13.858 -26.316  0.00  0.00    -0.292 N 
ATOM      5  C   UNL     1      34.842 -18.092 -21.993  0.00  0.00    +0.046 C 
ATOM      6  C   UNL     1      34.239 -17.136 -24.120  0.00  0.00    +0.106 C 
ATOM      7  C   UNL     1      34.594 -18.250 -23.345  0.00  0.00    +0.018 C 
ATOM      8  C   UNL     1      34.722 -16.818 -21.478  0.00  0.00    +0.190 C 
ATOM      9  C   UNL     1      34.139 -15.876 -23.520  0.00  0.00    +0.152 C 
ATOM     10  C   UNL     1      33.975 -17.216 -25.485  0.00  0.00    +0.124 C 
ATOM     11  C   UNL     1      33.566 -15.002 -25.568  0.00  0.00    +0.152 C 
ATOM     12  H   UNL     1      33.145 -12.981 -25.873  0.00  0.00    +0.155 HD
ATOM     13  H   UNL     1      33.026 -13.937 -27.280  0.00  0.00    +0.155 HD
ATOM     14  N   UNL     1      34.970 -16.618 -20.096  0.00  0.00    -0.332 N 
ATOM     15  H   UNL     1      34.890 -15.718 -19.707  0.00  0.00    +0.145 HD
ATOM     16  H   UNL     1      35.221 -17.381 -19.526  0.00  0.00    +0.145 HD
ENDROOT
BRANCH   5  19
ATOM     17 BR   UNL     1      32.371 -19.570 -20.673  0.00  0.00    -0.049 Br
ATOM     18 BR   UNL     1      37.960 -18.639 -21.894  0.00  0.00    -0.049 Br
ATOM     19  C   UNL     1      35.208 -19.239 -21.189  0.00  0.00    +0.016 C 
ATOM     20  C   UNL     1      34.222 -19.991 -20.544  0.00  0.00    +0.035 C 
ATOM     21  C   UNL     1      36.552 -19.603 -21.052  0.00  0.00    +0.035 C 
ATOM     22  C   UNL     1      34.575 -21.096 -19.769  0.00  0.00    +0.007 C 
ATOM     23  C   UNL     1      36.905 -20.707 -20.277  0.00  0.00    +0.007 C 
ATOM     24  C   UNL     1      35.917 -21.454 -19.635  0.00  0.00    +0.001 C 
ENDBRANCH   5  19
TORSDOF 1
ENDMDL
MODEL 6
REMARK VINA RESULT:      -8.3      3.234      6.426
REMARK  Name = 5328120
REMARK  1 active torsions:
REMARK  status: ('A' for Active; 'I' for Inactive)
REMARK    1  A    between atoms: C_5  and  C_16
REMARK                            x       y       z     vdW  Elec       q    Type
REMARK                         _______ _______ _______ _____ _____    ______ ____
ROOT
ATOM      1  N   UNL     1      34.383 -15.738 -22.211  0.00  0.00    -0.324 NA
ATOM      2  N   UNL     1      33.801 -14.818 -24.254  0.00  0.00    -0.272 NA
ATOM      3  N   UNL     1      33.630 -16.171 -26.240  0.00  0.00    -0.169 NA
ATOM      4  N   UNL     1      33.206 -13.869 -26.317  0.00  0.00    -0.292 N 
ATOM      5  C   UNL     1      34.844 -18.099 -21.992  0.00  0.00    +0.046 C 
ATOM      6  C   UNL     1      34.238 -17.145 -24.118  0.00  0.00    +0.106 C 
ATOM      7  C   UNL     1      34.594 -18.259 -23.343  0.00  0.00    +0.018 C 
ATOM      8  C   UNL     1      34.725 -16.825 -21.477  0.00  0.00    +0.190 C 
ATOM      9  C   UNL     1      34.139 -15.884 -23.520  0.00  0.00    +0.152 C 
ATOM     10  C   UNL     1      33.972 -17.226 -25.483  0.00  0.00    +0.124 C 
ATOM     11  C   UNL     1      33.564 -15.012 -25.568  0.00  0.00    +0.152 C 
ATOM     12  H   UNL     1      33.142 -12.991 -25.875  0.00  0.00    +0.155 HD
ATOM     13  H   UNL     1      33.021 -13.949 -27.280  0.00  0.00    +0.155 HD
ATOM     14  N   UNL     1      34.974 -16.623 -20.096  0.00  0.00    -0.332 N 
ATOM     15  H   UNL     1      34.895 -15.723 -19.708  0.00  0.00    +0.145 HD
ATOM     16  H   UNL     1      35.226 -17.386 -19.526  0.00  0.00    +0.145 HD
ENDROOT
BRANCH   5  19
ATOM     17 BR   UNL     1      37.962 -18.644 -21.892  0.00  0.00    -0.049 Br
ATOM     18 BR   UNL     1      32.374 -19.577 -20.670  0.00  0.00    -0.049 Br
ATOM     19  C   UNL     1      35.211 -19.245 -21.187  0.00  0.00    +0.016 C 
ATOM     20  C   UNL     1      36.555 -19.608 -21.049  0.00  0.00    +0.035 C 
ATOM     21  C   UNL     1      34.225 -19.997 -20.540  0.00  0.00    +0.035 C 
ATOM     22  C   UNL     1      36.909 -20.711 -20.274  0.00  0.00    +0.007 C 
ATOM     23  C   UNL     1      34.580 -21.101 -19.765  0.00  0.00    +0.007 C 
ATOM     24  C   UNL     1      35.921 -21.459 -19.631  0.00  0.00    +0.001 C 
ENDBRANCH   5  19
TORSDOF 1
ENDMDL
MODEL 7
REMARK VINA RESULT:      -8.1      6.185      9.456
REMARK  Name = 5328120
REMARK  1 active torsions:
REMARK  status: ('A' for Active; 'I' for Inactive)
REMARK    1  A    between atoms: C_5  and  C_16
REMARK                            x       y       z     vdW  Elec       q    Type
REMARK                         _______ _______ _______ _____ _____    ______ ____
ROOT
ATOM      1  N   UNL     1      32.132 -11.237 -22.541  0.00  0.00    -0.324 NA
ATOM      2  N   UNL     1      32.579  -8.974 -22.748  0.00  0.00    -0.272 NA
ATOM      3  N   UNL     1      34.430  -8.172 -24.064  0.00  0.00    -0.169 NA
ATOM      4  N   UNL     1      33.014  -6.677 -22.948  0.00  0.00    -0.292 N 
ATOM      5  C   UNL     1      33.512 -12.885 -23.642  0.00  0.00    +0.046 C 
ATOM      6  C   UNL     1      33.978 -10.533 -23.859  0.00  0.00    +0.106 C 
ATOM      7  C   UNL     1      34.291 -11.867 -24.159  0.00  0.00    +0.018 C 
ATOM      8  C   UNL     1      32.449 -12.519 -22.843  0.00  0.00    +0.190 C 
ATOM      9  C   UNL     1      32.881 -10.244 -23.039  0.00  0.00    +0.152 C 
ATOM     10  C   UNL     1      34.715  -9.455 -24.342  0.00  0.00    +0.124 C 
ATOM     11  C   UNL     1      33.361  -8.007 -23.271  0.00  0.00    +0.152 C 
ATOM     12  H   UNL     1      32.238  -6.496 -22.369  0.00  0.00    +0.155 HD
ATOM     13  H   UNL     1      33.548  -5.929 -23.302  0.00  0.00    +0.155 HD
ATOM     14  N   UNL     1      31.628 -13.536 -22.294  0.00  0.00    -0.332 N 
ATOM     15  H   UNL     1      30.864 -13.297 -21.721  0.00  0.00    +0.145 HD
ATOM     16  H   UNL     1      31.822 -14.482 -22.487  0.00  0.00    +0.145 HD
ENDROOT
BRANCH   5  19
ATOM     17 BR   UNL     1      34.757 -14.483 -21.207  0.00  0.00    -0.049 Br
ATOM     18 BR   UNL     1      32.827 -13.722 -26.619  0.00  0.00    -0.049 Br
ATOM     19  C   UNL     1      33.830 -14.264 -23.949  0.00  0.00    +0.016 C 
ATOM     20  C   UNL     1      34.387 -15.094 -22.970  0.00  0.00    +0.035 C 
ATOM     21  C   UNL     1      33.583 -14.777 -25.227  0.00  0.00    +0.035 C 
ATOM     22  C   UNL     1      34.693 -16.422 -23.266  0.00  0.00    +0.007 C 
ATOM     23  C   UNL     1      33.890 -16.105 -25.523  0.00  0.00    +0.007 C 
ATOM     24  C   UNL     1      34.445 -16.928 -24.542  0.00  0.00    +0.001 C 
ENDBRANCH   5  19
TORSDOF 1
ENDMDL
MODEL 8
REMARK VINA RESULT:      -8.1      6.172      9.313
REMARK  Name = 5328120
REMARK  1 active torsions:
REMARK  status: ('A' for Active; 'I' for Inactive)
REMARK    1  A    between atoms: C_5  and  C_16
REMARK                            x       y       z     vdW  Elec       q    Type
REMARK                         _______ _______ _______ _____ _____    ______ ____
ROOT
ATOM      1  N   UNL     1      32.151 -11.240 -22.574  0.00  0.00    -0.324 NA
ATOM      2  N   UNL     1      32.611  -8.981 -22.794  0.00  0.00    -0.272 NA
ATOM      3  N   UNL     1      34.467  -8.197 -24.113  0.00  0.00    -0.169 NA
ATOM      4  N   UNL     1      33.059  -6.688 -23.008  0.00  0.00    -0.292 N 
ATOM      5  C   UNL     1      33.523 -12.903 -23.664  0.00  0.00    +0.046 C 
ATOM      6  C   UNL     1      34.003 -10.555 -23.894  0.00  0.00    +0.106 C 
ATOM      7  C   UNL     1      34.309 -11.892 -24.187  0.00  0.00    +0.018 C 
ATOM      8  C   UNL     1      32.461 -12.526 -22.868  0.00  0.00    +0.190 C 
ATOM      9  C   UNL     1      32.907 -10.255 -23.077  0.00  0.00    +0.152 C 
ATOM     10  C   UNL     1      34.746  -9.483 -24.383  0.00  0.00    +0.124 C 
ATOM     11  C   UNL     1      33.398  -8.022 -23.322  0.00  0.00    +0.152 C 
ATOM     12  H   UNL     1      32.283  -6.499 -22.431  0.00  0.00    +0.155 HD
ATOM     13  H   UNL     1      33.597  -5.945 -23.365  0.00  0.00    +0.155 HD
ATOM     14  N   UNL     1      31.635 -13.535 -22.314  0.00  0.00    -0.332 N 
ATOM     15  H   UNL     1      30.872 -13.289 -21.743  0.00  0.00    +0.145 HD
ATOM     16  H   UNL     1      31.824 -14.483 -22.501  0.00  0.00    +0.145 HD
ENDROOT
BRANCH   5  19
ATOM     17 BR   UNL     1      32.846 -13.752 -26.639  0.00  0.00    -0.049 Br
ATOM     18 BR   UNL     1      34.750 -14.494 -21.216  0.00  0.00    -0.049 Br
ATOM     19  C   UNL     1      33.834 -14.285 -23.962  0.00  0.00    +0.016 C 
ATOM     20  C   UNL     1      33.590 -14.803 -25.238  0.00  0.00    +0.035 C 
ATOM     21  C   UNL     1      34.383 -15.113 -22.977  0.00  0.00    +0.035 C 
ATOM     22  C   UNL     1      33.890 -16.134 -25.526  0.00  0.00    +0.007 C 
ATOM     23  C   UNL     1      34.683 -16.444 -23.265  0.00  0.00    +0.007 C 
ATOM     24  C   UNL     1      34.436 -16.955 -24.539  0.00  0.00    +0.001 C 
ENDBRANCH   5  19
TORSDOF 1
ENDMDL
MODEL 9
REMARK VINA RESULT:      -7.7      6.757      8.926
REMARK  Name = 5328120
REMARK  1 active torsions:
REMARK  status: ('A' for Active; 'I' for Inactive)
REMARK    1  A    between atoms: C_5  and  C_16
REMARK                            x       y       z     vdW  Elec       q    Type
REMARK                         _______ _______ _______ _____ _____    ______ ____
ROOT
ATOM      1  N   UNL     1      37.364 -23.183 -14.945  0.00  0.00    -0.324 NA
ATOM      2  N   UNL     1      39.028 -24.751 -14.579  0.00  0.00    -0.272 NA
ATOM      3  N   UNL     1      38.572 -27.114 -14.673  0.00  0.00    -0.169 NA
ATOM      4  N   UNL     1      40.728 -26.327 -14.209  0.00  0.00    -0.292 N 
ATOM      5  C   UNL     1      35.098 -23.860 -15.437  0.00  0.00    +0.046 C 
ATOM      6  C   UNL     1      36.827 -25.494 -15.057  0.00  0.00    +0.106 C 
ATOM      7  C   UNL     1      35.490 -25.184 -15.348  0.00  0.00    +0.018 C 
ATOM      8  C   UNL     1      36.070 -22.903 -15.228  0.00  0.00    +0.190 C 
ATOM      9  C   UNL     1      37.752 -24.462 -14.859  0.00  0.00    +0.152 C 
ATOM     10  C   UNL     1      37.296 -26.800 -14.951  0.00  0.00    +0.124 C 
ATOM     11  C   UNL     1      39.374 -26.053 -14.502  0.00  0.00    +0.152 C 
ATOM     12  H   UNL     1      41.362 -25.585 -14.073  0.00  0.00    +0.155 HD
ATOM     13  H   UNL     1      41.038 -27.258 -14.140  0.00  0.00    +0.155 HD
ATOM     14  N   UNL     1      35.704 -21.535 -15.310  0.00  0.00    -0.332 N 
ATOM     15  H   UNL     1      36.381 -20.836 -15.166  0.00  0.00    +0.145 HD
ATOM     16  H   UNL     1      34.774 -21.286 -15.513  0.00  0.00    +0.145 HD
ENDROOT
BRANCH   5  19
ATOM     17 BR   UNL     1      33.131 -24.247 -12.985  0.00  0.00    -0.049 Br
ATOM     18 BR   UNL     1      34.633 -22.898 -18.418  0.00  0.00    -0.049 Br
ATOM     19  C   UNL     1      33.720 -23.535 -15.737  0.00  0.00    +0.016 C 
ATOM     20  C   UNL     1      32.736 -23.657 -14.750  0.00  0.00    +0.035 C 
ATOM     21  C   UNL     1      33.362 -23.096 -17.015  0.00  0.00    +0.035 C 
ATOM     22  C   UNL     1      31.408 -23.344 -15.040  0.00  0.00    +0.007 C 
ATOM     23  C   UNL     1      32.034 -22.782 -17.305  0.00  0.00    +0.007 C 
ATOM     24  C   UNL     1      31.057 -22.906 -16.317  0.00  0.00    +0.001 C 
ENDBRANCH   5  19
TORSDOF 1
ENDMDL
