MODEL 1
REMARK VINA RESULT:     -11.1      0.000      0.000
REMARK  Name = 6914633
REMARK  5 active torsions:
REMARK  status: ('A' for Active; 'I' for Inactive)
REMARK    1  A    between atoms: C_1  and  C_11
REMARK    2  A    between atoms: C_2  and  N_21
REMARK    3  A    between atoms: C_12  and  C_19
REMARK    4  A    between atoms: N_21  and  C_23
REMARK    5  A    between atoms: C_23  and  C_26
REMARK                            x       y       z     vdW  Elec       q    Type
REMARK                         _______ _______ _______ _____ _____    ______ ____
ROOT
ATOM      1  C   UNL     1      35.069 -18.879 -21.680  0.00  0.00    -0.008 C 
ATOM      2  C   UNL     1      35.725 -20.816 -19.785  0.00  0.00    +0.045 C 
ATOM      3  C   UNL     1      36.391 -19.022 -21.260  0.00  0.00    -0.002 C 
ATOM      4  C   UNL     1      34.075 -19.703 -21.154  0.00  0.00    -0.002 C 
ATOM      5  C   UNL     1      36.719 -19.992 -20.312  0.00  0.00    +0.014 C 
ATOM      6  C   UNL     1      34.404 -20.672 -20.205  0.00  0.00    +0.014 C 
ENDROOT
BRANCH   1  11
ATOM      7  N   UNL     1      34.149 -15.597 -23.195  0.00  0.00    -0.337 NA
ATOM      8  N   UNL     1      34.323 -17.238 -24.953  0.00  0.00    -0.317 NA
ATOM      9  N   UNL     1      34.890 -19.479 -24.454  0.00  0.00    -0.335 N 
ATOM     10  N   UNL     1      33.762 -15.011 -25.434  0.00  0.00    -0.283 N 
ATOM     11  C   UNL     1      34.729 -17.875 -22.665  0.00  0.00    +0.138 C 
ATOM     12  C   UNL     1      34.470 -16.566 -22.311  0.00  0.00    +0.112 C 
ATOM     13  C   UNL     1      34.638 -18.154 -24.014  0.00  0.00    +0.178 C 
ATOM     14  C   UNL     1      34.094 -15.997 -24.480  0.00  0.00    +0.196 C 
ATOM     15  H   UNL     1      34.832 -19.698 -25.412  0.00  0.00    +0.144 HD
ATOM     16  H   UNL     1      35.124 -20.177 -23.802  0.00  0.00    +0.144 HD
ATOM     17  H   UNL     1      33.585 -14.086 -25.144  0.00  0.00    +0.156 HD
ATOM     18  H   UNL     1      33.708 -15.247 -26.388  0.00  0.00    +0.156 HD
BRANCH  12  19
ATOM     19  C   UNL     1      34.533 -16.129 -20.883  0.00  0.00    +0.056 C 
ATOM     20  C   UNL     1      33.347 -15.250 -20.496  0.00  0.00    +0.008 C 
ENDBRANCH  12  19
ENDBRANCH   1  11
BRANCH   2  21
ATOM     21  N   UNL     1      36.057 -21.796 -18.826  0.00  0.00    -0.329 N 
ATOM     22  H   UNL     1      35.771 -22.725 -18.982  0.00  0.00    +0.147 HD
BRANCH  21  23
ATOM     23  C   UNL     1      36.791 -21.500 -17.634  0.00  0.00    +0.114 C 
BRANCH  23  26
ATOM     24  F   UNL     1      33.719 -24.275 -15.075  0.00  0.00    -0.204 F 
ATOM     25  F   UNL     1      38.338 -24.393 -14.038  0.00  0.00    -0.204 F 
ATOM     26  C   UNL     1      36.522 -22.504 -16.545  0.00  0.00    +0.002 C 
ATOM     27  C   UNL     1      37.577 -22.989 -15.786  0.00  0.00    +0.027 C 
ATOM     28  C   UNL     1      35.221 -22.928 -16.315  0.00  0.00    +0.027 C 
ATOM     29  C   UNL     1      34.970 -23.858 -15.306  0.00  0.00    +0.142 C 
ATOM     30  C   UNL     1      37.327 -23.918 -14.776  0.00  0.00    +0.142 C 
ATOM     31  C   UNL     1      36.023 -24.352 -14.535  0.00  0.00    +0.059 C 
ENDBRANCH  23  26
ENDBRANCH  21  23
ENDBRANCH   2  21
TORSDOF 5
ENDMDL
MODEL 2
REMARK VINA RESULT:     -11.1      0.057      1.621
REMARK  Name = 6914633
REMARK  5 active torsions:
REMARK  status: ('A' for Active; 'I' for Inactive)
REMARK    1  A    between atoms: C_1  and  C_11
REMARK    2  A    between atoms: C_2  and  N_21
REMARK    3  A    between atoms: C_12  and  C_19
REMARK    4  A    between atoms: N_21  and  C_23
REMARK    5  A    between atoms: C_23  and  C_26
REMARK                            x       y       z     vdW  Elec       q    Type
REMARK                         _______ _______ _______ _____ _____    ______ ____
ROOT
ATOM      1  C   UNL     1      35.095 -18.847 -21.695  0.00  0.00    -0.008 C 
ATOM      2  C   UNL     1      35.796 -20.775 -19.806  0.00  0.00    +0.045 C 
ATOM      3  C   UNL     1      36.425 -18.981 -21.297  0.00  0.00    -0.002 C 
ATOM      4  C   UNL     1      34.116 -19.677 -21.150  0.00  0.00    -0.002 C 
ATOM      5  C   UNL     1      36.776 -19.946 -20.353  0.00  0.00    +0.014 C 
ATOM      6  C   UNL     1      34.467 -20.641 -20.204  0.00  0.00    +0.014 C 
ENDROOT
BRANCH   1  11
ATOM      7  N   UNL     1      34.127 -15.576 -23.203  0.00  0.00    -0.337 NA
ATOM      8  N   UNL     1      34.285 -17.220 -24.959  0.00  0.00    -0.317 NA
ATOM      9  N   UNL     1      34.876 -19.456 -24.465  0.00  0.00    -0.335 N 
ATOM     10  N   UNL     1      33.699 -14.999 -25.436  0.00  0.00    -0.283 N 
ATOM     11  C   UNL     1      34.732 -17.849 -22.677  0.00  0.00    +0.138 C 
ATOM     12  C   UNL     1      34.469 -16.540 -22.322  0.00  0.00    +0.112 C 
ATOM     13  C   UNL     1      34.622 -18.132 -24.024  0.00  0.00    +0.178 C 
ATOM     14  C   UNL     1      34.054 -15.980 -24.486  0.00  0.00    +0.196 C 
ATOM     15  H   UNL     1      34.804 -19.678 -25.421  0.00  0.00    +0.144 HD
ATOM     16  H   UNL     1      35.126 -20.151 -23.814  0.00  0.00    +0.144 HD
ATOM     17  H   UNL     1      33.520 -14.074 -25.146  0.00  0.00    +0.156 HD
ATOM     18  H   UNL     1      33.631 -15.238 -26.389  0.00  0.00    +0.156 HD
BRANCH  12  19
ATOM     19  C   UNL     1      34.552 -16.100 -20.896  0.00  0.00    +0.056 C 
ATOM     20  C   UNL     1      33.374 -15.216 -20.496  0.00  0.00    +0.008 C 
ENDBRANCH  12  19
ENDBRANCH   1  11
BRANCH   2  21
ATOM     21  N   UNL     1      36.150 -21.750 -18.850  0.00  0.00    -0.329 N 
ATOM     22  H   UNL     1      35.923 -22.691 -19.030  0.00  0.00    +0.147 HD
BRANCH  21  23
ATOM     23  C   UNL     1      36.827 -21.433 -17.630  0.00  0.00    +0.114 C 
BRANCH  23  26
ATOM     24  F   UNL     1      38.347 -24.378 -14.066  0.00  0.00    -0.204 F 
ATOM     25  F   UNL     1      33.732 -24.223 -15.114  0.00  0.00    -0.204 F 
ATOM     26  C   UNL     1      36.548 -22.447 -16.554  0.00  0.00    +0.002 C 
ATOM     27  C   UNL     1      35.245 -22.869 -16.333  0.00  0.00    +0.027 C 
ATOM     28  C   UNL     1      37.599 -22.948 -15.798  0.00  0.00    +0.027 C 
ATOM     29  C   UNL     1      37.341 -23.888 -14.801  0.00  0.00    +0.142 C 
ATOM     30  C   UNL     1      34.986 -23.809 -15.336  0.00  0.00    +0.142 C 
ATOM     31  C   UNL     1      36.035 -24.320 -14.570  0.00  0.00    +0.059 C 
ENDBRANCH  23  26
ENDBRANCH  21  23
ENDBRANCH   2  21
TORSDOF 5
ENDMDL
MODEL 3
REMARK VINA RESULT:     -11.0      1.623      2.673
REMARK  Name = 6914633
REMARK  5 active torsions:
REMARK  status: ('A' for Active; 'I' for Inactive)
REMARK    1  A    between atoms: C_1  and  C_11
REMARK    2  A    between atoms: C_2  and  N_21
REMARK    3  A    between atoms: C_12  and  C_19
REMARK    4  A    between atoms: N_21  and  C_23
REMARK    5  A    between atoms: C_23  and  C_26
REMARK                            x       y       z     vdW  Elec       q    Type
REMARK                         _______ _______ _______ _____ _____    ______ ____
ROOT
ATOM      1  C   UNL     1      34.601 -19.119 -21.675  0.00  0.00    -0.008 C 
ATOM      2  C   UNL     1      34.764 -21.081 -19.700  0.00  0.00    +0.045 C 
ATOM      3  C   UNL     1      35.848 -19.532 -21.204  0.00  0.00    -0.002 C 
ATOM      4  C   UNL     1      33.437 -19.687 -21.159  0.00  0.00    -0.002 C 
ATOM      5  C   UNL     1      35.929 -20.513 -20.217  0.00  0.00    +0.014 C 
ATOM      6  C   UNL     1      33.519 -20.668 -20.170  0.00  0.00    +0.014 C 
ENDROOT
BRANCH   1  11
ATOM      7  N   UNL     1      34.256 -15.788 -23.315  0.00  0.00    -0.337 NA
ATOM      8  N   UNL     1      34.527 -17.466 -25.025  0.00  0.00    -0.317 NA
ATOM      9  N   UNL     1      34.783 -19.744 -24.443  0.00  0.00    -0.335 N 
ATOM     10  N   UNL     1      34.272 -15.202 -25.587  0.00  0.00    -0.283 N 
ATOM     11  C   UNL     1      34.516 -18.103 -22.701  0.00  0.00    +0.138 C 
ATOM     12  C   UNL     1      34.341 -16.768 -22.392  0.00  0.00    +0.112 C 
ATOM     13  C   UNL     1      34.603 -18.394 -24.048  0.00  0.00    +0.178 C 
ATOM     14  C   UNL     1      34.356 -16.201 -24.593  0.00  0.00    +0.196 C 
ATOM     15  H   UNL     1      34.848 -19.972 -25.399  0.00  0.00    +0.144 HD
ATOM     16  H   UNL     1      34.844 -20.451 -23.762  0.00  0.00    +0.144 HD
ATOM     17  H   UNL     1      34.148 -14.260 -25.329  0.00  0.00    +0.156 HD
ATOM     18  H   UNL     1      34.339 -15.448 -26.539  0.00  0.00    +0.156 HD
BRANCH  12  19
ATOM     19  C   UNL     1      34.231 -16.317 -20.972  0.00  0.00    +0.056 C 
ATOM     20  C   UNL     1      32.939 -15.549 -20.708  0.00  0.00    +0.008 C 
ENDBRANCH  12  19
ENDBRANCH   1  11
BRANCH   2  21
ATOM     21  N   UNL     1      34.846 -22.073 -18.700  0.00  0.00    -0.329 N 
ATOM     22  H   UNL     1      35.616 -22.062 -18.087  0.00  0.00    +0.147 HD
BRANCH  21  23
ATOM     23  C   UNL     1      33.859 -23.096 -18.537  0.00  0.00    +0.114 C 
BRANCH  23  26
ATOM     24  F   UNL     1      34.658 -23.672 -13.771  0.00  0.00    -0.204 F 
ATOM     25  F   UNL     1      30.233 -22.949 -15.293  0.00  0.00    -0.204 F 
ATOM     26  C   UNL     1      33.359 -23.171 -17.120  0.00  0.00    +0.002 C 
ATOM     27  C   UNL     1      32.003 -23.021 -16.864  0.00  0.00    +0.027 C 
ATOM     28  C   UNL     1      34.260 -23.390 -16.088  0.00  0.00    +0.027 C 
ATOM     29  C   UNL     1      33.798 -23.461 -14.774  0.00  0.00    +0.142 C 
ATOM     30  C   UNL     1      31.539 -23.092 -15.550  0.00  0.00    +0.142 C 
ATOM     31  C   UNL     1      32.437 -23.313 -14.505  0.00  0.00    +0.059 C 
ENDBRANCH  23  26
ENDBRANCH  21  23
ENDBRANCH   2  21
TORSDOF 5
ENDMDL
MODEL 4
REMARK VINA RESULT:     -10.9      1.801      3.450
REMARK  Name = 6914633
REMARK  5 active torsions:
REMARK  status: ('A' for Active; 'I' for Inactive)
REMARK    1  A    between atoms: C_1  and  C_11
REMARK    2  A    between atoms: C_2  and  N_21
REMARK    3  A    between atoms: C_12  and  C_19
REMARK    4  A    between atoms: N_21  and  C_23
REMARK    5  A    between atoms: C_23  and  C_26
REMARK                            x       y       z     vdW  Elec       q    Type
REMARK                         _______ _______ _______ _____ _____    ______ ____
ROOT
ATOM      1  C   UNL     1      34.802 -18.405 -21.256  0.00  0.00    -0.008 C 
ATOM      2  C   UNL     1      35.043 -20.859 -19.953  0.00  0.00    +0.045 C 
ATOM      3  C   UNL     1      33.659 -19.134 -20.926  0.00  0.00    -0.002 C 
ATOM      4  C   UNL     1      36.064 -18.902 -20.935  0.00  0.00    -0.002 C 
ATOM      5  C   UNL     1      33.779 -20.361 -20.274  0.00  0.00    +0.014 C 
ATOM      6  C   UNL     1      36.185 -20.130 -20.283  0.00  0.00    +0.014 C 
ENDROOT
BRANCH   1  11
ATOM      7  N   UNL     1      34.569 -15.867 -23.978  0.00  0.00    -0.337 NA
ATOM      8  N   UNL     1      34.428 -14.736 -21.853  0.00  0.00    -0.317 NA
ATOM      9  N   UNL     1      34.532 -15.959 -19.832  0.00  0.00    -0.335 N 
ATOM     10  N   UNL     1      34.325 -13.536 -23.867  0.00  0.00    -0.283 N 
ATOM     11  C   UNL     1      34.677 -17.131 -21.930  0.00  0.00    +0.138 C 
ATOM     12  C   UNL     1      34.682 -17.032 -23.307  0.00  0.00    +0.112 C 
ATOM     13  C   UNL     1      34.546 -15.937 -21.249  0.00  0.00    +0.178 C 
ATOM     14  C   UNL     1      34.447 -14.774 -23.200  0.00  0.00    +0.196 C 
ATOM     15  H   UNL     1      34.440 -15.118 -19.328  0.00  0.00    +0.144 HD
ATOM     16  H   UNL     1      34.615 -16.814 -19.353  0.00  0.00    +0.144 HD
ATOM     17  H   UNL     1      34.332 -13.504 -24.851  0.00  0.00    +0.156 HD
ATOM     18  H   UNL     1      34.233 -12.704 -23.348  0.00  0.00    +0.156 HD
BRANCH  12  19
ATOM     19  C   UNL     1      34.818 -18.249 -24.164  0.00  0.00    +0.056 C 
ATOM     20  C   UNL     1      34.005 -18.143 -25.451  0.00  0.00    +0.008 C 
ENDBRANCH  12  19
ENDBRANCH   1  11
BRANCH   2  21
ATOM     21  N   UNL     1      35.165 -22.100 -19.294  0.00  0.00    -0.329 N 
ATOM     22  H   UNL     1      36.052 -22.375 -18.967  0.00  0.00    +0.147 HD
BRANCH  21  23
ATOM     23  C   UNL     1      34.056 -22.979 -19.079  0.00  0.00    +0.114 C 
BRANCH  23  26
ATOM     24  F   UNL     1      35.256 -23.112 -14.364  0.00  0.00    -0.204 F 
ATOM     25  F   UNL     1      30.681 -23.252 -15.581  0.00  0.00    -0.204 F 
ATOM     26  C   UNL     1      33.671 -23.050 -17.626  0.00  0.00    +0.002 C 
ATOM     27  C   UNL     1      32.330 -23.119 -17.276  0.00  0.00    +0.027 C 
ATOM     28  C   UNL     1      34.663 -23.047 -16.656  0.00  0.00    +0.027 C 
ATOM     29  C   UNL     1      34.307 -23.114 -15.309  0.00  0.00    +0.142 C 
ATOM     30  C   UNL     1      31.973 -23.185 -15.929  0.00  0.00    +0.142 C 
ATOM     31  C   UNL     1      32.962 -23.184 -14.945  0.00  0.00    +0.059 C 
ENDBRANCH  23  26
ENDBRANCH  21  23
ENDBRANCH   2  21
TORSDOF 5
ENDMDL
MODEL 5
REMARK VINA RESULT:     -10.8      8.197     12.875
REMARK  Name = 6914633
REMARK  5 active torsions:
REMARK  status: ('A' for Active; 'I' for Inactive)
REMARK    1  A    between atoms: C_1  and  C_11
REMARK    2  A    between atoms: C_2  and  N_21
REMARK    3  A    between atoms: C_12  and  C_19
REMARK    4  A    between atoms: N_21  and  C_23
REMARK    5  A    between atoms: C_23  and  C_26
REMARK                            x       y       z     vdW  Elec       q    Type
REMARK                         _______ _______ _______ _____ _____    ______ ____
ROOT
ATOM      1  C   UNL     1      33.194 -13.102 -23.653  0.00  0.00    -0.008 C 
ATOM      2  C   UNL     1      32.453 -10.538 -22.845  0.00  0.00    +0.045 C 
ATOM      3  C   UNL     1      32.168 -12.934 -22.723  0.00  0.00    -0.002 C 
ATOM      4  C   UNL     1      33.849 -11.990 -24.179  0.00  0.00    -0.002 C 
ATOM      5  C   UNL     1      31.797 -11.651 -22.320  0.00  0.00    +0.014 C 
ATOM      6  C   UNL     1      33.479 -10.707 -23.774  0.00  0.00    +0.014 C 
ENDROOT
BRANCH   1  11
ATOM      7  N   UNL     1      34.672 -16.526 -23.601  0.00  0.00    -0.337 NA
ATOM      8  N   UNL     1      33.601 -16.179 -25.733  0.00  0.00    -0.317 NA
ATOM      9  N   UNL     1      32.521 -14.132 -26.217  0.00  0.00    -0.335 N 
ATOM     10  N   UNL     1      34.676 -18.205 -25.239  0.00  0.00    -0.283 N 
ATOM     11  C   UNL     1      33.577 -14.432 -24.073  0.00  0.00    +0.138 C 
ATOM     12  C   UNL     1      34.294 -15.279 -23.251  0.00  0.00    +0.112 C 
ATOM     13  C   UNL     1      33.256 -14.943 -25.316  0.00  0.00    +0.178 C 
ATOM     14  C   UNL     1      34.298 -16.906 -24.838  0.00  0.00    +0.196 C 
ATOM     15  H   UNL     1      32.282 -14.477 -27.107  0.00  0.00    +0.144 HD
ATOM     16  H   UNL     1      32.249 -13.224 -25.951  0.00  0.00    +0.144 HD
ATOM     17  H   UNL     1      35.186 -18.782 -24.625  0.00  0.00    +0.156 HD
ATOM     18  H   UNL     1      34.429 -18.536 -26.133  0.00  0.00    +0.156 HD
BRANCH  12  19
ATOM     19  C   UNL     1      34.706 -14.850 -21.880  0.00  0.00    +0.056 C 
ATOM     20  C   UNL     1      34.667 -16.001 -20.879  0.00  0.00    +0.008 C 
ENDBRANCH  12  19
ENDBRANCH   1  11
BRANCH   2  21
ATOM     21  N   UNL     1      32.079  -9.241 -22.436  0.00  0.00    -0.329 N 
ATOM     22  H   UNL     1      31.131  -9.062 -22.244  0.00  0.00    +0.147 HD
BRANCH  21  23
ATOM     23  C   UNL     1      33.018  -8.171 -22.288  0.00  0.00    +0.114 C 
BRANCH  23  26
ATOM     24  F   UNL     1      30.523  -4.907 -24.898  0.00  0.00    -0.204 F 
ATOM     25  F   UNL     1      35.004  -5.869 -26.090  0.00  0.00    -0.204 F 
ATOM     26  C   UNL     1      32.929  -7.186 -23.422  0.00  0.00    +0.002 C 
ATOM     27  C   UNL     1      34.030  -6.984 -24.242  0.00  0.00    +0.027 C 
ATOM     28  C   UNL     1      31.745  -6.494 -23.634  0.00  0.00    +0.027 C 
ATOM     29  C   UNL     1      31.660  -5.581 -24.685  0.00  0.00    +0.142 C 
ATOM     30  C   UNL     1      33.947  -6.071 -25.293  0.00  0.00    +0.142 C 
ATOM     31  C   UNL     1      32.761  -5.370 -25.516  0.00  0.00    +0.059 C 
ENDBRANCH  23  26
ENDBRANCH  21  23
ENDBRANCH   2  21
TORSDOF 5
ENDMDL
MODEL 6
REMARK VINA RESULT:     -10.8      8.215     12.984
REMARK  Name = 6914633
REMARK  5 active torsions:
REMARK  status: ('A' for Active; 'I' for Inactive)
REMARK    1  A    between atoms: C_1  and  C_11
REMARK    2  A    between atoms: C_2  and  N_21
REMARK    3  A    between atoms: C_12  and  C_19
REMARK    4  A    between atoms: N_21  and  C_23
REMARK    5  A    between atoms: C_23  and  C_26
REMARK                            x       y       z     vdW  Elec       q    Type
REMARK                         _______ _______ _______ _____ _____    ______ ____
ROOT
ATOM      1  C   UNL     1      33.189 -13.106 -23.682  0.00  0.00    -0.008 C 
ATOM      2  C   UNL     1      32.472 -10.532 -22.885  0.00  0.00    +0.045 C 
ATOM      3  C   UNL     1      32.177 -12.925 -22.739  0.00  0.00    -0.002 C 
ATOM      4  C   UNL     1      33.843 -12.002 -24.226  0.00  0.00    -0.002 C 
ATOM      5  C   UNL     1      31.817 -11.638 -22.341  0.00  0.00    +0.014 C 
ATOM      6  C   UNL     1      33.484 -10.713 -23.827  0.00  0.00    +0.014 C 
ENDROOT
BRANCH   1  11
ATOM      7  N   UNL     1      34.639 -16.542 -23.616  0.00  0.00    -0.337 NA
ATOM      8  N   UNL     1      33.566 -16.197 -25.746  0.00  0.00    -0.317 NA
ATOM      9  N   UNL     1      32.501 -14.144 -26.238  0.00  0.00    -0.335 N 
ATOM     10  N   UNL     1      34.625 -18.230 -25.245  0.00  0.00    -0.283 N 
ATOM     11  C   UNL     1      33.560 -14.442 -24.096  0.00  0.00    +0.138 C 
ATOM     12  C   UNL     1      34.272 -15.289 -23.271  0.00  0.00    +0.112 C 
ATOM     13  C   UNL     1      33.232 -14.956 -25.335  0.00  0.00    +0.178 C 
ATOM     14  C   UNL     1      34.259 -16.925 -24.849  0.00  0.00    +0.196 C 
ATOM     15  H   UNL     1      32.257 -14.492 -27.126  0.00  0.00    +0.144 HD
ATOM     16  H   UNL     1      32.237 -13.232 -25.977  0.00  0.00    +0.144 HD
ATOM     17  H   UNL     1      35.133 -18.807 -24.629  0.00  0.00    +0.156 HD
ATOM     18  H   UNL     1      34.373 -18.563 -26.137  0.00  0.00    +0.156 HD
BRANCH  12  19
ATOM     19  C   UNL     1      34.692 -14.857 -21.903  0.00  0.00    +0.056 C 
ATOM     20  C   UNL     1      34.673 -16.008 -20.902  0.00  0.00    +0.008 C 
ENDBRANCH  12  19
ENDBRANCH   1  11
BRANCH   2  21
ATOM     21  N   UNL     1      32.109  -9.229 -22.482  0.00  0.00    -0.329 N 
ATOM     22  H   UNL     1      31.163  -9.042 -22.290  0.00  0.00    +0.147 HD
BRANCH  21  23
ATOM     23  C   UNL     1      33.058  -8.168 -22.340  0.00  0.00    +0.114 C 
BRANCH  23  26
ATOM     24  F   UNL     1      35.001  -5.821 -26.136  0.00  0.00    -0.204 F 
ATOM     25  F   UNL     1      30.534  -4.871 -24.882  0.00  0.00    -0.204 F 
ATOM     26  C   UNL     1      32.955  -7.170 -23.462  0.00  0.00    +0.002 C 
ATOM     27  C   UNL     1      31.770  -6.474 -23.652  0.00  0.00    +0.027 C 
ATOM     28  C   UNL     1      34.048  -6.958 -24.291  0.00  0.00    +0.027 C 
ATOM     29  C   UNL     1      33.953  -6.033 -25.331  0.00  0.00    +0.142 C 
ATOM     30  C   UNL     1      31.674  -5.548 -24.691  0.00  0.00    +0.142 C 
ATOM     31  C   UNL     1      32.766  -5.327 -25.530  0.00  0.00    +0.059 C 
ENDBRANCH  23  26
ENDBRANCH  21  23
ENDBRANCH   2  21
TORSDOF 5
ENDMDL
MODEL 7
REMARK VINA RESULT:     -10.7      1.328      2.797
REMARK  Name = 6914633
REMARK  5 active torsions:
REMARK  status: ('A' for Active; 'I' for Inactive)
REMARK    1  A    between atoms: C_1  and  C_11
REMARK    2  A    between atoms: C_2  and  N_21
REMARK    3  A    between atoms: C_12  and  C_19
REMARK    4  A    between atoms: N_21  and  C_23
REMARK    5  A    between atoms: C_23  and  C_26
REMARK                            x       y       z     vdW  Elec       q    Type
REMARK                         _______ _______ _______ _____ _____    ______ ____
ROOT
ATOM      1  C   UNL     1      35.040 -18.247 -21.472  0.00  0.00    -0.008 C 
ATOM      2  C   UNL     1      35.546 -20.608 -20.077  0.00  0.00    +0.045 C 
ATOM      3  C   UNL     1      36.348 -18.585 -21.124  0.00  0.00    -0.002 C 
ATOM      4  C   UNL     1      33.986 -19.089 -21.123  0.00  0.00    -0.002 C 
ATOM      5  C   UNL     1      36.601 -19.765 -20.427  0.00  0.00    +0.014 C 
ATOM      6  C   UNL     1      34.238 -20.270 -20.424  0.00  0.00    +0.014 C 
ENDROOT
BRANCH   1  11
ATOM      7  N   UNL     1      34.497 -15.872 -24.295  0.00  0.00    -0.337 NA
ATOM      8  N   UNL     1      34.307 -14.661 -22.219  0.00  0.00    -0.317 NA
ATOM      9  N   UNL     1      34.580 -15.772 -20.150  0.00  0.00    -0.335 N 
ATOM     10  N   UNL     1      34.038 -13.571 -24.280  0.00  0.00    -0.283 N 
ATOM     11  C   UNL     1      34.778 -17.023 -22.198  0.00  0.00    +0.138 C 
ATOM     12  C   UNL     1      34.737 -16.989 -23.578  0.00  0.00    +0.112 C 
ATOM     13  C   UNL     1      34.554 -15.816 -21.567  0.00  0.00    +0.178 C 
ATOM     14  C   UNL     1      34.293 -14.760 -23.563  0.00  0.00    +0.196 C 
ATOM     15  H   UNL     1      34.422 -14.921 -19.681  0.00  0.00    +0.144 HD
ATOM     16  H   UNL     1      34.756 -16.593 -19.636  0.00  0.00    +0.144 HD
ATOM     17  H   UNL     1      34.016 -13.584 -25.264  0.00  0.00    +0.156 HD
ATOM     18  H   UNL     1      33.882 -12.728 -23.795  0.00  0.00    +0.156 HD
BRANCH  12  19
ATOM     19  C   UNL     1      34.964 -18.227 -24.384  0.00  0.00    +0.056 C 
ATOM     20  C   UNL     1      33.790 -18.537 -25.308  0.00  0.00    +0.008 C 
ENDBRANCH  12  19
ENDBRANCH   1  11
BRANCH   2  21
ATOM     21  N   UNL     1      35.801 -21.802 -19.370  0.00  0.00    -0.329 N 
ATOM     22  H   UNL     1      35.400 -22.639 -19.699  0.00  0.00    +0.147 HD
BRANCH  21  23
ATOM     23  C   UNL     1      36.617 -21.851 -18.196  0.00  0.00    +0.114 C 
BRANCH  23  26
ATOM     24  F   UNL     1      36.431 -23.161 -13.512  0.00  0.00    -0.204 F 
ATOM     25  F   UNL     1      32.592 -23.747 -16.222  0.00  0.00    -0.204 F 
ATOM     26  C   UNL     1      35.872 -22.418 -17.018  0.00  0.00    +0.002 C 
ATOM     27  C   UNL     1      34.555 -22.825 -17.174  0.00  0.00    +0.027 C 
ATOM     28  C   UNL     1      36.513 -22.526 -15.792  0.00  0.00    +0.027 C 
ATOM     29  C   UNL     1      35.823 -23.052 -14.700  0.00  0.00    +0.142 C 
ATOM     30  C   UNL     1      33.864 -23.351 -16.082  0.00  0.00    +0.142 C 
ATOM     31  C   UNL     1      34.498 -23.465 -14.845  0.00  0.00    +0.059 C 
ENDBRANCH  23  26
ENDBRANCH  21  23
ENDBRANCH   2  21
TORSDOF 5
ENDMDL
MODEL 8
REMARK VINA RESULT:     -10.7      4.029      6.663
REMARK  Name = 6914633
REMARK  5 active torsions:
REMARK  status: ('A' for Active; 'I' for Inactive)
REMARK    1  A    between atoms: C_1  and  C_11
REMARK    2  A    between atoms: C_2  and  N_21
REMARK    3  A    between atoms: C_12  and  C_19
REMARK    4  A    between atoms: N_21  and  C_23
REMARK    5  A    between atoms: C_23  and  C_26
REMARK                            x       y       z     vdW  Elec       q    Type
REMARK                         _______ _______ _______ _____ _____    ______ ____
ROOT
ATOM      1  C   UNL     1      33.457 -13.341 -23.283  0.00  0.00    -0.008 C 
ATOM      2  C   UNL     1      34.398 -15.964 -23.381  0.00  0.00    +0.045 C 
ATOM      3  C   UNL     1      33.178 -14.140 -24.392  0.00  0.00    -0.002 C 
ATOM      4  C   UNL     1      34.206 -13.852 -22.224  0.00  0.00    -0.002 C 
ATOM      5  C   UNL     1      33.648 -15.452 -24.440  0.00  0.00    +0.014 C 
ATOM      6  C   UNL     1      34.677 -15.165 -22.273  0.00  0.00    +0.014 C 
ENDROOT
BRANCH   1  11
ATOM      7  N   UNL     1      33.039  -9.715 -24.048  0.00  0.00    -0.337 NA
ATOM      8  N   UNL     1      31.505 -10.315 -22.287  0.00  0.00    -0.317 NA
ATOM      9  N   UNL     1      31.419 -12.533 -21.472  0.00  0.00    -0.335 N 
ATOM     10  N   UNL     1      31.600  -8.118 -23.106  0.00  0.00    -0.283 N 
ATOM     11  C   UNL     1      32.968 -11.980 -23.232  0.00  0.00    +0.138 C 
ATOM     12  C   UNL     1      33.465 -10.995 -24.061  0.00  0.00    +0.112 C 
ATOM     13  C   UNL     1      31.979 -11.576 -22.356  0.00  0.00    +0.178 C 
ATOM     14  C   UNL     1      32.071  -9.448 -23.149  0.00  0.00    +0.196 C 
ATOM     15  H   UNL     1      30.713 -12.265 -20.841  0.00  0.00    +0.144 HD
ATOM     16  H   UNL     1      31.737 -13.464 -21.490  0.00  0.00    +0.144 HD
ATOM     17  H   UNL     1      31.978  -7.442 -23.715  0.00  0.00    +0.156 HD
ATOM     18  H   UNL     1      30.893  -7.867 -22.469  0.00  0.00    +0.156 HD
BRANCH  12  19
ATOM     19  C   UNL     1      34.539 -11.298 -25.056  0.00  0.00    +0.056 C 
ATOM     20  C   UNL     1      35.365 -10.064 -25.408  0.00  0.00    +0.008 C 
ENDBRANCH  12  19
ENDBRANCH   1  11
BRANCH   2  21
ATOM     21  N   UNL     1      34.874 -17.291 -23.430  0.00  0.00    -0.329 N 
ATOM     22  H   UNL     1      34.463 -17.916 -24.069  0.00  0.00    +0.147 HD
BRANCH  21  23
ATOM     23  C   UNL     1      35.931 -17.769 -22.592  0.00  0.00    +0.114 C 
BRANCH  23  26
ATOM     24  F   UNL     1      32.357 -20.339 -20.516  0.00  0.00    -0.204 F 
ATOM     25  F   UNL     1      36.853 -21.340 -19.414  0.00  0.00    -0.204 F 
ATOM     26  C   UNL     1      35.462 -18.856 -21.663  0.00  0.00    +0.002 C 
ATOM     27  C   UNL     1      36.395 -19.605 -20.960  0.00  0.00    +0.027 C 
ATOM     28  C   UNL     1      34.102 -19.094 -21.522  0.00  0.00    +0.027 C 
ATOM     29  C   UNL     1      33.666 -20.101 -20.661  0.00  0.00    +0.142 C 
ATOM     30  C   UNL     1      35.960 -20.612 -20.098  0.00  0.00    +0.142 C 
ATOM     31  C   UNL     1      34.596 -20.859 -19.948  0.00  0.00    +0.059 C 
ENDBRANCH  23  26
ENDBRANCH  21  23
ENDBRANCH   2  21
TORSDOF 5
ENDMDL
MODEL 9
REMARK VINA RESULT:     -10.7      1.236      2.269
REMARK  Name = 6914633
REMARK  5 active torsions:
REMARK  status: ('A' for Active; 'I' for Inactive)
REMARK    1  A    between atoms: C_1  and  C_11
REMARK    2  A    between atoms: C_2  and  N_21
REMARK    3  A    between atoms: C_12  and  C_19
REMARK    4  A    between atoms: N_21  and  C_23
REMARK    5  A    between atoms: C_23  and  C_26
REMARK                            x       y       z     vdW  Elec       q    Type
REMARK                         _______ _______ _______ _____ _____    ______ ____
ROOT
ATOM      1  C   UNL     1      35.022 -18.349 -21.460  0.00  0.00    -0.008 C 
ATOM      2  C   UNL     1      35.539 -20.667 -20.000  0.00  0.00    +0.045 C 
ATOM      3  C   UNL     1      36.336 -18.700 -21.153  0.00  0.00    -0.002 C 
ATOM      4  C   UNL     1      33.967 -19.156 -21.038  0.00  0.00    -0.002 C 
ATOM      5  C   UNL     1      36.595 -19.859 -20.423  0.00  0.00    +0.014 C 
ATOM      6  C   UNL     1      34.225 -20.316 -20.307  0.00  0.00    +0.014 C 
ENDROOT
BRANCH   1  11
ATOM      7  N   UNL     1      34.460 -16.057 -24.348  0.00  0.00    -0.337 NA
ATOM      8  N   UNL     1      34.275 -14.787 -22.307  0.00  0.00    -0.317 NA
ATOM      9  N   UNL     1      34.560 -15.838 -20.208  0.00  0.00    -0.335 N 
ATOM     10  N   UNL     1      33.995 -13.757 -24.396  0.00  0.00    -0.283 N 
ATOM     11  C   UNL     1      34.753 -17.147 -22.220  0.00  0.00    +0.138 C 
ATOM     12  C   UNL     1      34.707 -17.152 -23.600  0.00  0.00    +0.112 C 
ATOM     13  C   UNL     1      34.528 -15.922 -21.623  0.00  0.00    +0.178 C 
ATOM     14  C   UNL     1      34.256 -14.925 -23.647  0.00  0.00    +0.196 C 
ATOM     15  H   UNL     1      34.401 -14.974 -19.763  0.00  0.00    +0.144 HD
ATOM     16  H   UNL     1      34.740 -16.643 -19.671  0.00  0.00    +0.144 HD
ATOM     17  H   UNL     1      33.969 -13.799 -25.380  0.00  0.00    +0.156 HD
ATOM     18  H   UNL     1      33.838 -12.901 -23.936  0.00  0.00    +0.156 HD
BRANCH  12  19
ATOM     19  C   UNL     1      34.934 -18.412 -24.371  0.00  0.00    +0.056 C 
ATOM     20  C   UNL     1      33.798 -18.705 -25.346  0.00  0.00    +0.008 C 
ENDBRANCH  12  19
ENDBRANCH   1  11
BRANCH   2  21
ATOM     21  N   UNL     1      35.801 -21.840 -19.260  0.00  0.00    -0.329 N 
ATOM     22  H   UNL     1      35.369 -22.679 -19.539  0.00  0.00    +0.147 HD
BRANCH  21  23
ATOM     23  C   UNL     1      36.667 -21.864 -18.122  0.00  0.00    +0.114 C 
BRANCH  23  26
ATOM     24  F   UNL     1      32.764 -23.810 -15.963  0.00  0.00    -0.204 F 
ATOM     25  F   UNL     1      36.719 -23.181 -13.436  0.00  0.00    -0.204 F 
ATOM     26  C   UNL     1      35.986 -22.442 -16.911  0.00  0.00    +0.002 C 
ATOM     27  C   UNL     1      36.685 -22.544 -15.717  0.00  0.00    +0.027 C 
ATOM     28  C   UNL     1      34.668 -22.864 -17.005  0.00  0.00    +0.027 C 
ATOM     29  C   UNL     1      34.035 -23.400 -15.883  0.00  0.00    +0.142 C 
ATOM     30  C   UNL     1      36.053 -23.079 -14.594  0.00  0.00    +0.142 C 
ATOM     31  C   UNL     1      34.728 -23.506 -14.677  0.00  0.00    +0.059 C 
ENDBRANCH  23  26
ENDBRANCH  21  23
ENDBRANCH   2  21
TORSDOF 5
ENDMDL
