MODEL 1
REMARK VINA RESULT:      -9.6      0.000      0.000
REMARK  Name = 4888
REMARK  3 active torsions:
REMARK  status: ('A' for Active; 'I' for Inactive)
REMARK    1  A    between atoms: C_5  and  C_15
REMARK    2  A    between atoms: C_15  and  C_18
REMARK    3  A    between atoms: C_18  and  O_19
REMARK                            x       y       z     vdW  Elec       q    Type
REMARK                         _______ _______ _______ _____ _____    ______ ____
ROOT
ATOM      1  O   UNL     1      36.266 -20.952 -19.167  0.00  0.00    -0.437 OA
ATOM      2  N   UNL     1      35.691 -22.410 -17.496  0.00  0.00    -0.210 NA
ATOM      3  C   UNL     1      34.670 -20.115 -20.813  0.00  0.00    +0.017 C 
ATOM      4  C   UNL     1      33.538 -20.896 -20.215  0.00  0.00    +0.060 C 
ATOM      5  C   UNL     1      35.498 -18.576 -22.496  0.00  0.00    -0.012 C 
ATOM      6  C   UNL     1      35.953 -20.186 -20.264  0.00  0.00    +0.143 C 
ATOM      7  C   UNL     1      34.449 -19.304 -21.934  0.00  0.00    -0.005 C 
ATOM      8  C   UNL     1      33.960 -21.702 -19.027  0.00  0.00    +0.036 C 
ATOM      9  C   UNL     1      36.775 -18.651 -21.943  0.00  0.00    -0.001 C 
ATOM     10  C   UNL     1      37.003 -19.456 -20.827  0.00  0.00    +0.037 C 
ATOM     11  C   UNL     1      35.273 -21.694 -18.567  0.00  0.00    +0.226 C 
ATOM     12  C   UNL     1      33.035 -22.493 -18.339  0.00  0.00    +0.002 C 
ATOM     13  C   UNL     1      33.438 -23.238 -17.237  0.00  0.00    +0.021 C 
ATOM     14  C   UNL     1      34.765 -23.162 -16.859  0.00  0.00    +0.102 C 
ENDROOT
BRANCH   5  15
ATOM     15  C   UNL     1      35.252 -17.716 -23.690  0.00  0.00    +0.121 C 
ATOM     16  C   UNL     1      34.380 -18.384 -24.773  0.00  0.00    +0.016 C 
BRANCH  15  18
ATOM     17  O   UNL     1      34.820 -15.768 -22.282  0.00  0.00    -0.250 OA
ATOM     18  C   UNL     1      34.619 -16.367 -23.330  0.00  0.00    +0.317 C 
BRANCH  18  19
ATOM     19  O   UNL     1      33.789 -15.893 -24.296  0.00  0.00    -0.480 OA
ATOM     20  H   UNL     1      33.114 -16.441 -24.644  0.00  0.00    +0.295 HD
ENDBRANCH  18  19
ENDBRANCH  15  18
ENDBRANCH   5  15
TORSDOF 3
ENDMDL
MODEL 2
REMARK VINA RESULT:      -9.5      1.391      2.393
REMARK  Name = 4888
REMARK  3 active torsions:
REMARK  status: ('A' for Active; 'I' for Inactive)
REMARK    1  A    between atoms: C_5  and  C_15
REMARK    2  A    between atoms: C_15  and  C_18
REMARK    3  A    between atoms: C_18  and  O_19
REMARK                            x       y       z     vdW  Elec       q    Type
REMARK                         _______ _______ _______ _____ _____    ______ ____
ROOT
ATOM      1  O   UNL     1      33.998 -21.918 -18.605  0.00  0.00    -0.437 OA
ATOM      2  N   UNL     1      34.386 -23.172 -16.728  0.00  0.00    -0.210 NA
ATOM      3  C   UNL     1      35.744 -20.647 -19.744  0.00  0.00    +0.017 C 
ATOM      4  C   UNL     1      36.794 -21.081 -18.765  0.00  0.00    +0.060 C 
ATOM      5  C   UNL     1      35.108 -19.388 -21.718  0.00  0.00    -0.012 C 
ATOM      6  C   UNL     1      34.423 -21.083 -19.611  0.00  0.00    +0.143 C 
ATOM      7  C   UNL     1      36.081 -19.797 -20.805  0.00  0.00    -0.005 C 
ATOM      8  C   UNL     1      36.252 -21.987 -17.704  0.00  0.00    +0.036 C 
ATOM      9  C   UNL     1      33.793 -19.827 -21.580  0.00  0.00    -0.001 C 
ATOM     10  C   UNL     1      33.450 -20.675 -20.526  0.00  0.00    +0.037 C 
ATOM     11  C   UNL     1      34.911 -22.356 -17.672  0.00  0.00    +0.226 C 
ATOM     12  C   UNL     1      37.089 -22.492 -16.705  0.00  0.00    +0.002 C 
ATOM     13  C   UNL     1      36.576 -23.331 -15.724  0.00  0.00    +0.021 C 
ATOM     14  C   UNL     1      35.229 -23.639 -15.780  0.00  0.00    +0.102 C 
ENDROOT
BRANCH   5  15
ATOM     15  C   UNL     1      35.478 -18.482 -22.844  0.00  0.00    +0.121 C 
ATOM     16  C   UNL     1      34.699 -18.755 -24.147  0.00  0.00    +0.016 C 
BRANCH  15  18
ATOM     17  O   UNL     1      34.930 -16.586 -21.405  0.00  0.00    -0.250 OA
ATOM     18  C   UNL     1      35.317 -17.000 -22.491  0.00  0.00    +0.317 C 
BRANCH  18  19
ATOM     19  O   UNL     1      35.638 -16.169 -23.518  0.00  0.00    -0.480 OA
ATOM     20  H   UNL     1      36.359 -15.578 -23.433  0.00  0.00    +0.295 HD
ENDBRANCH  18  19
ENDBRANCH  15  18
ENDBRANCH   5  15
TORSDOF 3
ENDMDL
MODEL 3
REMARK VINA RESULT:      -9.3      3.750      7.920
REMARK  Name = 4888
REMARK  3 active torsions:
REMARK  status: ('A' for Active; 'I' for Inactive)
REMARK    1  A    between atoms: C_5  and  C_15
REMARK    2  A    between atoms: C_15  and  C_18
REMARK    3  A    between atoms: C_18  and  O_19
REMARK                            x       y       z     vdW  Elec       q    Type
REMARK                         _______ _______ _______ _____ _____    ______ ____
ROOT
ATOM      1  O   UNL     1      33.947 -16.419 -25.972  0.00  0.00    -0.437 OA
ATOM      2  N   UNL     1      33.456 -14.417 -26.974  0.00  0.00    -0.210 NA
ATOM      3  C   UNL     1      34.438 -16.633 -23.591  0.00  0.00    +0.017 C 
ATOM      4  C   UNL     1      34.269 -15.162 -23.353  0.00  0.00    +0.060 C 
ATOM      5  C   UNL     1      34.930 -18.852 -22.742  0.00  0.00    -0.012 C 
ATOM      6  C   UNL     1      34.271 -17.172 -24.869  0.00  0.00    +0.143 C 
ATOM      7  C   UNL     1      34.769 -17.483 -22.527  0.00  0.00    -0.005 C 
ATOM      8  C   UNL     1      33.916 -14.414 -24.601  0.00  0.00    +0.036 C 
ATOM      9  C   UNL     1      34.761 -19.383 -24.019  0.00  0.00    -0.001 C 
ATOM     10  C   UNL     1      34.431 -18.543 -25.083  0.00  0.00    +0.037 C 
ATOM     11  C   UNL     1      33.774 -15.061 -25.825  0.00  0.00    +0.226 C 
ATOM     12  C   UNL     1      33.718 -13.031 -24.570  0.00  0.00    +0.002 C 
ATOM     13  C   UNL     1      33.392 -12.347 -25.734  0.00  0.00    +0.021 C 
ATOM     14  C   UNL     1      33.273 -13.080 -26.900  0.00  0.00    +0.102 C 
ENDROOT
BRANCH   5  15
ATOM     15  C   UNL     1      35.282 -19.748 -21.603  0.00  0.00    +0.121 C 
ATOM     16  C   UNL     1      36.392 -19.190 -20.689  0.00  0.00    +0.016 C 
BRANCH  15  18
ATOM     17  O   UNL     1      32.935 -19.700 -20.931  0.00  0.00    -0.250 OA
ATOM     18  C   UNL     1      34.074 -20.101 -20.729  0.00  0.00    +0.317 C 
BRANCH  18  19
ATOM     19  O   UNL     1      34.391 -20.908 -19.682  0.00  0.00    -0.480 OA
ATOM     20  H   UNL     1      34.180 -20.645 -18.808  0.00  0.00    +0.295 HD
ENDBRANCH  18  19
ENDBRANCH  15  18
ENDBRANCH   5  15
TORSDOF 3
ENDMDL
MODEL 4
REMARK VINA RESULT:      -9.2      4.043      8.848
REMARK  Name = 4888
REMARK  3 active torsions:
REMARK  status: ('A' for Active; 'I' for Inactive)
REMARK    1  A    between atoms: C_5  and  C_15
REMARK    2  A    between atoms: C_15  and  C_18
REMARK    3  A    between atoms: C_18  and  O_19
REMARK                            x       y       z     vdW  Elec       q    Type
REMARK                         _______ _______ _______ _____ _____    ______ ____
ROOT
ATOM      1  O   UNL     1      34.287 -22.969 -17.191  0.00  0.00    -0.437 OA
ATOM      2  N   UNL     1      33.893 -21.895 -19.176  0.00  0.00    -0.210 NA
ATOM      3  C   UNL     1      36.456 -22.943 -16.070  0.00  0.00    +0.017 C 
ATOM      4  C   UNL     1      37.076 -22.096 -17.140  0.00  0.00    +0.060 C 
ATOM      5  C   UNL     1      36.648 -24.150 -13.973  0.00  0.00    -0.012 C 
ATOM      6  C   UNL     1      35.114 -23.328 -16.154  0.00  0.00    +0.143 C 
ATOM      7  C   UNL     1      37.219 -23.360 -14.971  0.00  0.00    -0.005 C 
ATOM      8  C   UNL     1      36.112 -21.748 -18.230  0.00  0.00    +0.036 C 
ATOM      9  C   UNL     1      35.310 -24.528 -14.063  0.00  0.00    -0.001 C 
ATOM     10  C   UNL     1      34.543 -24.118 -15.154  0.00  0.00    +0.037 C 
ATOM     11  C   UNL     1      34.792 -22.189 -18.208  0.00  0.00    +0.226 C 
ATOM     12  C   UNL     1      36.516 -20.962 -19.313  0.00  0.00    +0.002 C 
ATOM     13  C   UNL     1      35.612 -20.645 -20.320  0.00  0.00    +0.021 C 
ATOM     14  C   UNL     1      34.323 -21.132 -20.205  0.00  0.00    +0.102 C 
ENDROOT
BRANCH   5  15
ATOM     15  C   UNL     1      37.470 -24.587 -12.808  0.00  0.00    +0.121 C 
ATOM     16  C   UNL     1      38.900 -25.028 -13.183  0.00  0.00    +0.016 C 
BRANCH  15  18
ATOM     17  O   UNL     1      38.216 -22.483 -11.820  0.00  0.00    -0.250 OA
ATOM     18  C   UNL     1      37.570 -23.518 -11.715  0.00  0.00    +0.317 C 
BRANCH  18  19
ATOM     19  O   UNL     1      36.870 -23.834 -10.594  0.00  0.00    -0.480 OA
ATOM     20  H   UNL     1      36.896 -23.266  -9.850  0.00  0.00    +0.295 HD
ENDBRANCH  18  19
ENDBRANCH  15  18
ENDBRANCH   5  15
TORSDOF 3
ENDMDL
MODEL 5
REMARK VINA RESULT:      -9.2      4.656      7.810
REMARK  Name = 4888
REMARK  3 active torsions:
REMARK  status: ('A' for Active; 'I' for Inactive)
REMARK    1  A    between atoms: C_5  and  C_15
REMARK    2  A    between atoms: C_15  and  C_18
REMARK    3  A    between atoms: C_18  and  O_19
REMARK                            x       y       z     vdW  Elec       q    Type
REMARK                         _______ _______ _______ _____ _____    ______ ____
ROOT
ATOM      1  O   UNL     1      33.010 -13.180 -23.268  0.00  0.00    -0.437 OA
ATOM      2  N   UNL     1      32.073 -11.184 -22.647  0.00  0.00    -0.210 NA
ATOM      3  C   UNL     1      33.283 -15.060 -21.734  0.00  0.00    +0.017 C 
ATOM      4  C   UNL     1      32.669 -14.306 -20.592  0.00  0.00    +0.060 C 
ATOM      5  C   UNL     1      34.301 -17.081 -22.608  0.00  0.00    -0.012 C 
ATOM      6  C   UNL     1      33.418 -14.463 -22.991  0.00  0.00    +0.143 C 
ATOM      7  C   UNL     1      33.728 -16.375 -21.550  0.00  0.00    -0.005 C 
ATOM      8  C   UNL     1      32.253 -12.920 -20.975  0.00  0.00    +0.036 C 
ATOM      9  C   UNL     1      34.432 -16.480 -23.858  0.00  0.00    -0.001 C 
ATOM     10  C   UNL     1      33.990 -15.171 -24.051  0.00  0.00    +0.037 C 
ATOM     11  C   UNL     1      32.437 -12.431 -22.265  0.00  0.00    +0.226 C 
ATOM     12  C   UNL     1      31.660 -12.071 -20.037  0.00  0.00    +0.002 C 
ATOM     13  C   UNL     1      31.277 -10.786 -20.403  0.00  0.00    +0.021 C 
ATOM     14  C   UNL     1      31.503 -10.395 -21.709  0.00  0.00    +0.102 C 
ENDROOT
BRANCH   5  15
ATOM     15  C   UNL     1      34.773 -18.481 -22.401  0.00  0.00    +0.121 C 
ATOM     16  C   UNL     1      34.929 -19.288 -23.706  0.00  0.00    +0.016 C 
BRANCH  15  18
ATOM     17  O   UNL     1      36.186 -18.834 -20.441  0.00  0.00    -0.250 OA
ATOM     18  C   UNL     1      36.095 -18.555 -21.630  0.00  0.00    +0.317 C 
BRANCH  18  19
ATOM     19  O   UNL     1      37.177 -18.267 -22.399  0.00  0.00    -0.480 OA
ATOM     20  H   UNL     1      37.582 -18.940 -22.909  0.00  0.00    +0.295 HD
ENDBRANCH  18  19
ENDBRANCH  15  18
ENDBRANCH   5  15
TORSDOF 3
ENDMDL
MODEL 6
REMARK VINA RESULT:      -9.2      4.237      7.530
REMARK  Name = 4888
REMARK  3 active torsions:
REMARK  status: ('A' for Active; 'I' for Inactive)
REMARK    1  A    between atoms: C_5  and  C_15
REMARK    2  A    between atoms: C_15  and  C_18
REMARK    3  A    between atoms: C_18  and  O_19
REMARK                            x       y       z     vdW  Elec       q    Type
REMARK                         _______ _______ _______ _____ _____    ______ ____
ROOT
ATOM      1  O   UNL     1      33.326 -14.072 -23.313  0.00  0.00    -0.437 OA
ATOM      2  N   UNL     1      32.321 -12.040 -22.984  0.00  0.00    -0.210 NA
ATOM      3  C   UNL     1      33.610 -15.723 -21.537  0.00  0.00    +0.017 C 
ATOM      4  C   UNL     1      32.948 -14.843 -20.519  0.00  0.00    +0.060 C 
ATOM      5  C   UNL     1      34.703 -17.812 -22.112  0.00  0.00    -0.012 C 
ATOM      6  C   UNL     1      33.761 -15.295 -22.859  0.00  0.00    +0.143 C 
ATOM      7  C   UNL     1      34.085 -16.989 -21.169  0.00  0.00    -0.005 C 
ATOM      8  C   UNL     1      32.505 -13.533 -21.093  0.00  0.00    +0.036 C 
ATOM      9  C   UNL     1      34.849 -17.378 -23.428  0.00  0.00    -0.001 C 
ATOM     10  C   UNL     1      34.378 -16.120 -23.802  0.00  0.00    +0.037 C 
ATOM     11  C   UNL     1      32.708 -13.215 -22.431  0.00  0.00    +0.226 C 
ATOM     12  C   UNL     1      31.866 -12.585 -20.288  0.00  0.00    +0.002 C 
ATOM     13  C   UNL     1      31.459 -11.372 -20.830  0.00  0.00    +0.021 C 
ATOM     14  C   UNL     1      31.707 -11.151 -22.172  0.00  0.00    +0.102 C 
ENDROOT
BRANCH   5  15
ATOM     15  C   UNL     1      35.206 -19.157 -21.709  0.00  0.00    +0.121 C 
ATOM     16  C   UNL     1      36.555 -19.123 -20.963  0.00  0.00    +0.016 C 
BRANCH  15  18
ATOM     17  O   UNL     1      33.006 -20.022 -21.096  0.00  0.00    -0.250 OA
ATOM     18  C   UNL     1      34.203 -19.934 -20.850  0.00  0.00    +0.317 C 
BRANCH  18  19
ATOM     19  O   UNL     1      34.772 -20.519 -19.764  0.00  0.00    -0.480 OA
ATOM     20  H   UNL     1      34.442 -21.336 -19.446  0.00  0.00    +0.295 HD
ENDBRANCH  18  19
ENDBRANCH  15  18
ENDBRANCH   5  15
TORSDOF 3
ENDMDL
MODEL 7
REMARK VINA RESULT:      -9.1      5.131      7.623
REMARK  Name = 4888
REMARK  3 active torsions:
REMARK  status: ('A' for Active; 'I' for Inactive)
REMARK    1  A    between atoms: C_5  and  C_15
REMARK    2  A    between atoms: C_15  and  C_18
REMARK    3  A    between atoms: C_18  and  O_19
REMARK                            x       y       z     vdW  Elec       q    Type
REMARK                         _______ _______ _______ _____ _____    ______ ____
ROOT
ATOM      1  O   UNL     1      33.628 -14.936 -23.417  0.00  0.00    -0.437 OA
ATOM      2  N   UNL     1      34.746 -16.908 -23.753  0.00  0.00    -0.210 NA
ATOM      3  C   UNL     1      33.073 -14.080 -21.199  0.00  0.00    +0.017 C 
ATOM      4  C   UNL     1      33.707 -15.253 -20.512  0.00  0.00    +0.060 C 
ATOM      5  C   UNL     1      31.885 -11.968 -21.077  0.00  0.00    -0.012 C 
ATOM      6  C   UNL     1      33.069 -13.988 -22.594  0.00  0.00    +0.143 C 
ATOM      7  C   UNL     1      32.477 -13.061 -20.444  0.00  0.00    -0.005 C 
ATOM      8  C   UNL     1      34.292 -16.237 -21.476  0.00  0.00    +0.036 C 
ATOM      9  C   UNL     1      31.885 -11.883 -22.468  0.00  0.00    -0.001 C 
ATOM     10  C   UNL     1      32.477 -12.893 -23.227  0.00  0.00    +0.037 C 
ATOM     11  C   UNL     1      34.228 -16.039 -22.852  0.00  0.00    +0.226 C 
ATOM     12  C   UNL     1      34.925 -17.394 -21.014  0.00  0.00    +0.002 C 
ATOM     13  C   UNL     1      35.465 -18.301 -21.918  0.00  0.00    +0.021 C 
ATOM     14  C   UNL     1      35.350 -18.014 -23.265  0.00  0.00    +0.102 C 
ENDROOT
BRANCH   5  15
ATOM     15  C   UNL     1      31.253 -10.889 -20.264  0.00  0.00    +0.121 C 
ATOM     16  C   UNL     1      31.297 -11.145 -18.743  0.00  0.00    +0.016 C 
BRANCH  15  18
ATOM     17  O   UNL     1      31.661  -8.854 -21.550  0.00  0.00    -0.250 OA
ATOM     18  C   UNL     1      31.859  -9.508 -20.534  0.00  0.00    +0.317 C 
BRANCH  18  19
ATOM     19  O   UNL     1      32.661  -9.071 -19.528  0.00  0.00    -0.480 OA
ATOM     20  H   UNL     1      33.560  -9.334 -19.498  0.00  0.00    +0.295 HD
ENDBRANCH  18  19
ENDBRANCH  15  18
ENDBRANCH   5  15
TORSDOF 3
ENDMDL
MODEL 8
REMARK VINA RESULT:      -9.1      2.997      7.784
REMARK  Name = 4888
REMARK  3 active torsions:
REMARK  status: ('A' for Active; 'I' for Inactive)
REMARK    1  A    between atoms: C_5  and  C_15
REMARK    2  A    between atoms: C_15  and  C_18
REMARK    3  A    between atoms: C_18  and  O_19
REMARK                            x       y       z     vdW  Elec       q    Type
REMARK                         _______ _______ _______ _____ _____    ______ ____
ROOT
ATOM      1  O   UNL     1      36.640 -20.893 -18.823  0.00  0.00    -0.437 OA
ATOM      2  N   UNL     1      36.125 -19.656 -20.680  0.00  0.00    -0.210 NA
ATOM      3  C   UNL     1      35.021 -22.318 -17.679  0.00  0.00    +0.017 C 
ATOM      4  C   UNL     1      33.925 -21.960 -18.638  0.00  0.00    +0.060 C 
ATOM      5  C   UNL     1      35.786 -23.543 -15.729  0.00  0.00    -0.012 C 
ATOM      6  C   UNL     1      36.300 -21.772 -17.822  0.00  0.00    +0.143 C 
ATOM      7  C   UNL     1      34.771 -23.207 -16.625  0.00  0.00    -0.005 C 
ATOM      8  C   UNL     1      34.376 -21.001 -19.695  0.00  0.00    +0.036 C 
ATOM      9  C   UNL     1      37.059 -22.995 -15.878  0.00  0.00    -0.001 C 
ATOM     10  C   UNL     1      37.316 -22.110 -16.925  0.00  0.00    +0.037 C 
ATOM     11  C   UNL     1      35.682 -20.523 -19.739  0.00  0.00    +0.226 C 
ATOM     12  C   UNL     1      33.487 -20.557 -20.678  0.00  0.00    +0.002 C 
ATOM     13  C   UNL     1      33.916 -19.667 -21.654  0.00  0.00    +0.021 C 
ATOM     14  C   UNL     1      35.234 -19.250 -21.612  0.00  0.00    +0.102 C 
ENDROOT
BRANCH   5  15
ATOM     15  C   UNL     1      35.508 -24.490 -14.610  0.00  0.00    +0.121 C 
ATOM     16  C   UNL     1      34.008 -24.664 -14.297  0.00  0.00    +0.016 C 
BRANCH  15  18
ATOM     17  O   UNL     1      36.092 -26.470 -15.915  0.00  0.00    -0.250 OA
ATOM     18  C   UNL     1      36.113 -25.878 -14.843  0.00  0.00    +0.317 C 
BRANCH  18  19
ATOM     19  O   UNL     1      36.678 -26.408 -13.726  0.00  0.00    -0.480 OA
ATOM     20  H   UNL     1      36.166 -26.943 -13.152  0.00  0.00    +0.295 HD
ENDBRANCH  18  19
ENDBRANCH  15  18
ENDBRANCH   5  15
TORSDOF 3
ENDMDL
MODEL 9
REMARK VINA RESULT:      -9.0      3.870      8.641
REMARK  Name = 4888
REMARK  3 active torsions:
REMARK  status: ('A' for Active; 'I' for Inactive)
REMARK    1  A    between atoms: C_5  and  C_15
REMARK    2  A    between atoms: C_15  and  C_18
REMARK    3  A    between atoms: C_18  and  O_19
REMARK                            x       y       z     vdW  Elec       q    Type
REMARK                         _______ _______ _______ _____ _____    ______ ____
ROOT
ATOM      1  O   UNL     1      36.787 -21.899 -17.563  0.00  0.00    -0.437 OA
ATOM      2  N   UNL     1      36.091 -20.858 -19.481  0.00  0.00    -0.210 NA
ATOM      3  C   UNL     1      35.311 -23.258 -16.172  0.00  0.00    +0.017 C 
ATOM      4  C   UNL     1      34.135 -23.026 -17.074  0.00  0.00    +0.060 C 
ATOM      5  C   UNL     1      36.262 -24.270 -14.183  0.00  0.00    -0.012 C 
ATOM      6  C   UNL     1      36.554 -22.689 -16.462  0.00  0.00    +0.143 C 
ATOM      7  C   UNL     1      35.172 -24.051 -15.026  0.00  0.00    -0.005 C 
ATOM      8  C   UNL     1      34.471 -22.158 -18.245  0.00  0.00    +0.036 C 
ATOM      9  C   UNL     1      37.499 -23.700 -14.479  0.00  0.00    -0.001 C 
ATOM     10  C   UNL     1      37.645 -22.910 -15.619  0.00  0.00    +0.037 C 
ATOM     11  C   UNL     1      35.751 -21.646 -18.433  0.00  0.00    +0.226 C 
ATOM     12  C   UNL     1      33.496 -21.835 -19.194  0.00  0.00    +0.002 C 
ATOM     13  C   UNL     1      33.818 -21.028 -20.278  0.00  0.00    +0.021 C 
ATOM     14  C   UNL     1      35.119 -20.569 -20.375  0.00  0.00    +0.102 C 
ENDROOT
BRANCH   5  15
ATOM     15  C   UNL     1      36.103 -25.116 -12.964  0.00  0.00    +0.121 C 
ATOM     16  C   UNL     1      37.289 -26.067 -12.705  0.00  0.00    +0.016 C 
BRANCH  15  18
ATOM     17  O   UNL     1      36.645 -24.231 -10.754  0.00  0.00    -0.250 OA
ATOM     18  C   UNL     1      35.864 -24.292 -11.695  0.00  0.00    +0.317 C 
BRANCH  18  19
ATOM     19  O   UNL     1      34.678 -23.629 -11.705  0.00  0.00    -0.480 OA
ATOM     20  H   UNL     1      33.874 -24.108 -11.751  0.00  0.00    +0.295 HD
ENDBRANCH  18  19
ENDBRANCH  15  18
ENDBRANCH   5  15
TORSDOF 3
ENDMDL
