MODEL 1
REMARK VINA RESULT:      -8.0      0.000      0.000
REMARK  Name = 67313626
REMARK  7 active torsions:
REMARK  status: ('A' for Active; 'I' for Inactive)
REMARK    1  A    between atoms: C_1  and  C_13
REMARK    2  A    between atoms: C_2  and  C_7
REMARK    3  A    between atoms: C_7  and  N_9
REMARK    4  A    between atoms: C_13  and  O_14
REMARK    5  A    between atoms: C_13  and  C_16
REMARK    6  A    between atoms: C_16  and  N_17
REMARK    7  A    between atoms: N_17  and  C_20
REMARK                            x       y       z     vdW  Elec       q    Type
REMARK                         _______ _______ _______ _____ _____    ______ ____
ROOT
ATOM      1  C   UNL     1      33.947 -21.744 -19.191  0.00  0.00    +0.002 C 
ATOM      2  C   UNL     1      34.278 -19.572 -20.912  0.00  0.00    -0.043 C 
ATOM      3  C   UNL     1      35.225 -21.380 -19.617  0.00  0.00    -0.002 C 
ATOM      4  C   UNL     1      32.835 -21.023 -19.627  0.00  0.00    -0.002 C 
ATOM      5  C   UNL     1      35.391 -20.294 -20.478  0.00  0.00    -0.007 C 
ATOM      6  C   UNL     1      33.001 -19.937 -20.486  0.00  0.00    -0.007 C 
ENDROOT
BRANCH   2   7
ATOM      7  C   UNL     1      34.455 -18.412 -21.832  0.00  0.00    -0.042 C 
ATOM      8  C   UNL     1      35.193 -18.788 -23.129  0.00  0.00    -0.019 C 
BRANCH   7   9
ATOM      9  N   UNL     1      35.178 -17.295 -21.199  0.00  0.00    +0.384 N 
ATOM     10  H   UNL     1      36.141 -17.278 -21.535  0.00  0.00    -0.089 HD
ATOM     11  H   UNL     1      35.175 -17.417 -20.186  0.00  0.00    -0.089 HD
ATOM     12  H   UNL     1      34.720 -16.414 -21.437  0.00  0.00    -0.089 HD
ENDBRANCH   7   9
ENDBRANCH   2   7
BRANCH   1  13
ATOM     13  C   UNL     1      33.768 -22.919 -18.256  0.00  0.00    +0.112 C 
BRANCH  13  14
ATOM     14  O   UNL     1      33.789 -24.115 -19.033  0.00  0.00    -0.382 OA
ATOM     15  H   UNL     1      34.593 -24.136 -19.575  0.00  0.00    +0.211 HD
ENDBRANCH  13  14
BRANCH  13  16
ATOM     16  C   UNL     1      32.455 -22.817 -17.471  0.00  0.00    -0.047 C 
BRANCH  16  17
ATOM     17  N   UNL     1      32.520 -23.602 -16.250  0.00  0.00    +0.388 N 
ATOM     18  H   UNL     1      32.690 -24.579 -16.488  0.00  0.00    -0.084 HD
ATOM     19  H   UNL     1      33.279 -23.245 -15.668  0.00  0.00    -0.084 HD
BRANCH  17  20
ATOM     20  C   UNL     1      31.263 -23.500 -15.502  0.00  0.00    -0.046 C 
ATOM     21  C   UNL     1      31.513 -22.668 -14.240  0.00  0.00    -0.022 C 
ATOM     22  C   UNL     1      30.222 -22.809 -16.389  0.00  0.00    -0.022 C 
ATOM     23  C   UNL     1      30.781 -24.905 -15.121  0.00  0.00    -0.022 C 
ENDBRANCH  17  20
ENDBRANCH  16  17
ENDBRANCH  13  16
ENDBRANCH   1  13
TORSDOF 7
ENDMDL
MODEL 2
REMARK VINA RESULT:      -7.9      3.811      7.153
REMARK  Name = 67313626
REMARK  7 active torsions:
REMARK  status: ('A' for Active; 'I' for Inactive)
REMARK    1  A    between atoms: C_1  and  C_13
REMARK    2  A    between atoms: C_2  and  C_7
REMARK    3  A    between atoms: C_7  and  N_9
REMARK    4  A    between atoms: C_13  and  O_14
REMARK    5  A    between atoms: C_13  and  C_16
REMARK    6  A    between atoms: C_16  and  N_17
REMARK    7  A    between atoms: N_17  and  C_20
REMARK                            x       y       z     vdW  Elec       q    Type
REMARK                         _______ _______ _______ _____ _____    ______ ____
ROOT
ATOM      1  C   UNL     1      35.012 -18.510 -22.158  0.00  0.00    +0.002 C 
ATOM      2  C   UNL     1      35.687 -20.424 -20.243  0.00  0.00    -0.043 C 
ATOM      3  C   UNL     1      36.331 -18.622 -21.719  0.00  0.00    -0.002 C 
ATOM      4  C   UNL     1      34.030 -19.354 -21.639  0.00  0.00    -0.002 C 
ATOM      5  C   UNL     1      36.670 -19.579 -20.761  0.00  0.00    -0.007 C 
ATOM      6  C   UNL     1      34.368 -20.311 -20.682  0.00  0.00    -0.007 C 
ENDROOT
BRANCH   2   7
ATOM      7  C   UNL     1      36.048 -21.446 -19.219  0.00  0.00    -0.042 C 
ATOM      8  C   UNL     1      34.817 -22.158 -18.629  0.00  0.00    -0.019 C 
BRANCH   7   9
ATOM      9  N   UNL     1      36.829 -20.879 -18.105  0.00  0.00    +0.384 N 
ATOM     10  H   UNL     1      36.201 -20.621 -17.345  0.00  0.00    -0.089 HD
ATOM     11  H   UNL     1      37.330 -20.052 -18.428  0.00  0.00    -0.089 HD
ATOM     12  H   UNL     1      37.499 -21.573 -17.771  0.00  0.00    -0.089 HD
ENDBRANCH   7   9
ENDBRANCH   2   7
BRANCH   1  13
ATOM     13  C   UNL     1      34.647 -17.475 -23.199  0.00  0.00    +0.112 C 
BRANCH  13  14
ATOM     14  O   UNL     1      35.470 -17.685 -24.345  0.00  0.00    -0.382 OA
ATOM     15  H   UNL     1      36.153 -16.998 -24.383  0.00  0.00    +0.211 HD
ENDBRANCH  13  14
BRANCH  13  16
ATOM     16  C   UNL     1      34.834 -16.050 -22.664  0.00  0.00    -0.047 C 
BRANCH  16  17
ATOM     17  N   UNL     1      33.560 -15.359 -22.576  0.00  0.00    +0.388 N 
ATOM     18  H   UNL     1      33.621 -14.477 -23.085  0.00  0.00    -0.084 HD
ATOM     19  H   UNL     1      32.835 -15.951 -22.984  0.00  0.00    -0.084 HD
BRANCH  17  20
ATOM     20  C   UNL     1      33.214 -15.086 -21.177  0.00  0.00    -0.046 C 
ATOM     21  C   UNL     1      34.495 -15.149 -20.338  0.00  0.00    -0.022 C 
ATOM     22  C   UNL     1      32.598 -13.686 -21.091  0.00  0.00    -0.022 C 
ATOM     23  C   UNL     1      32.210 -16.134 -20.686  0.00  0.00    -0.022 C 
ENDBRANCH  17  20
ENDBRANCH  16  17
ENDBRANCH  13  16
ENDBRANCH   1  13
TORSDOF 7
ENDMDL
MODEL 3
REMARK VINA RESULT:      -7.6      2.135      2.860
REMARK  Name = 67313626
REMARK  7 active torsions:
REMARK  status: ('A' for Active; 'I' for Inactive)
REMARK    1  A    between atoms: C_1  and  C_13
REMARK    2  A    between atoms: C_2  and  C_7
REMARK    3  A    between atoms: C_7  and  N_9
REMARK    4  A    between atoms: C_13  and  O_14
REMARK    5  A    between atoms: C_13  and  C_16
REMARK    6  A    between atoms: C_16  and  N_17
REMARK    7  A    between atoms: N_17  and  C_20
REMARK                            x       y       z     vdW  Elec       q    Type
REMARK                         _______ _______ _______ _____ _____    ______ ____
ROOT
ATOM      1  C   UNL     1      34.127 -21.699 -19.268  0.00  0.00    +0.002 C 
ATOM      2  C   UNL     1      35.033 -19.685 -20.974  0.00  0.00    -0.043 C 
ATOM      3  C   UNL     1      33.212 -20.865 -19.912  0.00  0.00    -0.002 C 
ATOM      4  C   UNL     1      35.495 -21.525 -19.477  0.00  0.00    -0.002 C 
ATOM      5  C   UNL     1      33.665 -19.858 -20.764  0.00  0.00    -0.007 C 
ATOM      6  C   UNL     1      35.948 -20.518 -20.331  0.00  0.00    -0.007 C 
ENDROOT
BRANCH   2   7
ATOM      7  C   UNL     1      35.518 -18.608 -21.885  0.00  0.00    -0.042 C 
ATOM      8  C   UNL     1      35.103 -17.202 -21.418  0.00  0.00    -0.019 C 
BRANCH   7   9
ATOM      9  N   UNL     1      35.051 -18.789 -23.271  0.00  0.00    +0.384 N 
ATOM     10  H   UNL     1      35.074 -17.894 -23.758  0.00  0.00    -0.089 HD
ATOM     11  H   UNL     1      34.096 -19.147 -23.264  0.00  0.00    -0.089 HD
ATOM     12  H   UNL     1      35.659 -19.453 -23.752  0.00  0.00    -0.089 HD
ENDBRANCH   7   9
ENDBRANCH   2   7
BRANCH   1  13
ATOM     13  C   UNL     1      33.635 -22.792 -18.346  0.00  0.00    +0.112 C 
BRANCH  13  14
ATOM     14  O   UNL     1      32.266 -22.535 -18.040  0.00  0.00    -0.382 OA
ATOM     15  H   UNL     1      32.125 -22.630 -17.085  0.00  0.00    +0.211 HD
ENDBRANCH  13  14
BRANCH  13  16
ATOM     16  C   UNL     1      34.466 -22.857 -17.059  0.00  0.00    -0.047 C 
BRANCH  16  17
ATOM     17  N   UNL     1      34.034 -23.962 -16.220  0.00  0.00    +0.388 N 
ATOM     18  H   UNL     1      33.059 -23.821 -15.956  0.00  0.00    -0.084 HD
ATOM     19  H   UNL     1      34.134 -24.832 -16.744  0.00  0.00    -0.084 HD
BRANCH  17  20
ATOM     20  C   UNL     1      34.856 -24.043 -15.008  0.00  0.00    -0.046 C 
ATOM     21  C   UNL     1      33.927 -24.053 -13.789  0.00  0.00    -0.022 C 
ATOM     22  C   UNL     1      35.671 -25.339 -15.058  0.00  0.00    -0.022 C 
ATOM     23  C   UNL     1      35.794 -22.832 -14.947  0.00  0.00    -0.022 C 
ENDBRANCH  17  20
ENDBRANCH  16  17
ENDBRANCH  13  16
ENDBRANCH   1  13
TORSDOF 7
ENDMDL
MODEL 4
REMARK VINA RESULT:      -7.6      5.199      8.057
REMARK  Name = 67313626
REMARK  7 active torsions:
REMARK  status: ('A' for Active; 'I' for Inactive)
REMARK    1  A    between atoms: C_1  and  C_13
REMARK    2  A    between atoms: C_2  and  C_7
REMARK    3  A    between atoms: C_7  and  N_9
REMARK    4  A    between atoms: C_13  and  O_14
REMARK    5  A    between atoms: C_13  and  C_16
REMARK    6  A    between atoms: C_16  and  N_17
REMARK    7  A    between atoms: N_17  and  C_20
REMARK                            x       y       z     vdW  Elec       q    Type
REMARK                         _______ _______ _______ _____ _____    ______ ____
ROOT
ATOM      1  C   UNL     1      33.965 -14.656 -22.062  0.00  0.00    +0.002 C 
ATOM      2  C   UNL     1      32.213 -12.486 -22.101  0.00  0.00    -0.043 C 
ATOM      3  C   UNL     1      33.136 -14.410 -20.968  0.00  0.00    -0.002 C 
ATOM      4  C   UNL     1      33.919 -13.817 -23.175  0.00  0.00    -0.002 C 
ATOM      5  C   UNL     1      32.259 -13.324 -20.987  0.00  0.00    -0.007 C 
ATOM      6  C   UNL     1      33.042 -12.732 -23.195  0.00  0.00    -0.007 C 
ENDROOT
BRANCH   2   7
ATOM      7  C   UNL     1      31.276 -11.325 -22.122  0.00  0.00    -0.042 C 
ATOM      8  C   UNL     1      31.989  -9.990 -22.401  0.00  0.00    -0.019 C 
BRANCH   7   9
ATOM      9  N   UNL     1      30.519 -11.188 -20.865  0.00  0.00    +0.384 N 
ATOM     10  H   UNL     1      31.136 -11.369 -20.074  0.00  0.00    -0.089 HD
ATOM     11  H   UNL     1      29.750 -11.858 -20.856  0.00  0.00    -0.089 HD
ATOM     12  H   UNL     1      30.145 -10.240 -20.794  0.00  0.00    -0.089 HD
ENDBRANCH   7   9
ENDBRANCH   2   7
BRANCH   1  13
ATOM     13  C   UNL     1      34.913 -15.835 -22.042  0.00  0.00    +0.112 C 
BRANCH  13  14
ATOM     14  O   UNL     1      35.470 -15.982 -23.347  0.00  0.00    -0.382 OA
ATOM     15  H   UNL     1      35.217 -16.844 -23.711  0.00  0.00    +0.211 HD
ENDBRANCH  13  14
BRANCH  13  16
ATOM     16  C   UNL     1      34.197 -17.124 -21.621  0.00  0.00    -0.047 C 
BRANCH  16  17
ATOM     17  N   UNL     1      35.081 -17.978 -20.846  0.00  0.00    +0.388 N 
ATOM     18  H   UNL     1      36.048 -17.716 -21.033  0.00  0.00    -0.084 HD
ATOM     19  H   UNL     1      34.869 -17.857 -19.854  0.00  0.00    -0.084 HD
BRANCH  17  20
ATOM     20  C   UNL     1      34.884 -19.386 -21.202  0.00  0.00    -0.046 C 
ATOM     21  C   UNL     1      34.942 -19.516 -22.728  0.00  0.00    -0.022 C 
ATOM     22  C   UNL     1      36.005 -20.212 -20.562  0.00  0.00    -0.022 C 
ATOM     23  C   UNL     1      33.521 -19.858 -20.684  0.00  0.00    -0.022 C 
ENDBRANCH  17  20
ENDBRANCH  16  17
ENDBRANCH  13  16
ENDBRANCH   1  13
TORSDOF 7
ENDMDL
MODEL 5
REMARK VINA RESULT:      -7.4      1.917      6.752
REMARK  Name = 67313626
REMARK  7 active torsions:
REMARK  status: ('A' for Active; 'I' for Inactive)
REMARK    1  A    between atoms: C_1  and  C_13
REMARK    2  A    between atoms: C_2  and  C_7
REMARK    3  A    between atoms: C_7  and  N_9
REMARK    4  A    between atoms: C_13  and  O_14
REMARK    5  A    between atoms: C_13  and  C_16
REMARK    6  A    between atoms: C_16  and  N_17
REMARK    7  A    between atoms: N_17  and  C_20
REMARK                            x       y       z     vdW  Elec       q    Type
REMARK                         _______ _______ _______ _____ _____    ______ ____
ROOT
ATOM      1  C   UNL     1      35.154 -22.263 -17.960  0.00  0.00    +0.002 C 
ATOM      2  C   UNL     1      33.484 -23.352 -16.008  0.00  0.00    -0.043 C 
ATOM      3  C   UNL     1      35.634 -22.469 -16.667  0.00  0.00    -0.002 C 
ATOM      4  C   UNL     1      33.838 -22.602 -18.277  0.00  0.00    -0.002 C 
ATOM      5  C   UNL     1      34.799 -23.013 -15.690  0.00  0.00    -0.007 C 
ATOM      6  C   UNL     1      33.004 -23.147 -17.302  0.00  0.00    -0.007 C 
ENDROOT
BRANCH   2   7
ATOM      7  C   UNL     1      32.591 -23.935 -14.965  0.00  0.00    -0.042 C 
ATOM      8  C   UNL     1      31.111 -23.951 -15.390  0.00  0.00    -0.019 C 
BRANCH   7   9
ATOM      9  N   UNL     1      32.691 -23.226 -13.677  0.00  0.00    +0.384 N 
ATOM     10  H   UNL     1      33.652 -22.919 -13.531  0.00  0.00    -0.089 HD
ATOM     11  H   UNL     1      32.416 -23.854 -12.921  0.00  0.00    -0.089 HD
ATOM     12  H   UNL     1      32.072 -22.414 -13.686  0.00  0.00    -0.089 HD
ENDBRANCH   7   9
ENDBRANCH   2   7
BRANCH   1  13
ATOM     13  C   UNL     1      36.061 -21.676 -19.019  0.00  0.00    +0.112 C 
BRANCH  13  14
ATOM     14  O   UNL     1      36.827 -20.632 -18.420  0.00  0.00    -0.382 OA
ATOM     15  H   UNL     1      36.235 -19.919 -18.135  0.00  0.00    +0.211 HD
ENDBRANCH  13  14
BRANCH  13  16
ATOM     16  C   UNL     1      35.258 -21.133 -20.207  0.00  0.00    -0.047 C 
BRANCH  16  17
ATOM     17  N   UNL     1      35.656 -19.771 -20.521  0.00  0.00    +0.388 N 
ATOM     18  H   UNL     1      35.826 -19.263 -19.653  0.00  0.00    -0.084 HD
ATOM     19  H   UNL     1      36.506 -19.798 -21.085  0.00  0.00    -0.084 HD
BRANCH  17  20
ATOM     20  C   UNL     1      34.606 -19.088 -21.283  0.00  0.00    -0.046 C 
ATOM     21  C   UNL     1      33.245 -19.632 -20.834  0.00  0.00    -0.022 C 
ATOM     22  C   UNL     1      34.692 -17.586 -20.993  0.00  0.00    -0.022 C 
ATOM     23  C   UNL     1      34.810 -19.348 -22.779  0.00  0.00    -0.022 C 
ENDBRANCH  17  20
ENDBRANCH  16  17
ENDBRANCH  13  16
ENDBRANCH   1  13
TORSDOF 7
ENDMDL
MODEL 6
REMARK VINA RESULT:      -7.4      4.797      7.675
REMARK  Name = 67313626
REMARK  7 active torsions:
REMARK  status: ('A' for Active; 'I' for Inactive)
REMARK    1  A    between atoms: C_1  and  C_13
REMARK    2  A    between atoms: C_2  and  C_7
REMARK    3  A    between atoms: C_7  and  N_9
REMARK    4  A    between atoms: C_13  and  O_14
REMARK    5  A    between atoms: C_13  and  C_16
REMARK    6  A    between atoms: C_16  and  N_17
REMARK    7  A    between atoms: N_17  and  C_20
REMARK                            x       y       z     vdW  Elec       q    Type
REMARK                         _______ _______ _______ _____ _____    ______ ____
ROOT
ATOM      1  C   UNL     1      34.060 -15.225 -22.542  0.00  0.00    +0.002 C 
ATOM      2  C   UNL     1      33.542 -13.601 -24.750  0.00  0.00    -0.043 C 
ATOM      3  C   UNL     1      33.946 -13.844 -22.381  0.00  0.00    -0.002 C 
ATOM      4  C   UNL     1      33.915 -15.793 -23.807  0.00  0.00    -0.002 C 
ATOM      5  C   UNL     1      33.688 -13.031 -23.485  0.00  0.00    -0.007 C 
ATOM      6  C   UNL     1      33.656 -14.981 -24.911  0.00  0.00    -0.007 C 
ENDROOT
BRANCH   2   7
ATOM      7  C   UNL     1      33.265 -12.732 -25.931  0.00  0.00    -0.042 C 
ATOM      8  C   UNL     1      33.433 -13.476 -27.268  0.00  0.00    -0.019 C 
BRANCH   7   9
ATOM      9  N   UNL     1      34.120 -11.532 -25.962  0.00  0.00    +0.384 N 
ATOM     10  H   UNL     1      33.548 -10.712 -26.161  0.00  0.00    -0.089 HD
ATOM     11  H   UNL     1      34.828 -11.637 -26.688  0.00  0.00    -0.089 HD
ATOM     12  H   UNL     1      34.576 -11.415 -25.056  0.00  0.00    -0.089 HD
ENDBRANCH   7   9
ENDBRANCH   2   7
BRANCH   1  13
ATOM     13  C   UNL     1      34.338 -16.106 -21.344  0.00  0.00    +0.112 C 
BRANCH  13  14
ATOM     14  O   UNL     1      34.887 -15.292 -20.309  0.00  0.00    -0.382 OA
ATOM     15  H   UNL     1      35.835 -15.162 -20.468  0.00  0.00    +0.211 HD
ENDBRANCH  13  14
BRANCH  13  16
ATOM     16  C   UNL     1      35.304 -17.243 -21.695  0.00  0.00    -0.047 C 
BRANCH  16  17
ATOM     17  N   UNL     1      35.310 -18.257 -20.654  0.00  0.00    +0.388 N 
ATOM     18  H   UNL     1      36.266 -18.398 -20.329  0.00  0.00    -0.084 HD
ATOM     19  H   UNL     1      34.719 -17.941 -19.884  0.00  0.00    -0.084 HD
BRANCH  17  20
ATOM     20  C   UNL     1      34.781 -19.526 -21.165  0.00  0.00    -0.046 C 
ATOM     21  C   UNL     1      34.884 -19.517 -22.694  0.00  0.00    -0.022 C 
ATOM     22  C   UNL     1      35.620 -20.671 -20.589  0.00  0.00    -0.022 C 
ATOM     23  C   UNL     1      33.317 -19.678 -20.736  0.00  0.00    -0.022 C 
ENDBRANCH  17  20
ENDBRANCH  16  17
ENDBRANCH  13  16
ENDBRANCH   1  13
TORSDOF 7
ENDMDL
MODEL 7
REMARK VINA RESULT:      -7.2      4.412      5.096
REMARK  Name = 67313626
REMARK  7 active torsions:
REMARK  status: ('A' for Active; 'I' for Inactive)
REMARK    1  A    between atoms: C_1  and  C_13
REMARK    2  A    between atoms: C_2  and  C_7
REMARK    3  A    between atoms: C_7  and  N_9
REMARK    4  A    between atoms: C_13  and  O_14
REMARK    5  A    between atoms: C_13  and  C_16
REMARK    6  A    between atoms: C_16  and  N_17
REMARK    7  A    between atoms: N_17  and  C_20
REMARK                            x       y       z     vdW  Elec       q    Type
REMARK                         _______ _______ _______ _____ _____    ______ ____
ROOT
ATOM      1  C   UNL     1      36.334 -22.443 -16.885  0.00  0.00    +0.002 C 
ATOM      2  C   UNL     1      34.817 -21.616 -19.076  0.00  0.00    -0.043 C 
ATOM      3  C   UNL     1      36.911 -21.644 -17.872  0.00  0.00    -0.002 C 
ATOM      4  C   UNL     1      34.998 -22.830 -16.995  0.00  0.00    -0.002 C 
ATOM      5  C   UNL     1      36.153 -21.230 -18.967  0.00  0.00    -0.007 C 
ATOM      6  C   UNL     1      34.239 -22.416 -18.089  0.00  0.00    -0.007 C 
ENDROOT
BRANCH   2   7
ATOM      7  C   UNL     1      34.006 -21.174 -20.247  0.00  0.00    -0.042 C 
ATOM      8  C   UNL     1      34.597 -19.938 -20.947  0.00  0.00    -0.019 C 
BRANCH   7   9
ATOM      9  N   UNL     1      32.609 -20.874 -19.885  0.00  0.00    +0.384 N 
ATOM     10  H   UNL     1      32.170 -20.341 -20.635  0.00  0.00    -0.089 HD
ATOM     11  H   UNL     1      32.590 -20.327 -19.024  0.00  0.00    -0.089 HD
ATOM     12  H   UNL     1      32.098 -21.747 -19.745  0.00  0.00    -0.089 HD
ENDBRANCH   7   9
ENDBRANCH   2   7
BRANCH   1  13
ATOM     13  C   UNL     1      37.156 -22.889 -15.696  0.00  0.00    +0.112 C 
BRANCH  13  14
ATOM     14  O   UNL     1      38.485 -23.149 -16.144  0.00  0.00    -0.382 OA
ATOM     15  H   UNL     1      38.469 -23.850 -16.814  0.00  0.00    +0.211 HD
ENDBRANCH  13  14
BRANCH  13  16
ATOM     16  C   UNL     1      36.562 -24.141 -15.040  0.00  0.00    -0.047 C 
BRANCH  16  17
ATOM     17  N   UNL     1      37.147 -24.366 -13.730  0.00  0.00    +0.388 N 
ATOM     18  H   UNL     1      37.859 -23.657 -13.554  0.00  0.00    -0.084 HD
ATOM     19  H   UNL     1      36.411 -24.307 -13.025  0.00  0.00    -0.084 HD
BRANCH  17  20
ATOM     20  C   UNL     1      37.763 -25.695 -13.659  0.00  0.00    -0.046 C 
ATOM     21  C   UNL     1      39.286 -25.528 -13.671  0.00  0.00    -0.022 C 
ATOM     22  C   UNL     1      37.319 -26.370 -12.357  0.00  0.00    -0.022 C 
ATOM     23  C   UNL     1      37.314 -26.529 -14.864  0.00  0.00    -0.022 C 
ENDBRANCH  17  20
ENDBRANCH  16  17
ENDBRANCH  13  16
ENDBRANCH   1  13
TORSDOF 7
ENDMDL
MODEL 8
REMARK VINA RESULT:      -7.2      4.490      6.956
REMARK  Name = 67313626
REMARK  7 active torsions:
REMARK  status: ('A' for Active; 'I' for Inactive)
REMARK    1  A    between atoms: C_1  and  C_13
REMARK    2  A    between atoms: C_2  and  C_7
REMARK    3  A    between atoms: C_7  and  N_9
REMARK    4  A    between atoms: C_13  and  O_14
REMARK    5  A    between atoms: C_13  and  C_16
REMARK    6  A    between atoms: C_16  and  N_17
REMARK    7  A    between atoms: N_17  and  C_20
REMARK                            x       y       z     vdW  Elec       q    Type
REMARK                         _______ _______ _______ _____ _____    ______ ____
ROOT
ATOM      1  C   UNL     1      33.949 -23.242 -15.589  0.00  0.00    +0.002 C 
ATOM      2  C   UNL     1      31.159 -23.229 -15.650  0.00  0.00    -0.043 C 
ATOM      3  C   UNL     1      33.278 -23.124 -16.807  0.00  0.00    -0.002 C 
ATOM      4  C   UNL     1      33.224 -23.354 -14.402  0.00  0.00    -0.002 C 
ATOM      5  C   UNL     1      31.883 -23.118 -16.838  0.00  0.00    -0.007 C 
ATOM      6  C   UNL     1      31.830 -23.347 -14.433  0.00  0.00    -0.007 C 
ENDROOT
BRANCH   2   7
ATOM      7  C   UNL     1      29.668 -23.222 -15.683  0.00  0.00    -0.042 C 
ATOM      8  C   UNL     1      29.060 -24.599 -15.361  0.00  0.00    -0.019 C 
BRANCH   7   9
ATOM      9  N   UNL     1      29.134 -22.776 -16.982  0.00  0.00    +0.384 N 
ATOM     10  H   UNL     1      29.906 -22.541 -17.605  0.00  0.00    -0.089 HD
ATOM     11  H   UNL     1      28.546 -21.954 -16.844  0.00  0.00    -0.089 HD
ATOM     12  H   UNL     1      28.579 -23.525 -17.397  0.00  0.00    -0.089 HD
ENDBRANCH   7   9
ENDBRANCH   2   7
BRANCH   1  13
ATOM     13  C   UNL     1      35.461 -23.246 -15.556  0.00  0.00    +0.112 C 
BRANCH  13  14
ATOM     14  O   UNL     1      35.937 -22.883 -16.851  0.00  0.00    -0.382 OA
ATOM     15  H   UNL     1      36.296 -23.666 -17.295  0.00  0.00    +0.211 HD
ENDBRANCH  13  14
BRANCH  13  16
ATOM     16  C   UNL     1      36.011 -24.619 -15.153  0.00  0.00    -0.047 C 
BRANCH  16  17
ATOM     17  N   UNL     1      37.455 -24.661 -15.298  0.00  0.00    +0.388 N 
ATOM     18  H   UNL     1      37.691 -25.093 -16.191  0.00  0.00    -0.084 HD
ATOM     19  H   UNL     1      37.818 -23.707 -15.261  0.00  0.00    -0.084 HD
BRANCH  17  20
ATOM     20  C   UNL     1      38.062 -25.438 -14.212  0.00  0.00    -0.046 C 
ATOM     21  C   UNL     1      37.307 -26.765 -14.081  0.00  0.00    -0.022 C 
ATOM     22  C   UNL     1      39.530 -25.701 -14.561  0.00  0.00    -0.022 C 
ATOM     23  C   UNL     1      37.966 -24.646 -12.903  0.00  0.00    -0.022 C 
ENDBRANCH  17  20
ENDBRANCH  16  17
ENDBRANCH  13  16
ENDBRANCH   1  13
TORSDOF 7
ENDMDL
MODEL 9
REMARK VINA RESULT:      -7.1      7.846     11.803
REMARK  Name = 67313626
REMARK  7 active torsions:
REMARK  status: ('A' for Active; 'I' for Inactive)
REMARK    1  A    between atoms: C_1  and  C_13
REMARK    2  A    between atoms: C_2  and  C_7
REMARK    3  A    between atoms: C_7  and  N_9
REMARK    4  A    between atoms: C_13  and  O_14
REMARK    5  A    between atoms: C_13  and  C_16
REMARK    6  A    between atoms: C_16  and  N_17
REMARK    7  A    between atoms: N_17  and  C_20
REMARK                            x       y       z     vdW  Elec       q    Type
REMARK                         _______ _______ _______ _____ _____    ______ ____
ROOT
ATOM      1  C   UNL     1      32.258 -12.633 -21.706  0.00  0.00    +0.002 C 
ATOM      2  C   UNL     1      33.583 -15.044 -22.169  0.00  0.00    -0.043 C 
ATOM      3  C   UNL     1      32.398 -13.561 -20.674  0.00  0.00    -0.002 C 
ATOM      4  C   UNL     1      32.780 -12.910 -22.969  0.00  0.00    -0.002 C 
ATOM      5  C   UNL     1      33.060 -14.767 -20.906  0.00  0.00    -0.007 C 
ATOM      6  C   UNL     1      33.443 -14.115 -23.201  0.00  0.00    -0.007 C 
ENDROOT
BRANCH   2   7
ATOM      7  C   UNL     1      34.291 -16.333 -22.417  0.00  0.00    -0.042 C 
ATOM      8  C   UNL     1      34.941 -16.908 -21.146  0.00  0.00    -0.019 C 
BRANCH   7   9
ATOM      9  N   UNL     1      35.333 -16.215 -23.453  0.00  0.00    +0.384 N 
ATOM     10  H   UNL     1      35.892 -15.380 -23.280  0.00  0.00    -0.089 HD
ATOM     11  H   UNL     1      34.893 -16.145 -24.371  0.00  0.00    -0.089 HD
ATOM     12  H   UNL     1      35.935 -17.038 -23.426  0.00  0.00    -0.089 HD
ENDBRANCH   7   9
ENDBRANCH   2   7
BRANCH   1  13
ATOM     13  C   UNL     1      31.542 -11.324 -21.453  0.00  0.00    +0.112 C 
BRANCH  13  14
ATOM     14  O   UNL     1      30.145 -11.534 -21.650  0.00  0.00    -0.382 OA
ATOM     15  H   UNL     1      29.644 -10.950 -21.060  0.00  0.00    +0.211 HD
ENDBRANCH  13  14
BRANCH  13  16
ATOM     16  C   UNL     1      32.050 -10.217 -22.385  0.00  0.00    -0.047 C 
BRANCH  16  17
ATOM     17  N   UNL     1      32.458  -9.048 -21.626  0.00  0.00    +0.388 N 
ATOM     18  H   UNL     1      31.787  -8.885 -20.875  0.00  0.00    -0.084 HD
ATOM     19  H   UNL     1      33.387  -9.215 -21.238  0.00  0.00    -0.084 HD
BRANCH  17  20
ATOM     20  C   UNL     1      32.512  -7.864 -22.489  0.00  0.00    -0.046 C 
ATOM     21  C   UNL     1      31.530  -8.059 -23.648  0.00  0.00    -0.022 C 
ATOM     22  C   UNL     1      32.111  -6.638 -21.662  0.00  0.00    -0.022 C 
ATOM     23  C   UNL     1      33.937  -7.692 -23.028  0.00  0.00    -0.022 C 
ENDBRANCH  17  20
ENDBRANCH  16  17
ENDBRANCH  13  16
ENDBRANCH   1  13
TORSDOF 7
ENDMDL
