MODEL 1
REMARK VINA RESULT:     -10.7      0.000      0.000
REMARK  Name = 14611919
REMARK  5 active torsions:
REMARK  status: ('A' for Active; 'I' for Inactive)
REMARK    1  A    between atoms: C_3  and  C_11
REMARK    2  A    between atoms: C_5  and  C_19
REMARK    3  A    between atoms: C_7  and  S_24
REMARK    4  A    between atoms: N_18  and  N_21
REMARK    5  A    between atoms: S_24  and  N_27
REMARK                            x       y       z     vdW  Elec       q    Type
REMARK                         _______ _______ _______ _____ _____    ______ ____
ROOT
ATOM      1  N   UNL     1      34.147 -24.882 -13.799  0.00  0.00    -0.350 N 
ATOM      2  C   UNL     1      32.958 -23.686 -15.258  0.00  0.00    +0.018 A 
ATOM      3  C   UNL     1      34.334 -23.614 -15.611  0.00  0.00    +0.022 A 
ATOM      4  C   UNL     1      32.867 -24.487 -14.119  0.00  0.00    +0.057 A 
ATOM      5  C   UNL     1      35.041 -24.359 -14.694  0.00  0.00    +0.112 A 
ATOM      6  C   UNL     1      31.775 -23.146 -15.802  0.00  0.00    +0.021 C 
ATOM      7  C   UNL     1      30.551 -23.426 -15.186  0.00  0.00    +0.122 C 
ATOM      8  C   UNL     1      31.649 -24.776 -13.492  0.00  0.00    +0.018 C 
ATOM      9  C   UNL     1      30.491 -24.229 -14.049  0.00  0.00    +0.021 C 
ATOM     10  H   UNL     1      34.386 -25.457 -13.035  0.00  0.00    +0.166 HD
ENDROOT
BRANCH   3  11
ATOM     11  C   UNL     1      34.955 -22.916 -16.703  0.00  0.00    +0.002 C 
ATOM     12  C   UNL     1      34.296 -22.814 -17.928  0.00  0.00    +0.000 C 
ATOM     13  C   UNL     1      36.213 -22.341 -16.537  0.00  0.00    +0.000 C 
ATOM     14  C   UNL     1      34.898 -22.135 -18.989  0.00  0.00    +0.000 C 
ATOM     15  C   UNL     1      36.816 -21.664 -17.596  0.00  0.00    +0.000 C 
ATOM     16  C   UNL     1      36.159 -21.561 -18.823  0.00  0.00    +0.000 C 
ENDBRANCH   3  11
BRANCH   5  19
ATOM     17  O   UNL     1      37.239 -23.883 -13.951  0.00  0.00    -0.267 OA
ATOM     18  N   UNL     1      36.954 -25.684 -15.351  0.00  0.00    -0.248 N 
ATOM     19  C   UNL     1      36.450 -24.597 -14.614  0.00  0.00    +0.274 C 
ATOM     20  H   UNL     1      36.341 -26.248 -15.874  0.00  0.00    +0.169 HD
BRANCH  18  21
ATOM     21  N   UNL     1      38.309 -25.965 -15.346  0.00  0.00    -0.254 NA
ATOM     22  H   UNL     1      38.833 -25.107 -15.175  0.00  0.00    +0.140 HD
ATOM     23  H   UNL     1      38.579 -26.354 -16.249  0.00  0.00    +0.140 HD
ENDBRANCH  18  21
ENDBRANCH   5  19
BRANCH   7  24
ATOM     24  S   UNL     1      29.079 -22.761 -15.854  0.00  0.00    +0.057 S 
ATOM     25  O   UNL     1      28.565 -21.763 -14.926  0.00  0.00    -0.153 OA
ATOM     26  O   UNL     1      29.324 -22.400 -17.242  0.00  0.00    -0.153 OA
BRANCH  24  27
ATOM     27  N   UNL     1      28.058 -24.129 -15.814  0.00  0.00    -0.203 NA
ATOM     28  H   UNL     1      27.264 -23.945 -15.199  0.00  0.00    +0.144 HD
ATOM     29  H   UNL     1      28.579 -24.934 -15.464  0.00  0.00    +0.144 HD
ENDBRANCH  24  27
ENDBRANCH   7  24
TORSDOF 5
ENDMDL
MODEL 2
REMARK VINA RESULT:     -10.1      3.238      6.619
REMARK  Name = 14611919
REMARK  5 active torsions:
REMARK  status: ('A' for Active; 'I' for Inactive)
REMARK    1  A    between atoms: C_3  and  C_11
REMARK    2  A    between atoms: C_5  and  C_19
REMARK    3  A    between atoms: C_7  and  S_24
REMARK    4  A    between atoms: N_18  and  N_21
REMARK    5  A    between atoms: S_24  and  N_27
REMARK                            x       y       z     vdW  Elec       q    Type
REMARK                         _______ _______ _______ _____ _____    ______ ____
ROOT
ATOM      1  N   UNL     1      34.757 -24.747 -13.011  0.00  0.00    -0.350 N 
ATOM      2  C   UNL     1      36.494 -24.520 -14.393  0.00  0.00    +0.018 A 
ATOM      3  C   UNL     1      35.346 -23.927 -14.988  0.00  0.00    +0.022 A 
ATOM      4  C   UNL     1      36.098 -25.027 -13.154  0.00  0.00    +0.057 A 
ATOM      5  C   UNL     1      34.294 -24.083 -14.115  0.00  0.00    +0.112 A 
ATOM      6  C   UNL     1      37.837 -24.675 -14.790  0.00  0.00    +0.021 C 
ATOM      7  C   UNL     1      38.731 -25.329 -13.935  0.00  0.00    +0.122 C 
ATOM      8  C   UNL     1      36.980 -25.684 -12.288  0.00  0.00    +0.018 C 
ATOM      9  C   UNL     1      38.307 -25.825 -12.704  0.00  0.00    +0.021 C 
ATOM     10  H   UNL     1      34.210 -24.989 -12.229  0.00  0.00    +0.166 HD
ENDROOT
BRANCH   3  11
ATOM     11  C   UNL     1      35.223 -23.268 -16.260  0.00  0.00    +0.002 C 
ATOM     12  C   UNL     1      36.237 -22.423 -16.707  0.00  0.00    +0.000 C 
ATOM     13  C   UNL     1      34.090 -23.476 -17.044  0.00  0.00    +0.000 C 
ATOM     14  C   UNL     1      36.118 -21.783 -17.942  0.00  0.00    +0.000 C 
ATOM     15  C   UNL     1      33.969 -22.837 -18.278  0.00  0.00    +0.000 C 
ATOM     16  C   UNL     1      34.984 -21.990 -18.727  0.00  0.00    +0.000 C 
ENDBRANCH   3  11
BRANCH   5  19
ATOM     17  O   UNL     1      32.576 -22.459 -14.269  0.00  0.00    -0.267 OA
ATOM     18  N   UNL     1      31.959 -24.673 -14.349  0.00  0.00    -0.248 N 
ATOM     19  C   UNL     1      32.933 -23.661 -14.253  0.00  0.00    +0.274 C 
ATOM     20  H   UNL     1      32.232 -25.618 -14.337  0.00  0.00    +0.169 HD
BRANCH  18  21
ATOM     21  N   UNL     1      30.619 -24.346 -14.460  0.00  0.00    -0.254 NA
ATOM     22  H   UNL     1      30.293 -24.569 -15.401  0.00  0.00    +0.140 HD
ATOM     23  H   UNL     1      30.497 -23.350 -14.284  0.00  0.00    +0.140 HD
ENDBRANCH  18  21
ENDBRANCH   5  19
BRANCH   7  24
ATOM     24  S   UNL     1      40.399 -25.525 -14.418  0.00  0.00    +0.057 S 
ATOM     25  O   UNL     1      41.089 -24.260 -14.204  0.00  0.00    -0.153 OA
ATOM     26  O   UNL     1      40.915 -26.743 -13.813  0.00  0.00    -0.153 OA
BRANCH  24  27
ATOM     27  N   UNL     1      40.222 -25.779 -16.098  0.00  0.00    -0.203 NA
ATOM     28  H   UNL     1      39.537 -26.518 -16.261  0.00  0.00    +0.144 HD
ATOM     29  H   UNL     1      41.119 -26.054 -16.498  0.00  0.00    +0.144 HD
ENDBRANCH  24  27
ENDBRANCH   7  24
TORSDOF 5
ENDMDL
MODEL 3
REMARK VINA RESULT:      -9.7      3.246      6.481
REMARK  Name = 14611919
REMARK  5 active torsions:
REMARK  status: ('A' for Active; 'I' for Inactive)
REMARK    1  A    between atoms: C_3  and  C_11
REMARK    2  A    between atoms: C_5  and  C_19
REMARK    3  A    between atoms: C_7  and  S_24
REMARK    4  A    between atoms: N_18  and  N_21
REMARK    5  A    between atoms: S_24  and  N_27
REMARK                            x       y       z     vdW  Elec       q    Type
REMARK                         _______ _______ _______ _____ _____    ______ ____
ROOT
ATOM      1  N   UNL     1      35.141 -22.813 -16.827  0.00  0.00    -0.350 N 
ATOM      2  C   UNL     1      34.622 -23.695 -14.846  0.00  0.00    +0.018 A 
ATOM      3  C   UNL     1      33.426 -23.475 -15.584  0.00  0.00    +0.022 A 
ATOM      4  C   UNL     1      35.683 -23.271 -15.647  0.00  0.00    +0.057 A 
ATOM      5  C   UNL     1      33.778 -22.931 -16.798  0.00  0.00    +0.112 A 
ATOM      6  C   UNL     1      34.905 -24.217 -13.567  0.00  0.00    +0.021 C 
ATOM      7  C   UNL     1      36.235 -24.293 -13.141  0.00  0.00    +0.122 C 
ATOM      8  C   UNL     1      37.019 -23.342 -15.234  0.00  0.00    +0.018 C 
ATOM      9  C   UNL     1      37.274 -23.862 -13.963  0.00  0.00    +0.021 C 
ATOM     10  H   UNL     1      35.659 -22.451 -17.583  0.00  0.00    +0.166 HD
ENDROOT
BRANCH   3  11
ATOM     11  C   UNL     1      32.065 -23.743 -15.206  0.00  0.00    +0.002 C 
ATOM     12  C   UNL     1      31.569 -25.045 -15.264  0.00  0.00    +0.000 C 
ATOM     13  C   UNL     1      31.243 -22.701 -14.781  0.00  0.00    +0.000 C 
ATOM     14  C   UNL     1      30.248 -25.304 -14.897  0.00  0.00    +0.000 C 
ATOM     15  C   UNL     1      29.923 -22.959 -14.415  0.00  0.00    +0.000 C 
ATOM     16  C   UNL     1      29.425 -24.262 -14.472  0.00  0.00    +0.000 C 
ENDBRANCH   3  11
BRANCH   5  19
ATOM     17  O   UNL     1      31.691 -22.642 -17.881  0.00  0.00    -0.267 OA
ATOM     18  N   UNL     1      33.582 -22.013 -19.028  0.00  0.00    -0.248 N 
ATOM     19  C   UNL     1      32.940 -22.532 -17.888  0.00  0.00    +0.274 C 
ATOM     20  H   UNL     1      34.562 -21.924 -19.040  0.00  0.00    +0.169 HD
BRANCH  18  21
ATOM     21  N   UNL     1      32.843 -21.628 -20.133  0.00  0.00    -0.254 NA
ATOM     22  H   UNL     1      31.849 -21.713 -19.922  0.00  0.00    +0.140 HD
ATOM     23  H   UNL     1      33.077 -22.228 -20.923  0.00  0.00    +0.140 HD
ENDBRANCH  18  21
ENDBRANCH   5  19
BRANCH   7  24
ATOM     24  S   UNL     1      36.596 -24.940 -11.558  0.00  0.00    +0.057 S 
ATOM     25  O   UNL     1      37.795 -24.282 -11.057  0.00  0.00    -0.153 OA
ATOM     26  O   UNL     1      35.376 -24.925 -10.764  0.00  0.00    -0.153 OA
BRANCH  24  27
ATOM     27  N   UNL     1      36.978 -26.559 -11.948  0.00  0.00    -0.203 NA
ATOM     28  H   UNL     1      37.136 -26.638 -12.953  0.00  0.00    +0.144 HD
ATOM     29  H   UNL     1      36.204 -27.166 -11.678  0.00  0.00    +0.144 HD
ENDBRANCH  24  27
ENDBRANCH   7  24
TORSDOF 5
ENDMDL
MODEL 4
REMARK VINA RESULT:      -9.3      3.190      4.626
REMARK  Name = 14611919
REMARK  5 active torsions:
REMARK  status: ('A' for Active; 'I' for Inactive)
REMARK    1  A    between atoms: C_3  and  C_11
REMARK    2  A    between atoms: C_5  and  C_19
REMARK    3  A    between atoms: C_7  and  S_24
REMARK    4  A    between atoms: N_18  and  N_21
REMARK    5  A    between atoms: S_24  and  N_27
REMARK                            x       y       z     vdW  Elec       q    Type
REMARK                         _______ _______ _______ _____ _____    ______ ____
ROOT
ATOM      1  N   UNL     1      33.978 -23.876 -13.322  0.00  0.00    -0.350 N 
ATOM      2  C   UNL     1      34.923 -23.836 -15.342  0.00  0.00    +0.018 A 
ATOM      3  C   UNL     1      35.879 -24.290 -14.392  0.00  0.00    +0.022 A 
ATOM      4  C   UNL     1      33.739 -23.584 -14.646  0.00  0.00    +0.057 A 
ATOM      5  C   UNL     1      35.268 -24.302 -13.158  0.00  0.00    +0.112 A 
ATOM      6  C   UNL     1      34.950 -23.616 -16.734  0.00  0.00    +0.021 C 
ATOM      7  C   UNL     1      33.795 -23.153 -17.375  0.00  0.00    +0.122 C 
ATOM      8  C   UNL     1      32.576 -23.121 -15.273  0.00  0.00    +0.018 C 
ATOM      9  C   UNL     1      32.628 -22.910 -16.654  0.00  0.00    +0.021 C 
ATOM     10  H   UNL     1      33.317 -23.790 -12.597  0.00  0.00    +0.166 HD
ENDROOT
BRANCH   3  11
ATOM     11  C   UNL     1      37.247 -24.680 -14.597  0.00  0.00    +0.002 C 
ATOM     12  C   UNL     1      37.634 -26.001 -14.378  0.00  0.00    +0.000 C 
ATOM     13  C   UNL     1      38.184 -23.737 -15.015  0.00  0.00    +0.000 C 
ATOM     14  C   UNL     1      38.962 -26.380 -14.578  0.00  0.00    +0.000 C 
ATOM     15  C   UNL     1      39.511 -24.115 -15.215  0.00  0.00    +0.000 C 
ATOM     16  C   UNL     1      39.901 -25.437 -14.996  0.00  0.00    +0.000 C 
ENDBRANCH   3  11
BRANCH   5  19
ATOM     17  O   UNL     1      36.243 -25.824 -11.625  0.00  0.00    -0.267 OA
ATOM     18  N   UNL     1      35.813 -23.691 -10.881  0.00  0.00    -0.248 N 
ATOM     19  C   UNL     1      35.807 -24.677 -11.886  0.00  0.00    +0.274 C 
ATOM     20  H   UNL     1      35.472 -22.789 -11.078  0.00  0.00    +0.169 HD
BRANCH  18  21
ATOM     21  N   UNL     1      36.294 -23.982  -9.617  0.00  0.00    -0.254 NA
ATOM     22  H   UNL     1      36.766 -23.162  -9.237  0.00  0.00    +0.140 HD
ATOM     23  H   UNL     1      36.953 -24.758  -9.675  0.00  0.00    +0.140 HD
ENDBRANCH  18  21
ENDBRANCH   5  19
BRANCH   7  24
ATOM     24  S   UNL     1      33.819 -22.879 -19.101  0.00  0.00    +0.057 S 
ATOM     25  O   UNL     1      33.911 -24.170 -19.768  0.00  0.00    -0.153 OA
ATOM     26  O   UNL     1      32.738 -21.965 -19.438  0.00  0.00    -0.153 OA
BRANCH  24  27
ATOM     27  N   UNL     1      35.307 -22.059 -19.278  0.00  0.00    -0.203 NA
ATOM     28  H   UNL     1      36.070 -22.736 -19.290  0.00  0.00    +0.144 HD
ATOM     29  H   UNL     1      35.437 -21.415 -18.497  0.00  0.00    +0.144 HD
ENDBRANCH  24  27
ENDBRANCH   7  24
TORSDOF 5
ENDMDL
MODEL 5
REMARK VINA RESULT:      -9.2      3.221      5.495
REMARK  Name = 14611919
REMARK  5 active torsions:
REMARK  status: ('A' for Active; 'I' for Inactive)
REMARK    1  A    between atoms: C_3  and  C_11
REMARK    2  A    between atoms: C_5  and  C_19
REMARK    3  A    between atoms: C_7  and  S_24
REMARK    4  A    between atoms: N_18  and  N_21
REMARK    5  A    between atoms: S_24  and  N_27
REMARK                            x       y       z     vdW  Elec       q    Type
REMARK                         _______ _______ _______ _____ _____    ______ ____
ROOT
ATOM      1  N   UNL     1      36.679 -23.222 -14.104  0.00  0.00    -0.350 N 
ATOM      2  C   UNL     1      35.076 -23.018 -15.643  0.00  0.00    +0.018 A 
ATOM      3  C   UNL     1      34.499 -23.490 -14.431  0.00  0.00    +0.022 A 
ATOM      4  C   UNL     1      36.444 -22.857 -15.412  0.00  0.00    +0.057 A 
ATOM      5  C   UNL     1      35.510 -23.607 -13.504  0.00  0.00    +0.112 A 
ATOM      6  C   UNL     1      34.565 -22.708 -16.919  0.00  0.00    +0.021 C 
ATOM      7  C   UNL     1      35.438 -22.252 -17.913  0.00  0.00    +0.122 C 
ATOM      8  C   UNL     1      37.329 -22.402 -16.396  0.00  0.00    +0.018 C 
ATOM      9  C   UNL     1      36.798 -22.102 -17.653  0.00  0.00    +0.021 C 
ATOM     10  H   UNL     1      37.560 -23.209 -13.665  0.00  0.00    +0.166 HD
ENDROOT
BRANCH   3  11
ATOM     11  C   UNL     1      33.128 -23.811 -14.145  0.00  0.00    +0.002 C 
ATOM     12  C   UNL     1      32.260 -22.818 -13.694  0.00  0.00    +0.000 C 
ATOM     13  C   UNL     1      32.667 -25.115 -14.319  0.00  0.00    +0.000 C 
ATOM     14  C   UNL     1      30.928 -23.129 -13.416  0.00  0.00    +0.000 C 
ATOM     15  C   UNL     1      31.337 -25.427 -14.042  0.00  0.00    +0.000 C 
ATOM     16  C   UNL     1      30.467 -24.434 -13.590  0.00  0.00    +0.000 C 
ENDBRANCH   3  11
BRANCH   5  19
ATOM     17  O   UNL     1      34.592 -24.856 -11.713  0.00  0.00    -0.267 OA
ATOM     18  N   UNL     1      36.382 -23.490 -11.251  0.00  0.00    -0.248 N 
ATOM     19  C   UNL     1      35.443 -24.041 -12.142  0.00  0.00    +0.274 C 
ATOM     20  H   UNL     1      37.054 -22.850 -11.581  0.00  0.00    +0.169 HD
BRANCH  18  21
ATOM     21  N   UNL     1      36.367 -23.841  -9.912  0.00  0.00    -0.254 NA
ATOM     22  H   UNL     1      36.752 -24.780  -9.804  0.00  0.00    +0.140 HD
ATOM     23  H   UNL     1      35.408 -23.824  -9.568  0.00  0.00    +0.140 HD
ENDBRANCH  18  21
ENDBRANCH   5  19
BRANCH   7  24
ATOM     24  S   UNL     1      34.812 -21.865 -19.498  0.00  0.00    +0.057 S 
ATOM     25  O   UNL     1      33.705 -20.933 -19.338  0.00  0.00    -0.153 OA
ATOM     26  O   UNL     1      35.930 -21.521 -20.364  0.00  0.00    -0.153 OA
BRANCH  24  27
ATOM     27  N   UNL     1      34.190 -23.381 -19.980  0.00  0.00    -0.203 NA
ATOM     28  H   UNL     1      33.939 -23.925 -19.154  0.00  0.00    +0.144 HD
ATOM     29  H   UNL     1      34.898 -23.885 -20.515  0.00  0.00    +0.144 HD
ENDBRANCH  24  27
ENDBRANCH   7  24
TORSDOF 5
ENDMDL
MODEL 6
REMARK VINA RESULT:      -9.0      2.366      4.016
REMARK  Name = 14611919
REMARK  5 active torsions:
REMARK  status: ('A' for Active; 'I' for Inactive)
REMARK    1  A    between atoms: C_3  and  C_11
REMARK    2  A    between atoms: C_5  and  C_19
REMARK    3  A    between atoms: C_7  and  S_24
REMARK    4  A    between atoms: N_18  and  N_21
REMARK    5  A    between atoms: S_24  and  N_27
REMARK                            x       y       z     vdW  Elec       q    Type
REMARK                         _______ _______ _______ _____ _____    ______ ____
ROOT
ATOM      1  N   UNL     1      35.150 -22.776 -16.787  0.00  0.00    -0.350 N 
ATOM      2  C   UNL     1      33.939 -23.750 -15.187  0.00  0.00    +0.018 A 
ATOM      3  C   UNL     1      35.306 -23.736 -14.792  0.00  0.00    +0.022 A 
ATOM      4  C   UNL     1      33.868 -23.142 -16.441  0.00  0.00    +0.057 A 
ATOM      5  C   UNL     1      36.026 -23.131 -15.798  0.00  0.00    +0.112 A 
ATOM      6  C   UNL     1      32.750 -24.222 -14.595  0.00  0.00    +0.021 C 
ATOM      7  C   UNL     1      31.540 -24.069 -15.278  0.00  0.00    +0.122 C 
ATOM      8  C   UNL     1      32.664 -22.982 -17.137  0.00  0.00    +0.018 C 
ATOM      9  C   UNL     1      31.499 -23.459 -16.530  0.00  0.00    +0.021 C 
ATOM     10  H   UNL     1      35.400 -22.324 -17.626  0.00  0.00    +0.166 HD
ENDROOT
BRANCH   3  11
ATOM     11  C   UNL     1      35.906 -24.238 -13.587  0.00  0.00    +0.002 C 
ATOM     12  C   UNL     1      36.487 -25.506 -13.575  0.00  0.00    +0.000 C 
ATOM     13  C   UNL     1      35.908 -23.459 -12.432  0.00  0.00    +0.000 C 
ATOM     14  C   UNL     1      37.070 -25.994 -12.405  0.00  0.00    +0.000 C 
ATOM     15  C   UNL     1      36.490 -23.946 -11.262  0.00  0.00    +0.000 C 
ATOM     16  C   UNL     1      37.072 -25.214 -11.249  0.00  0.00    +0.000 C 
ENDBRANCH   3  11
BRANCH   5  19
ATOM     17  O   UNL     1      37.924 -21.747 -16.100  0.00  0.00    -0.267 OA
ATOM     18  N   UNL     1      38.288 -23.986 -15.720  0.00  0.00    -0.248 N 
ATOM     19  C   UNL     1      37.432 -22.879 -15.878  0.00  0.00    +0.274 C 
ATOM     20  H   UNL     1      37.908 -24.877 -15.545  0.00  0.00    +0.169 HD
BRANCH  18  21
ATOM     21  N   UNL     1      39.660 -23.828 -15.808  0.00  0.00    -0.254 NA
ATOM     22  H   UNL     1      40.036 -23.606 -14.886  0.00  0.00    +0.140 HD
ATOM     23  H   UNL     1      39.873 -23.069 -16.455  0.00  0.00    +0.140 HD
ENDBRANCH  18  21
ENDBRANCH   5  19
BRANCH   7  24
ATOM     24  S   UNL     1      30.060 -24.651 -14.551  0.00  0.00    +0.057 S 
ATOM     25  O   UNL     1      28.998 -23.701 -14.852  0.00  0.00    -0.153 OA
ATOM     26  O   UNL     1      29.896 -26.055 -14.898  0.00  0.00    -0.153 OA
BRANCH  24  27
ATOM     27  N   UNL     1      30.449 -24.537 -12.892  0.00  0.00    -0.203 NA
ATOM     28  H   UNL     1      30.127 -23.640 -12.527  0.00  0.00    +0.144 HD
ATOM     29  H   UNL     1      31.459 -24.609 -12.772  0.00  0.00    +0.144 HD
ENDBRANCH  24  27
ENDBRANCH   7  24
TORSDOF 5
ENDMDL
MODEL 7
REMARK VINA RESULT:      -8.8     11.735     13.936
REMARK  Name = 14611919
REMARK  5 active torsions:
REMARK  status: ('A' for Active; 'I' for Inactive)
REMARK    1  A    between atoms: C_3  and  C_11
REMARK    2  A    between atoms: C_5  and  C_19
REMARK    3  A    between atoms: C_7  and  S_24
REMARK    4  A    between atoms: N_18  and  N_21
REMARK    5  A    between atoms: S_24  and  N_27
REMARK                            x       y       z     vdW  Elec       q    Type
REMARK                         _______ _______ _______ _____ _____    ______ ____
ROOT
ATOM      1  N   UNL     1      31.700 -12.201 -21.287  0.00  0.00    -0.350 N 
ATOM      2  C   UNL     1      33.218 -13.363 -22.436  0.00  0.00    +0.018 A 
ATOM      3  C   UNL     1      33.132 -12.050 -22.976  0.00  0.00    +0.022 A 
ATOM      4  C   UNL     1      32.310 -13.432 -21.378  0.00  0.00    +0.057 A 
ATOM      5  C   UNL     1      32.189 -11.359 -22.249  0.00  0.00    +0.112 A 
ATOM      6  C   UNL     1      33.985 -14.504 -22.746  0.00  0.00    +0.021 C 
ATOM      7  C   UNL     1      33.814 -15.668 -21.989  0.00  0.00    +0.122 C 
ATOM      8  C   UNL     1      32.128 -14.589 -20.611  0.00  0.00    +0.018 C 
ATOM      9  C   UNL     1      32.900 -15.708 -20.938  0.00  0.00    +0.021 C 
ATOM     10  H   UNL     1      31.010 -11.961 -20.625  0.00  0.00    +0.166 HD
ENDROOT
BRANCH   3  11
ATOM     11  C   UNL     1      33.857 -11.472 -24.074  0.00  0.00    +0.002 C 
ATOM     12  C   UNL     1      34.556 -10.278 -23.896  0.00  0.00    +0.000 C 
ATOM     13  C   UNL     1      33.862 -12.105 -25.315  0.00  0.00    +0.000 C 
ATOM     14  C   UNL     1      35.260  -9.717 -24.962  0.00  0.00    +0.000 C 
ATOM     15  C   UNL     1      34.564 -11.545 -26.381  0.00  0.00    +0.000 C 
ATOM     16  C   UNL     1      35.264 -10.350 -26.205  0.00  0.00    +0.000 C 
ENDBRANCH   3  11
BRANCH   5  19
ATOM     17  O   UNL     1      30.945  -9.636 -23.296  0.00  0.00    -0.267 OA
ATOM     18  N   UNL     1      32.254  -9.061 -21.494  0.00  0.00    -0.248 N 
ATOM     19  C   UNL     1      31.740 -10.009 -22.400  0.00  0.00    +0.274 C 
ATOM     20  H   UNL     1      32.878  -9.347 -20.789  0.00  0.00    +0.169 HD
BRANCH  18  21
ATOM     21  N   UNL     1      31.888  -7.730 -21.590  0.00  0.00    -0.254 NA
ATOM     22  H   UNL     1      32.227  -7.225 -20.771  0.00  0.00    +0.140 HD
ATOM     23  H   UNL     1      30.872  -7.661 -21.636  0.00  0.00    +0.140 HD
ENDBRANCH  18  21
ENDBRANCH   5  19
BRANCH   7  24
ATOM     24  S   UNL     1      34.761 -17.087 -22.366  0.00  0.00    +0.057 S 
ATOM     25  O   UNL     1      35.561 -17.427 -21.197  0.00  0.00    -0.153 OA
ATOM     26  O   UNL     1      33.882 -18.085 -22.957  0.00  0.00    -0.153 OA
BRANCH  24  27
ATOM     27  N   UNL     1      35.793 -16.475 -23.581  0.00  0.00    -0.203 NA
ATOM     28  H   UNL     1      36.760 -16.509 -23.256  0.00  0.00    +0.144 HD
ATOM     29  H   UNL     1      35.539 -15.510 -23.790  0.00  0.00    +0.144 HD
ENDBRANCH  24  27
ENDBRANCH   7  24
TORSDOF 5
ENDMDL
MODEL 8
REMARK VINA RESULT:      -8.7     15.172     17.186
REMARK  Name = 14611919
REMARK  5 active torsions:
REMARK  status: ('A' for Active; 'I' for Inactive)
REMARK    1  A    between atoms: C_3  and  C_11
REMARK    2  A    between atoms: C_5  and  C_19
REMARK    3  A    between atoms: C_7  and  S_24
REMARK    4  A    between atoms: N_18  and  N_21
REMARK    5  A    between atoms: S_24  and  N_27
REMARK                            x       y       z     vdW  Elec       q    Type
REMARK                         _______ _______ _______ _____ _____    ______ ____
ROOT
ATOM      1  N   UNL     1      31.495  -8.663 -20.995  0.00  0.00    -0.350 N 
ATOM      2  C   UNL     1      32.515  -9.520 -22.784  0.00  0.00    +0.018 A 
ATOM      3  C   UNL     1      32.527  -8.100 -22.878  0.00  0.00    +0.022 A 
ATOM      4  C   UNL     1      31.863  -9.847 -21.594  0.00  0.00    +0.057 A 
ATOM      5  C   UNL     1      31.891  -7.602 -21.764  0.00  0.00    +0.112 A 
ATOM      6  C   UNL     1      33.001 -10.562 -23.599  0.00  0.00    +0.021 C 
ATOM      7  C   UNL     1      32.814 -11.888 -23.194  0.00  0.00    +0.122 C 
ATOM      8  C   UNL     1      31.669 -11.169 -21.176  0.00  0.00    +0.018 C 
ATOM      9  C   UNL     1      32.158 -12.185 -22.001  0.00  0.00    +0.021 C 
ATOM     10  H   UNL     1      31.015  -8.589 -20.138  0.00  0.00    +0.166 HD
ENDROOT
BRANCH   3  11
ATOM     11  C   UNL     1      33.077  -7.265 -23.910  0.00  0.00    +0.002 C 
ATOM     12  C   UNL     1      32.247  -6.401 -24.622  0.00  0.00    +0.000 C 
ATOM     13  C   UNL     1      34.440  -7.319 -24.197  0.00  0.00    +0.000 C 
ATOM     14  C   UNL     1      32.781  -5.589 -25.624  0.00  0.00    +0.000 C 
ATOM     15  C   UNL     1      34.974  -6.509 -25.198  0.00  0.00    +0.000 C 
ATOM     16  C   UNL     1      34.145  -5.644 -25.912  0.00  0.00    +0.000 C 
ENDBRANCH   3  11
BRANCH   5  19
ATOM     17  O   UNL     1      32.326  -5.615 -20.549  0.00  0.00    -0.267 OA
ATOM     18  N   UNL     1      30.554  -5.601 -22.015  0.00  0.00    -0.248 N 
ATOM     19  C   UNL     1      31.644  -6.241 -21.395  0.00  0.00    +0.274 C 
ATOM     20  H   UNL     1      30.015  -6.086 -22.680  0.00  0.00    +0.169 HD
BRANCH  18  21
ATOM     21  N   UNL     1      30.236  -4.293 -21.694  0.00  0.00    -0.254 NA
ATOM     22  H   UNL     1      30.773  -3.658 -22.285  0.00  0.00    +0.140 HD
ATOM     23  H   UNL     1      30.461  -4.119 -20.715  0.00  0.00    +0.140 HD
ENDBRANCH  18  21
ENDBRANCH   5  19
BRANCH   7  24
ATOM     24  S   UNL     1      33.413 -13.188 -24.198  0.00  0.00    +0.057 S 
ATOM     25  O   UNL     1      32.348 -14.166 -24.364  0.00  0.00    -0.153 OA
ATOM     26  O   UNL     1      34.054 -12.608 -25.370  0.00  0.00    -0.153 OA
BRANCH  24  27
ATOM     27  N   UNL     1      34.619 -13.850 -23.185  0.00  0.00    -0.203 NA
ATOM     28  H   UNL     1      34.602 -14.868 -23.257  0.00  0.00    +0.144 HD
ATOM     29  H   UNL     1      34.441 -13.575 -22.219  0.00  0.00    +0.144 HD
ENDBRANCH  24  27
ENDBRANCH   7  24
TORSDOF 5
ENDMDL
MODEL 9
REMARK VINA RESULT:      -8.6     10.664     12.957
REMARK  Name = 14611919
REMARK  5 active torsions:
REMARK  status: ('A' for Active; 'I' for Inactive)
REMARK    1  A    between atoms: C_3  and  C_11
REMARK    2  A    between atoms: C_5  and  C_19
REMARK    3  A    between atoms: C_7  and  S_24
REMARK    4  A    between atoms: N_18  and  N_21
REMARK    5  A    between atoms: S_24  and  N_27
REMARK                            x       y       z     vdW  Elec       q    Type
REMARK                         _______ _______ _______ _____ _____    ______ ____
ROOT
ATOM      1  N   UNL     1      32.860 -13.563 -21.041  0.00  0.00    -0.350 N 
ATOM      2  C   UNL     1      33.811 -14.900 -22.552  0.00  0.00    +0.018 A 
ATOM      3  C   UNL     1      33.270 -13.763 -23.214  0.00  0.00    +0.022 A 
ATOM      4  C   UNL     1      33.541 -14.750 -21.191  0.00  0.00    +0.057 A 
ATOM      5  C   UNL     1      32.690 -12.959 -22.258  0.00  0.00    +0.112 A 
ATOM      6  C   UNL     1      34.510 -16.046 -22.982  0.00  0.00    +0.021 C 
ATOM      7  C   UNL     1      34.909 -16.997 -22.037  0.00  0.00    +0.122 C 
ATOM      8  C   UNL     1      33.934 -15.693 -20.233  0.00  0.00    +0.018 C 
ATOM      9  C   UNL     1      34.624 -16.821 -20.684  0.00  0.00    +0.021 C 
ATOM     10  H   UNL     1      32.540 -13.200 -20.183  0.00  0.00    +0.166 HD
ENDROOT
BRANCH   3  11
ATOM     11  C   UNL     1      33.282 -13.438 -24.614  0.00  0.00    +0.002 C 
ATOM     12  C   UNL     1      33.888 -12.260 -25.050  0.00  0.00    +0.000 C 
ATOM     13  C   UNL     1      32.689 -14.299 -25.534  0.00  0.00    +0.000 C 
ATOM     14  C   UNL     1      33.900 -11.944 -26.409  0.00  0.00    +0.000 C 
ATOM     15  C   UNL     1      32.699 -13.985 -26.892  0.00  0.00    +0.000 C 
ATOM     16  C   UNL     1      33.305 -12.806 -27.330  0.00  0.00    +0.000 C 
ENDBRANCH   3  11
BRANCH   5  19
ATOM     17  O   UNL     1      30.780 -11.558 -22.247  0.00  0.00    -0.267 OA
ATOM     18  N   UNL     1      32.797 -10.606 -22.810  0.00  0.00    -0.248 N 
ATOM     19  C   UNL     1      32.014 -11.708 -22.417  0.00  0.00    +0.274 C 
ATOM     20  H   UNL     1      33.765 -10.717 -22.945  0.00  0.00    +0.169 HD
BRANCH  18  21
ATOM     21  N   UNL     1      32.213  -9.368 -23.008  0.00  0.00    -0.254 NA
ATOM     22  H   UNL     1      32.441  -8.756 -22.224  0.00  0.00    +0.140 HD
ATOM     23  H   UNL     1      31.201  -9.476 -23.072  0.00  0.00    +0.140 HD
ENDBRANCH  18  21
ENDBRANCH   5  19
BRANCH   7  24
ATOM     24  S   UNL     1      35.776 -18.421 -22.560  0.00  0.00    +0.057 S 
ATOM     25  O   UNL     1      35.599 -18.562 -23.999  0.00  0.00    -0.153 OA
ATOM     26  O   UNL     1      37.117 -18.378 -21.997  0.00  0.00    -0.153 OA
BRANCH  24  27
ATOM     27  N   UNL     1      34.888 -19.649 -21.772  0.00  0.00    -0.203 NA
ATOM     28  H   UNL     1      35.252 -19.780 -20.827  0.00  0.00    +0.144 HD
ATOM     29  H   UNL     1      34.976 -20.522 -22.293  0.00  0.00    +0.144 HD
ENDBRANCH  24  27
ENDBRANCH   7  24
TORSDOF 5
ENDMDL
