MODEL 1
REMARK VINA RESULT:     -11.0      0.000      0.000
REMARK  Name = 9822610
REMARK  5 active torsions:
REMARK  status: ('A' for Active; 'I' for Inactive)
REMARK    1  A    between atoms: N_1  and  C_16
REMARK    2  A    between atoms: N_2  and  C_22
REMARK    3  A    between atoms: C_23  and  O_28
REMARK    4  A    between atoms: C_24  and  O_30
REMARK    5  A    between atoms: C_25  and  O_32
REMARK                            x       y       z     vdW  Elec       q    Type
REMARK                         _______ _______ _______ _____ _____    ______ ____
ROOT
ATOM      1  N   UNL     1      33.125 -23.779 -13.422  0.00  0.00    -0.287 N 
ATOM      2  N   UNL     1      31.939 -22.522 -17.822  0.00  0.00    -0.247 N 
ATOM      3  N   UNL     1      32.549 -23.142 -15.643  0.00  0.00    -0.322 NA
ATOM      4  N   UNL     1      30.255 -23.271 -16.371  0.00  0.00    -0.170 NA
ATOM      5  C   UNL     1      32.164 -23.603 -14.427  0.00  0.00    +0.198 C 
ATOM      6  C   UNL     1      31.562 -23.002 -16.549  0.00  0.00    +0.150 C 
ATOM      7  C   UNL     1      30.845 -23.913 -14.127  0.00  0.00    +0.070 C 
ATOM      8  C   UNL     1      29.930 -23.727 -15.143  0.00  0.00    +0.116 C 
ATOM      9  H   UNL     1      32.774 -23.655 -12.511  0.00  0.00    +0.155 HD
ATOM     10  H   UNL     1      31.187 -22.436 -18.451  0.00  0.00    +0.165 HD
ENDROOT
BRANCH   1  16
ATOM     11  N   UNL     1      38.700 -24.723 -12.241  0.00  0.00    -0.280 N 
ATOM     12  N   UNL     1      37.625 -24.308 -11.543  0.00  0.00    -0.173 NA
ATOM     13  C   UNL     1      37.124 -24.744 -13.716  0.00  0.00    +0.032 A 
ATOM     14  C   UNL     1      36.618 -24.309 -12.435  0.00  0.00    +0.103 A 
ATOM     15  C   UNL     1      38.456 -24.999 -13.555  0.00  0.00    +0.053 A 
ATOM     16  C   UNL     1      34.508 -24.101 -13.467  0.00  0.00    +0.052 C 
ATOM     17  C   UNL     1      35.262 -23.969 -12.280  0.00  0.00    +0.036 C 
ATOM     18  C   UNL     1      36.410 -24.884 -14.899  0.00  0.00    +0.004 C 
ATOM     19  C   UNL     1      35.057 -24.538 -14.714  0.00  0.00    +0.015 C 
ATOM     20  C   UNL     1      39.518 -25.462 -14.464  0.00  0.00    +0.051 C 
ATOM     21  H   UNL     1      39.592 -24.819 -11.835  0.00  0.00    +0.189 HD
ENDBRANCH   1  16
BRANCH   2  22
ATOM     22  C   UNL     1      33.179 -22.144 -18.369  0.00  0.00    +0.064 C 
ATOM     23  C   UNL     1      35.642 -21.393 -19.453  0.00  0.00    +0.206 C 
ATOM     24  C   UNL     1      35.597 -22.154 -18.284  0.00  0.00    +0.177 C 
ATOM     25  C   UNL     1      34.456 -21.009 -20.080  0.00  0.00    +0.177 C 
ATOM     26  C   UNL     1      34.367 -22.529 -17.743  0.00  0.00    +0.055 C 
ATOM     27  C   UNL     1      33.227 -21.384 -19.539  0.00  0.00    +0.055 C 
BRANCH  23  28
ATOM     28  O   UNL     1      36.844 -21.027 -19.983  0.00  0.00    -0.465 OA
ATOM     29  C   UNL     1      37.069 -19.633 -20.172  0.00  0.00    +0.253 C 
ENDBRANCH  23  28
BRANCH  24  30
ATOM     30  O   UNL     1      36.747 -22.536 -17.661  0.00  0.00    -0.468 OA
ATOM     31  C   UNL     1      37.143 -21.786 -16.514  0.00  0.00    +0.253 C 
ENDBRANCH  24  30
BRANCH  25  32
ATOM     32  O   UNL     1      34.486 -20.266 -21.222  0.00  0.00    -0.468 OA
ATOM     33  C   UNL     1      33.685 -19.087 -21.249  0.00  0.00    +0.253 C 
ENDBRANCH  25  32
ENDBRANCH   2  22
TORSDOF 5
ENDMDL
MODEL 2
REMARK VINA RESULT:     -11.0      0.029      2.256
REMARK  Name = 9822610
REMARK  5 active torsions:
REMARK  status: ('A' for Active; 'I' for Inactive)
REMARK    1  A    between atoms: N_1  and  C_16
REMARK    2  A    between atoms: N_2  and  C_22
REMARK    3  A    between atoms: C_23  and  O_28
REMARK    4  A    between atoms: C_24  and  O_30
REMARK    5  A    between atoms: C_25  and  O_32
REMARK                            x       y       z     vdW  Elec       q    Type
REMARK                         _______ _______ _______ _____ _____    ______ ____
ROOT
ATOM      1  N   UNL     1      33.132 -23.775 -13.423  0.00  0.00    -0.287 N 
ATOM      2  N   UNL     1      31.946 -22.509 -17.820  0.00  0.00    -0.247 N 
ATOM      3  N   UNL     1      32.556 -23.133 -15.643  0.00  0.00    -0.322 NA
ATOM      4  N   UNL     1      30.259 -23.244 -16.364  0.00  0.00    -0.170 NA
ATOM      5  C   UNL     1      32.171 -23.592 -14.426  0.00  0.00    +0.198 C 
ATOM      6  C   UNL     1      31.568 -22.986 -16.546  0.00  0.00    +0.150 C 
ATOM      7  C   UNL     1      30.850 -23.891 -14.122  0.00  0.00    +0.070 C 
ATOM      8  C   UNL     1      29.934 -23.698 -15.136  0.00  0.00    +0.116 C 
ATOM      9  H   UNL     1      32.785 -23.649 -12.511  0.00  0.00    +0.155 HD
ATOM     10  H   UNL     1      31.192 -22.416 -18.447  0.00  0.00    +0.165 HD
ENDROOT
BRANCH   1  16
ATOM     11  N   UNL     1      38.707 -24.746 -12.261  0.00  0.00    -0.280 N 
ATOM     12  N   UNL     1      37.639 -24.315 -11.562  0.00  0.00    -0.173 NA
ATOM     13  C   UNL     1      37.123 -24.773 -13.726  0.00  0.00    +0.032 A 
ATOM     14  C   UNL     1      36.628 -24.320 -12.448  0.00  0.00    +0.103 A 
ATOM     15  C   UNL     1      38.454 -25.037 -13.570  0.00  0.00    +0.053 A 
ATOM     16  C   UNL     1      34.513 -24.108 -13.472  0.00  0.00    +0.052 C 
ATOM     17  C   UNL     1      35.275 -23.968 -12.291  0.00  0.00    +0.036 C 
ATOM     18  C   UNL     1      36.402 -24.922 -14.904  0.00  0.00    +0.004 C 
ATOM     19  C   UNL     1      35.052 -24.564 -14.716  0.00  0.00    +0.015 C 
ATOM     20  C   UNL     1      39.507 -25.518 -14.479  0.00  0.00    +0.051 C 
ATOM     21  H   UNL     1      39.600 -24.845 -11.858  0.00  0.00    +0.189 HD
ENDBRANCH   1  16
BRANCH   2  22
ATOM     22  C   UNL     1      33.187 -22.140 -18.370  0.00  0.00    +0.064 C 
ATOM     23  C   UNL     1      35.652 -21.410 -19.463  0.00  0.00    +0.206 C 
ATOM     24  C   UNL     1      34.468 -21.030 -20.096  0.00  0.00    +0.177 C 
ATOM     25  C   UNL     1      35.604 -22.154 -18.284  0.00  0.00    +0.177 C 
ATOM     26  C   UNL     1      33.237 -21.394 -19.550  0.00  0.00    +0.055 C 
ATOM     27  C   UNL     1      34.374 -22.519 -17.739  0.00  0.00    +0.055 C 
BRANCH  23  28
ATOM     28  O   UNL     1      36.855 -21.053 -19.997  0.00  0.00    -0.465 OA
ATOM     29  C   UNL     1      37.077 -19.662 -20.215  0.00  0.00    +0.253 C 
ENDBRANCH  23  28
BRANCH  24  30
ATOM     30  O   UNL     1      34.500 -20.303 -21.248  0.00  0.00    -0.468 OA
ATOM     31  C   UNL     1      33.691 -19.129 -21.297  0.00  0.00    +0.253 C 
ENDBRANCH  24  30
BRANCH  25  32
ATOM     32  O   UNL     1      36.753 -22.532 -17.657  0.00  0.00    -0.468 OA
ATOM     33  C   UNL     1      37.147 -21.772 -16.516  0.00  0.00    +0.253 C 
ENDBRANCH  25  32
ENDBRANCH   2  22
TORSDOF 5
ENDMDL
MODEL 3
REMARK VINA RESULT:     -10.7      2.728      6.425
REMARK  Name = 9822610
REMARK  5 active torsions:
REMARK  status: ('A' for Active; 'I' for Inactive)
REMARK    1  A    between atoms: N_1  and  C_16
REMARK    2  A    between atoms: N_2  and  C_22
REMARK    3  A    between atoms: C_23  and  O_28
REMARK    4  A    between atoms: C_24  and  O_30
REMARK    5  A    between atoms: C_25  and  O_32
REMARK                            x       y       z     vdW  Elec       q    Type
REMARK                         _______ _______ _______ _____ _____    ______ ____
ROOT
ATOM      1  N   UNL     1      31.911 -22.830 -17.911  0.00  0.00    -0.287 N 
ATOM      2  N   UNL     1      33.489 -24.394 -13.738  0.00  0.00    -0.247 N 
ATOM      3  N   UNL     1      32.728 -23.616 -15.816  0.00  0.00    -0.322 NA
ATOM      4  N   UNL     1      31.181 -24.088 -14.028  0.00  0.00    -0.170 NA
ATOM      5  C   UNL     1      31.678 -23.257 -16.596  0.00  0.00    +0.198 C 
ATOM      6  C   UNL     1      32.412 -24.014 -14.568  0.00  0.00    +0.150 C 
ATOM      7  C   UNL     1      30.365 -23.292 -16.149  0.00  0.00    +0.070 C 
ATOM      8  C   UNL     1      30.177 -23.718 -14.850  0.00  0.00    +0.116 C 
ATOM      9  H   UNL     1      31.174 -23.030 -18.531  0.00  0.00    +0.155 HD
ATOM     10  H   UNL     1      33.213 -24.677 -12.837  0.00  0.00    +0.165 HD
ENDROOT
BRANCH   1  16
ATOM     11  N   UNL     1      37.133 -21.006 -19.578  0.00  0.00    -0.280 N 
ATOM     12  N   UNL     1      36.666 -21.942 -18.729  0.00  0.00    -0.173 NA
ATOM     13  C   UNL     1      34.991 -20.801 -19.757  0.00  0.00    +0.032 A 
ATOM     14  C   UNL     1      35.327 -21.843 -18.816  0.00  0.00    +0.103 A 
ATOM     15  C   UNL     1      36.169 -20.288 -20.224  0.00  0.00    +0.053 A 
ATOM     16  C   UNL     1      33.009 -22.165 -18.519  0.00  0.00    +0.052 C 
ATOM     17  C   UNL     1      34.314 -22.566 -18.159  0.00  0.00    +0.036 C 
ATOM     18  C   UNL     1      33.721 -20.383 -20.132  0.00  0.00    +0.004 C 
ATOM     19  C   UNL     1      32.729 -21.124 -19.461  0.00  0.00    +0.015 C 
ATOM     20  C   UNL     1      36.501 -19.223 -21.185  0.00  0.00    +0.051 C 
ATOM     21  H   UNL     1      38.094 -20.851 -19.721  0.00  0.00    +0.189 HD
ENDBRANCH   1  16
BRANCH   2  22
ATOM     22  C   UNL     1      34.880 -24.447 -13.946  0.00  0.00    +0.064 C 
ATOM     23  C   UNL     1      37.641 -24.553 -14.357  0.00  0.00    +0.206 C 
ATOM     24  C   UNL     1      36.805 -25.477 -14.986  0.00  0.00    +0.177 C 
ATOM     25  C   UNL     1      37.096 -23.576 -13.524  0.00  0.00    +0.177 C 
ATOM     26  C   UNL     1      35.427 -25.424 -14.781  0.00  0.00    +0.055 C 
ATOM     27  C   UNL     1      35.718 -23.523 -13.318  0.00  0.00    +0.055 C 
BRANCH  23  28
ATOM     28  O   UNL     1      38.988 -24.605 -14.559  0.00  0.00    -0.465 OA
ATOM     29  C   UNL     1      39.729 -25.511 -13.746  0.00  0.00    +0.253 C 
ENDBRANCH  23  28
BRANCH  24  30
ATOM     30  O   UNL     1      37.324 -26.437 -15.803  0.00  0.00    -0.468 OA
ATOM     31  C   UNL     1      36.453 -27.498 -16.190  0.00  0.00    +0.253 C 
ENDBRANCH  24  30
BRANCH  25  32
ATOM     32  O   UNL     1      37.901 -22.668 -12.905  0.00  0.00    -0.468 OA
ATOM     33  C   UNL     1      37.823 -22.598 -11.483  0.00  0.00    +0.253 C 
ENDBRANCH  25  32
ENDBRANCH   2  22
TORSDOF 5
ENDMDL
MODEL 4
REMARK VINA RESULT:     -10.7      2.726      6.329
REMARK  Name = 9822610
REMARK  5 active torsions:
REMARK  status: ('A' for Active; 'I' for Inactive)
REMARK    1  A    between atoms: N_1  and  C_16
REMARK    2  A    between atoms: N_2  and  C_22
REMARK    3  A    between atoms: C_23  and  O_28
REMARK    4  A    between atoms: C_24  and  O_30
REMARK    5  A    between atoms: C_25  and  O_32
REMARK                            x       y       z     vdW  Elec       q    Type
REMARK                         _______ _______ _______ _____ _____    ______ ____
ROOT
ATOM      1  N   UNL     1      31.916 -22.825 -17.912  0.00  0.00    -0.287 N 
ATOM      2  N   UNL     1      33.493 -24.390 -13.739  0.00  0.00    -0.247 N 
ATOM      3  N   UNL     1      32.732 -23.611 -15.817  0.00  0.00    -0.322 NA
ATOM      4  N   UNL     1      31.185 -24.080 -14.029  0.00  0.00    -0.170 NA
ATOM      5  C   UNL     1      31.682 -23.251 -16.597  0.00  0.00    +0.198 C 
ATOM      6  C   UNL     1      32.416 -24.009 -14.569  0.00  0.00    +0.150 C 
ATOM      7  C   UNL     1      30.370 -23.285 -16.150  0.00  0.00    +0.070 C 
ATOM      8  C   UNL     1      30.181 -23.709 -14.850  0.00  0.00    +0.116 C 
ATOM      9  H   UNL     1      31.179 -23.024 -18.532  0.00  0.00    +0.155 HD
ATOM     10  H   UNL     1      33.216 -24.672 -12.837  0.00  0.00    +0.165 HD
ENDROOT
BRANCH   1  16
ATOM     11  N   UNL     1      37.140 -21.009 -19.582  0.00  0.00    -0.280 N 
ATOM     12  N   UNL     1      36.672 -21.946 -18.734  0.00  0.00    -0.173 NA
ATOM     13  C   UNL     1      34.999 -20.801 -19.759  0.00  0.00    +0.032 A 
ATOM     14  C   UNL     1      35.334 -21.844 -18.819  0.00  0.00    +0.103 A 
ATOM     15  C   UNL     1      36.177 -20.290 -20.226  0.00  0.00    +0.053 A 
ATOM     16  C   UNL     1      33.016 -22.161 -18.520  0.00  0.00    +0.052 C 
ATOM     17  C   UNL     1      34.320 -22.566 -18.162  0.00  0.00    +0.036 C 
ATOM     18  C   UNL     1      33.730 -20.380 -20.132  0.00  0.00    +0.004 C 
ATOM     19  C   UNL     1      32.736 -21.119 -19.460  0.00  0.00    +0.015 C 
ATOM     20  C   UNL     1      36.511 -19.224 -21.186  0.00  0.00    +0.051 C 
ATOM     21  H   UNL     1      38.102 -20.857 -19.725  0.00  0.00    +0.189 HD
ENDBRANCH   1  16
BRANCH   2  22
ATOM     22  C   UNL     1      34.883 -24.444 -13.946  0.00  0.00    +0.064 C 
ATOM     23  C   UNL     1      37.644 -24.551 -14.359  0.00  0.00    +0.206 C 
ATOM     24  C   UNL     1      37.101 -23.577 -13.520  0.00  0.00    +0.177 C 
ATOM     25  C   UNL     1      36.807 -25.471 -14.991  0.00  0.00    +0.177 C 
ATOM     26  C   UNL     1      35.722 -23.524 -13.314  0.00  0.00    +0.055 C 
ATOM     27  C   UNL     1      35.429 -25.418 -14.785  0.00  0.00    +0.055 C 
BRANCH  23  28
ATOM     28  O   UNL     1      38.991 -24.603 -14.560  0.00  0.00    -0.465 OA
ATOM     29  C   UNL     1      39.731 -25.513 -13.748  0.00  0.00    +0.253 C 
ENDBRANCH  23  28
BRANCH  24  30
ATOM     30  O   UNL     1      37.906 -22.672 -12.897  0.00  0.00    -0.468 OA
ATOM     31  C   UNL     1      37.825 -22.604 -11.474  0.00  0.00    +0.253 C 
ENDBRANCH  24  30
BRANCH  25  32
ATOM     32  O   UNL     1      37.325 -26.427 -15.812  0.00  0.00    -0.468 OA
ATOM     33  C   UNL     1      36.459 -27.496 -16.187  0.00  0.00    +0.253 C 
ENDBRANCH  25  32
ENDBRANCH   2  22
TORSDOF 5
ENDMDL
MODEL 5
REMARK VINA RESULT:     -10.5      1.849      5.598
REMARK  Name = 9822610
REMARK  5 active torsions:
REMARK  status: ('A' for Active; 'I' for Inactive)
REMARK    1  A    between atoms: N_1  and  C_16
REMARK    2  A    between atoms: N_2  and  C_22
REMARK    3  A    between atoms: C_23  and  O_28
REMARK    4  A    between atoms: C_24  and  O_30
REMARK    5  A    between atoms: C_25  and  O_32
REMARK                            x       y       z     vdW  Elec       q    Type
REMARK                         _______ _______ _______ _____ _____    ______ ____
ROOT
ATOM      1  N   UNL     1      33.896 -24.708 -13.256  0.00  0.00    -0.287 N 
ATOM      2  N   UNL     1      37.034 -22.424 -15.954  0.00  0.00    -0.247 N 
ATOM      3  N   UNL     1      35.461 -23.555 -14.631  0.00  0.00    -0.322 NA
ATOM      4  N   UNL     1      37.689 -23.131 -13.814  0.00  0.00    -0.170 NA
ATOM      5  C   UNL     1      35.175 -24.171 -13.457  0.00  0.00    +0.198 C 
ATOM      6  C   UNL     1      36.713 -23.069 -14.740  0.00  0.00    +0.150 C 
ATOM      7  C   UNL     1      36.100 -24.296 -12.431  0.00  0.00    +0.070 C 
ATOM      8  C   UNL     1      37.347 -23.754 -12.667  0.00  0.00    +0.116 C 
ATOM      9  H   UNL     1      33.882 -25.491 -12.659  0.00  0.00    +0.155 HD
ATOM     10  H   UNL     1      37.958 -22.085 -15.989  0.00  0.00    +0.165 HD
ENDROOT
BRANCH   1  16
ATOM     11  N   UNL     1      28.507 -24.609 -15.336  0.00  0.00    -0.280 N 
ATOM     12  N   UNL     1      29.389 -25.568 -14.991  0.00  0.00    -0.173 NA
ATOM     13  C   UNL     1      30.225 -23.479 -14.678  0.00  0.00    +0.032 A 
ATOM     14  C   UNL     1      30.477 -24.897 -14.574  0.00  0.00    +0.103 A 
ATOM     15  C   UNL     1      28.958 -23.332 -15.169  0.00  0.00    +0.053 A 
ATOM     16  C   UNL     1      32.615 -24.340 -13.749  0.00  0.00    +0.052 C 
ATOM     17  C   UNL     1      31.712 -25.369 -14.094  0.00  0.00    +0.036 C 
ATOM     18  C   UNL     1      31.089 -22.444 -14.348  0.00  0.00    +0.004 C 
ATOM     19  C   UNL     1      32.316 -22.946 -13.871  0.00  0.00    +0.015 C 
ATOM     20  C   UNL     1      28.127 -22.162 -15.498  0.00  0.00    +0.051 C 
ATOM     21  H   UNL     1      27.609 -24.814 -15.682  0.00  0.00    +0.189 HD
ENDBRANCH   1  16
BRANCH   2  22
ATOM     22  C   UNL     1      36.294 -22.170 -17.123  0.00  0.00    +0.064 C 
ATOM     23  C   UNL     1      34.824 -21.669 -19.445  0.00  0.00    +0.206 C 
ATOM     24  C   UNL     1      34.212 -22.278 -18.349  0.00  0.00    +0.177 C 
ATOM     25  C   UNL     1      36.171 -21.309 -19.379  0.00  0.00    +0.177 C 
ATOM     26  C   UNL     1      34.945 -22.529 -17.190  0.00  0.00    +0.055 C 
ATOM     27  C   UNL     1      36.904 -21.560 -18.220  0.00  0.00    +0.055 C 
BRANCH  23  28
ATOM     28  O   UNL     1      34.107 -21.423 -20.577  0.00  0.00    -0.465 OA
ATOM     29  C   UNL     1      33.282 -20.260 -20.581  0.00  0.00    +0.253 C 
ENDBRANCH  23  28
BRANCH  24  30
ATOM     30  O   UNL     1      32.898 -22.635 -18.399  0.00  0.00    -0.468 OA
ATOM     31  C   UNL     1      32.419 -23.494 -17.366  0.00  0.00    +0.253 C 
ENDBRANCH  24  30
BRANCH  25  32
ATOM     32  O   UNL     1      36.781 -20.713 -20.442  0.00  0.00    -0.468 OA
ATOM     33  C   UNL     1      36.782 -19.287 -20.472  0.00  0.00    +0.253 C 
ENDBRANCH  25  32
ENDBRANCH   2  22
TORSDOF 5
ENDMDL
MODEL 6
REMARK VINA RESULT:     -10.5      1.850      5.691
REMARK  Name = 9822610
REMARK  5 active torsions:
REMARK  status: ('A' for Active; 'I' for Inactive)
REMARK    1  A    between atoms: N_1  and  C_16
REMARK    2  A    between atoms: N_2  and  C_22
REMARK    3  A    between atoms: C_23  and  O_28
REMARK    4  A    between atoms: C_24  and  O_30
REMARK    5  A    between atoms: C_25  and  O_32
REMARK                            x       y       z     vdW  Elec       q    Type
REMARK                         _______ _______ _______ _____ _____    ______ ____
ROOT
ATOM      1  N   UNL     1      33.880 -24.705 -13.241  0.00  0.00    -0.287 N 
ATOM      2  N   UNL     1      37.024 -22.435 -15.945  0.00  0.00    -0.247 N 
ATOM      3  N   UNL     1      35.448 -23.559 -14.619  0.00  0.00    -0.322 NA
ATOM      4  N   UNL     1      37.676 -23.136 -13.803  0.00  0.00    -0.170 NA
ATOM      5  C   UNL     1      35.160 -24.170 -13.443  0.00  0.00    +0.198 C 
ATOM      6  C   UNL     1      36.701 -23.075 -14.729  0.00  0.00    +0.150 C 
ATOM      7  C   UNL     1      36.085 -24.293 -12.416  0.00  0.00    +0.070 C 
ATOM      8  C   UNL     1      37.332 -23.754 -12.653  0.00  0.00    +0.116 C 
ATOM      9  H   UNL     1      33.865 -25.485 -12.642  0.00  0.00    +0.155 HD
ATOM     10  H   UNL     1      37.948 -22.098 -15.981  0.00  0.00    +0.165 HD
ENDROOT
BRANCH   1  16
ATOM     11  N   UNL     1      28.495 -24.605 -15.331  0.00  0.00    -0.280 N 
ATOM     12  N   UNL     1      29.376 -25.564 -14.985  0.00  0.00    -0.173 NA
ATOM     13  C   UNL     1      30.212 -23.475 -14.669  0.00  0.00    +0.032 A 
ATOM     14  C   UNL     1      30.464 -24.893 -14.565  0.00  0.00    +0.103 A 
ATOM     15  C   UNL     1      28.946 -23.328 -15.162  0.00  0.00    +0.053 A 
ATOM     16  C   UNL     1      32.601 -24.336 -13.737  0.00  0.00    +0.052 C 
ATOM     17  C   UNL     1      31.698 -25.365 -14.083  0.00  0.00    +0.036 C 
ATOM     18  C   UNL     1      31.076 -22.440 -14.338  0.00  0.00    +0.004 C 
ATOM     19  C   UNL     1      32.302 -22.942 -13.858  0.00  0.00    +0.015 C 
ATOM     20  C   UNL     1      28.115 -22.158 -15.492  0.00  0.00    +0.051 C 
ATOM     21  H   UNL     1      27.597 -24.809 -15.678  0.00  0.00    +0.189 HD
ENDBRANCH   1  16
BRANCH   2  22
ATOM     22  C   UNL     1      36.285 -22.185 -17.116  0.00  0.00    +0.064 C 
ATOM     23  C   UNL     1      34.819 -21.685 -19.440  0.00  0.00    +0.206 C 
ATOM     24  C   UNL     1      36.165 -21.325 -19.374  0.00  0.00    +0.177 C 
ATOM     25  C   UNL     1      34.206 -22.295 -18.345  0.00  0.00    +0.177 C 
ATOM     26  C   UNL     1      36.898 -21.575 -18.213  0.00  0.00    +0.055 C 
ATOM     27  C   UNL     1      34.938 -22.544 -17.185  0.00  0.00    +0.055 C 
BRANCH  23  28
ATOM     28  O   UNL     1      34.103 -21.442 -20.575  0.00  0.00    -0.465 OA
ATOM     29  C   UNL     1      33.277 -20.281 -20.582  0.00  0.00    +0.253 C 
ENDBRANCH  23  28
BRANCH  24  30
ATOM     30  O   UNL     1      36.776 -20.729 -20.435  0.00  0.00    -0.468 OA
ATOM     31  C   UNL     1      36.774 -19.302 -20.467  0.00  0.00    +0.253 C 
ENDBRANCH  24  30
BRANCH  25  32
ATOM     32  O   UNL     1      32.892 -22.652 -18.397  0.00  0.00    -0.468 OA
ATOM     33  C   UNL     1      32.404 -23.481 -17.345  0.00  0.00    +0.253 C 
ENDBRANCH  25  32
ENDBRANCH   2  22
TORSDOF 5
ENDMDL
MODEL 7
REMARK VINA RESULT:     -10.3      2.177      6.540
REMARK  Name = 9822610
REMARK  5 active torsions:
REMARK  status: ('A' for Active; 'I' for Inactive)
REMARK    1  A    between atoms: N_1  and  C_16
REMARK    2  A    between atoms: N_2  and  C_22
REMARK    3  A    between atoms: C_23  and  O_28
REMARK    4  A    between atoms: C_24  and  O_30
REMARK    5  A    between atoms: C_25  and  O_32
REMARK                            x       y       z     vdW  Elec       q    Type
REMARK                         _______ _______ _______ _____ _____    ______ ____
ROOT
ATOM      1  N   UNL     1      31.988 -22.528 -18.240  0.00  0.00    -0.287 N 
ATOM      2  N   UNL     1      33.794 -23.954 -14.111  0.00  0.00    -0.247 N 
ATOM      3  N   UNL     1      32.919 -23.244 -16.168  0.00  0.00    -0.322 NA
ATOM      4  N   UNL     1      31.467 -23.728 -14.306  0.00  0.00    -0.170 NA
ATOM      5  C   UNL     1      31.825 -22.935 -16.908  0.00  0.00    +0.198 C 
ATOM      6  C   UNL     1      32.671 -23.626 -14.900  0.00  0.00    +0.150 C 
ATOM      7  C   UNL     1      30.535 -23.003 -16.403  0.00  0.00    +0.070 C 
ATOM      8  C   UNL     1      30.417 -23.407 -15.089  0.00  0.00    +0.116 C 
ATOM      9  H   UNL     1      31.232 -22.764 -18.823  0.00  0.00    +0.155 HD
ATOM     10  H   UNL     1      33.566 -24.227 -13.193  0.00  0.00    +0.165 HD
ENDROOT
BRANCH   1  16
ATOM     11  N   UNL     1      37.054 -20.729 -20.355  0.00  0.00    -0.280 N 
ATOM     12  N   UNL     1      36.646 -21.738 -19.561  0.00  0.00    -0.173 NA
ATOM     13  C   UNL     1      34.921 -20.423 -20.234  0.00  0.00    +0.032 A 
ATOM     14  C   UNL     1      35.314 -21.578 -19.463  0.00  0.00    +0.103 A 
ATOM     15  C   UNL     1      36.057 -19.906 -20.790  0.00  0.00    +0.053 A 
ATOM     16  C   UNL     1      33.037 -21.840 -18.908  0.00  0.00    +0.052 C 
ATOM     17  C   UNL     1      34.353 -22.332 -18.765  0.00  0.00    +0.036 C 
ATOM     18  C   UNL     1      33.638 -19.915 -20.395  0.00  0.00    +0.004 C 
ATOM     19  C   UNL     1      32.698 -20.689 -19.686  0.00  0.00    +0.015 C 
ATOM     20  C   UNL     1      36.325 -18.751 -21.664  0.00  0.00    +0.051 C 
ATOM     21  H   UNL     1      37.998 -20.598 -20.603  0.00  0.00    +0.189 HD
ENDBRANCH   1  16
BRANCH   2  22
ATOM     22  C   UNL     1      35.176 -23.967 -14.377  0.00  0.00    +0.064 C 
ATOM     23  C   UNL     1      37.918 -23.993 -14.909  0.00  0.00    +0.206 C 
ATOM     24  C   UNL     1      37.060 -23.234 -15.706  0.00  0.00    +0.177 C 
ATOM     25  C   UNL     1      37.406 -24.738 -13.847  0.00  0.00    +0.177 C 
ATOM     26  C   UNL     1      35.691 -23.221 -15.440  0.00  0.00    +0.055 C 
ATOM     27  C   UNL     1      36.037 -24.725 -13.582  0.00  0.00    +0.055 C 
BRANCH  23  28
ATOM     28  O   UNL     1      39.256 -24.004 -15.168  0.00  0.00    -0.465 OA
ATOM     29  C   UNL     1      39.869 -25.279 -15.351  0.00  0.00    +0.253 C 
ENDBRANCH  23  28
BRANCH  24  30
ATOM     30  O   UNL     1      37.547 -22.501 -16.747  0.00  0.00    -0.468 OA
ATOM     31  C   UNL     1      37.508 -21.082 -16.614  0.00  0.00    +0.253 C 
ENDBRANCH  24  30
BRANCH  25  32
ATOM     32  O   UNL     1      38.233 -25.483 -13.061  0.00  0.00    -0.468 OA
ATOM     33  C   UNL     1      37.623 -26.254 -12.029  0.00  0.00    +0.253 C 
ENDBRANCH  25  32
ENDBRANCH   2  22
TORSDOF 5
ENDMDL
MODEL 8
REMARK VINA RESULT:     -10.2      2.155      6.146
REMARK  Name = 9822610
REMARK  5 active torsions:
REMARK  status: ('A' for Active; 'I' for Inactive)
REMARK    1  A    between atoms: N_1  and  C_16
REMARK    2  A    between atoms: N_2  and  C_22
REMARK    3  A    between atoms: C_23  and  O_28
REMARK    4  A    between atoms: C_24  and  O_30
REMARK    5  A    between atoms: C_25  and  O_32
REMARK                            x       y       z     vdW  Elec       q    Type
REMARK                         _______ _______ _______ _____ _____    ______ ____
ROOT
ATOM      1  N   UNL     1      31.782 -22.537 -18.113  0.00  0.00    -0.287 N 
ATOM      2  N   UNL     1      33.380 -23.702 -13.819  0.00  0.00    -0.247 N 
ATOM      3  N   UNL     1      32.609 -23.123 -15.957  0.00  0.00    -0.322 NA
ATOM      4  N   UNL     1      31.068 -23.454 -14.133  0.00  0.00    -0.170 NA
ATOM      5  C   UNL     1      31.554 -22.848 -16.765  0.00  0.00    +0.198 C 
ATOM      6  C   UNL     1      32.298 -23.412 -14.679  0.00  0.00    +0.150 C 
ATOM      7  C   UNL     1      30.242 -22.862 -16.315  0.00  0.00    +0.070 C 
ATOM      8  C   UNL     1      30.059 -23.172 -14.983  0.00  0.00    +0.116 C 
ATOM      9  H   UNL     1      31.048 -22.801 -18.712  0.00  0.00    +0.155 HD
ATOM     10  H   UNL     1      33.107 -23.908 -12.896  0.00  0.00    +0.165 HD
ENDROOT
BRANCH   1  16
ATOM     11  N   UNL     1      36.955 -21.030 -20.198  0.00  0.00    -0.280 N 
ATOM     12  N   UNL     1      36.487 -22.006 -19.395  0.00  0.00    -0.173 NA
ATOM     13  C   UNL     1      34.839 -20.612 -20.103  0.00  0.00    +0.032 A 
ATOM     14  C   UNL     1      35.165 -21.776 -19.313  0.00  0.00    +0.103 A 
ATOM     15  C   UNL     1      36.006 -20.162 -20.653  0.00  0.00    +0.053 A 
ATOM     16  C   UNL     1      32.872 -21.913 -18.778  0.00  0.00    +0.052 C 
ATOM     17  C   UNL     1      34.159 -22.470 -18.615  0.00  0.00    +0.036 C 
ATOM     18  C   UNL     1      33.586 -20.041 -20.284  0.00  0.00    +0.004 C 
ATOM     19  C   UNL     1      32.600 -20.756 -19.575  0.00  0.00    +0.015 C 
ATOM     20  C   UNL     1      36.342 -19.034 -21.538  0.00  0.00    +0.051 C 
ATOM     21  H   UNL     1      37.906 -20.950 -20.437  0.00  0.00    +0.189 HD
ENDBRANCH   1  16
BRANCH   2  22
ATOM     22  C   UNL     1      34.771 -23.755 -14.022  0.00  0.00    +0.064 C 
ATOM     23  C   UNL     1      37.534 -23.857 -14.424  0.00  0.00    +0.206 C 
ATOM     24  C   UNL     1      36.975 -24.410 -13.271  0.00  0.00    +0.177 C 
ATOM     25  C   UNL     1      36.712 -23.254 -15.376  0.00  0.00    +0.177 C 
ATOM     26  C   UNL     1      35.596 -24.359 -13.070  0.00  0.00    +0.055 C 
ATOM     27  C   UNL     1      35.333 -23.202 -15.175  0.00  0.00    +0.055 C 
BRANCH  23  28
ATOM     28  O   UNL     1      38.882 -23.908 -14.620  0.00  0.00    -0.465 OA
ATOM     29  C   UNL     1      39.419 -25.137 -15.103  0.00  0.00    +0.253 C 
ENDBRANCH  23  28
BRANCH  24  30
ATOM     30  O   UNL     1      37.766 -25.002 -12.333  0.00  0.00    -0.468 OA
ATOM     31  C   UNL     1      37.568 -26.396 -12.104  0.00  0.00    +0.253 C 
ENDBRANCH  24  30
BRANCH  25  32
ATOM     32  O   UNL     1      37.244 -22.711 -16.506  0.00  0.00    -0.468 OA
ATOM     33  C   UNL     1      37.454 -21.300 -16.509  0.00  0.00    +0.253 C 
ENDBRANCH  25  32
ENDBRANCH   2  22
TORSDOF 5
ENDMDL
MODEL 9
REMARK VINA RESULT:      -8.7     11.772     15.929
REMARK  Name = 9822610
REMARK  5 active torsions:
REMARK  status: ('A' for Active; 'I' for Inactive)
REMARK    1  A    between atoms: N_1  and  C_16
REMARK    2  A    between atoms: N_2  and  C_22
REMARK    3  A    between atoms: C_23  and  O_28
REMARK    4  A    between atoms: C_24  and  O_30
REMARK    5  A    between atoms: C_25  and  O_32
REMARK                            x       y       z     vdW  Elec       q    Type
REMARK                         _______ _______ _______ _____ _____    ______ ____
ROOT
ATOM      1  N   UNL     1      31.524  -8.202 -21.307  0.00  0.00    -0.287 N 
ATOM      2  N   UNL     1      32.538 -12.816 -21.485  0.00  0.00    -0.247 N 
ATOM      3  N   UNL     1      32.041 -10.525 -21.418  0.00  0.00    -0.322 NA
ATOM      4  N   UNL     1      31.882 -11.884 -19.434  0.00  0.00    -0.170 NA
ATOM      5  C   UNL     1      31.649  -9.452 -20.686  0.00  0.00    +0.198 C 
ATOM      6  C   UNL     1      32.133 -11.686 -20.742  0.00  0.00    +0.150 C 
ATOM      7  C   UNL     1      31.362  -9.536 -19.331  0.00  0.00    +0.070 C 
ATOM      8  C   UNL     1      31.497 -10.782 -18.756  0.00  0.00    +0.116 C 
ATOM      9  H   UNL     1      30.840  -7.623 -20.902  0.00  0.00    +0.155 HD
ATOM     10  H   UNL     1      32.593 -13.641 -20.951  0.00  0.00    +0.165 HD
ENDROOT
BRANCH   1  16
ATOM     11  N   UNL     1      33.002  -5.191 -26.010  0.00  0.00    -0.280 N 
ATOM     12  N   UNL     1      31.884  -5.338 -25.273  0.00  0.00    -0.173 NA
ATOM     13  C   UNL     1      33.611  -6.577 -24.471  0.00  0.00    +0.032 A 
ATOM     14  C   UNL     1      32.228  -6.199 -24.299  0.00  0.00    +0.103 A 
ATOM     15  C   UNL     1      34.073  -5.914 -25.574  0.00  0.00    +0.053 A 
ATOM     16  C   UNL     1      32.196  -7.612 -22.411  0.00  0.00    +0.052 C 
ATOM     17  C   UNL     1      31.472  -6.724 -23.235  0.00  0.00    +0.036 C 
ATOM     18  C   UNL     1      34.351  -7.445 -23.680  0.00  0.00    +0.004 C 
ATOM     19  C   UNL     1      33.569  -7.954 -22.624  0.00  0.00    +0.015 C 
ATOM     20  C   UNL     1      35.374  -5.875 -26.262  0.00  0.00    +0.051 C 
ATOM     21  H   UNL     1      33.043  -4.607 -26.802  0.00  0.00    +0.189 HD
ENDBRANCH   1  16
BRANCH   2  22
ATOM     22  C   UNL     1      32.881 -12.995 -22.838  0.00  0.00    +0.064 C 
ATOM     23  C   UNL     1      33.560 -13.348 -25.524  0.00  0.00    +0.206 C 
ATOM     24  C   UNL     1      33.584 -12.072 -24.960  0.00  0.00    +0.177 C 
ATOM     25  C   UNL     1      33.197 -14.447 -24.745  0.00  0.00    +0.177 C 
ATOM     26  C   UNL     1      33.246 -11.895 -23.619  0.00  0.00    +0.055 C 
ATOM     27  C   UNL     1      32.857 -14.270 -23.404  0.00  0.00    +0.055 C 
BRANCH  23  28
ATOM     28  O   UNL     1      33.892 -13.520 -26.835  0.00  0.00    -0.465 OA
ATOM     29  C   UNL     1      32.832 -13.447 -27.786  0.00  0.00    +0.253 C 
ENDBRANCH  23  28
BRANCH  24  30
ATOM     30  O   UNL     1      33.937 -10.989 -25.709  0.00  0.00    -0.468 OA
ATOM     31  C   UNL     1      35.252 -10.471 -25.520  0.00  0.00    +0.253 C 
ENDBRANCH  24  30
BRANCH  25  32
ATOM     32  O   UNL     1      33.169 -15.698 -25.284  0.00  0.00    -0.468 OA
ATOM     33  C   UNL     1      34.315 -16.520 -25.071  0.00  0.00    +0.253 C 
ENDBRANCH  25  32
ENDBRANCH   2  22
TORSDOF 5
ENDMDL
