MODEL 1
REMARK VINA RESULT:     -10.1      0.000      0.000
REMARK  Name = 122553
REMARK  9 active torsions:
REMARK  status: ('A' for Active; 'I' for Inactive)
REMARK    1  A    between atoms: N_1  and  C_9
REMARK    2  A    between atoms: N_2  and  C_20
REMARK    3  A    between atoms: C_9  and  C_10
REMARK    4  A    between atoms: C_10  and  C_11
REMARK    5  A    between atoms: C_11  and  C_12
REMARK    6  A    between atoms: C_11  and  O_18
REMARK    7  A    between atoms: C_20  and  C_21
REMARK    8  A    between atoms: C_21  and  C_22
REMARK    9  A    between atoms: C_21  and  O_28
REMARK                            x       y       z     vdW  Elec       q    Type
REMARK                         _______ _______ _______ _____ _____    ______ ____
ROOT
ATOM      1  N   UNL     1      33.281 -14.120 -22.604  0.00  0.00    +0.384 N 
ATOM      2  N   UNL     1      34.342 -16.714 -21.895  0.00  0.00    +0.386 N 
ATOM      3  C   UNL     1      32.672 -14.928 -21.540  0.00  0.00    -0.101 C 
ATOM      4  C   UNL     1      33.913 -14.986 -23.607  0.00  0.00    -0.101 C 
ATOM      5  C   UNL     1      33.710 -15.848 -20.891  0.00  0.00    -0.101 C 
ATOM      6  C   UNL     1      34.952 -15.906 -22.956  0.00  0.00    -0.101 C 
ATOM      7  H   UNL     1      34.002 -13.532 -22.187  0.00  0.00    -0.080 HD
ATOM      8  H   UNL     1      33.620 -17.301 -22.312  0.00  0.00    -0.080 HD
ENDROOT
BRANCH   1   9
ATOM      9  C   UNL     1      32.288 -13.245 -23.226  0.00  0.00    -0.075 C 
BRANCH   9  10
ATOM     10  C   UNL     1      32.578 -11.785 -22.875  0.00  0.00    +0.011 C 
BRANCH  10  11
ATOM     11  C   UNL     1      33.301 -11.029 -24.000  0.00  0.00    +0.131 C 
BRANCH  11  12
ATOM     12  C   UNL     1      33.373  -9.534 -23.787  0.00  0.00    +0.004 C 
ATOM     13  C   UNL     1      32.228  -8.845 -23.422  0.00  0.00    -0.002 C 
ATOM     14  C   UNL     1      34.584  -8.883 -23.961  0.00  0.00    -0.002 C 
ATOM     15  C   UNL     1      32.296  -7.466 -23.225  0.00  0.00    -0.000 C 
ATOM     16  C   UNL     1      34.651  -7.504 -23.763  0.00  0.00    -0.000 C 
ATOM     17  C   UNL     1      33.506  -6.795 -23.396  0.00  0.00    -0.000 C 
ENDBRANCH  11  12
BRANCH  11  18
ATOM     18  O   UNL     1      34.636 -11.525 -24.108  0.00  0.00    -0.380 OA
ATOM     19  H   UNL     1      35.236 -10.794 -24.325  0.00  0.00    +0.211 HD
ENDBRANCH  11  18
ENDBRANCH  10  11
ENDBRANCH   9  10
ENDBRANCH   1   9
BRANCH   2  20
ATOM     20  C   UNL     1      35.334 -17.591 -21.274  0.00  0.00    -0.043 C 
BRANCH  20  21
ATOM     21  C   UNL     1      35.283 -18.994 -21.891  0.00  0.00    +0.117 C 
BRANCH  21  22
ATOM     22  C   UNL     1      34.919 -20.039 -20.860  0.00  0.00    +0.002 C 
ATOM     23  C   UNL     1      35.924 -20.785 -20.269  0.00  0.00    -0.002 C 
ATOM     24  C   UNL     1      33.588 -20.228 -20.531  0.00  0.00    -0.002 C 
ATOM     25  C   UNL     1      35.589 -21.748 -19.319  0.00  0.00    -0.000 C 
ATOM     26  C   UNL     1      33.252 -21.191 -19.579  0.00  0.00    -0.000 C 
ATOM     27  C   UNL     1      34.253 -21.953 -18.973  0.00  0.00    -0.000 C 
ENDBRANCH  21  22
BRANCH  21  28
ATOM     28  O   UNL     1      34.313 -19.041 -22.936  0.00  0.00    -0.351 OA
ATOM     29  C   UNL     1      34.904 -19.411 -24.173  0.00  0.00    +0.174 C 
ENDBRANCH  21  28
ENDBRANCH  20  21
ENDBRANCH   2  20
TORSDOF 9
ENDMDL
MODEL 2
REMARK VINA RESULT:     -10.0      1.469      1.973
REMARK  Name = 122553
REMARK  9 active torsions:
REMARK  status: ('A' for Active; 'I' for Inactive)
REMARK    1  A    between atoms: N_1  and  C_9
REMARK    2  A    between atoms: N_2  and  C_20
REMARK    3  A    between atoms: C_9  and  C_10
REMARK    4  A    between atoms: C_10  and  C_11
REMARK    5  A    between atoms: C_11  and  C_12
REMARK    6  A    between atoms: C_11  and  O_18
REMARK    7  A    between atoms: C_20  and  C_21
REMARK    8  A    between atoms: C_21  and  C_22
REMARK    9  A    between atoms: C_21  and  O_28
REMARK                            x       y       z     vdW  Elec       q    Type
REMARK                         _______ _______ _______ _____ _____    ______ ____
ROOT
ATOM      1  N   UNL     1      33.241 -13.986 -22.587  0.00  0.00    +0.384 N 
ATOM      2  N   UNL     1      34.249 -16.587 -21.831  0.00  0.00    +0.386 N 
ATOM      3  C   UNL     1      32.574 -14.793 -21.557  0.00  0.00    -0.101 C 
ATOM      4  C   UNL     1      33.918 -14.854 -23.559  0.00  0.00    -0.101 C 
ATOM      5  C   UNL     1      33.573 -15.720 -20.858  0.00  0.00    -0.101 C 
ATOM      6  C   UNL     1      34.917 -15.781 -22.859  0.00  0.00    -0.101 C 
ATOM      7  H   UNL     1      33.943 -13.403 -22.133  0.00  0.00    -0.080 HD
ATOM      8  H   UNL     1      33.546 -17.170 -22.285  0.00  0.00    -0.080 HD
ENDROOT
BRANCH   1   9
ATOM      9  C   UNL     1      32.285 -13.104 -23.256  0.00  0.00    -0.075 C 
BRANCH   9  10
ATOM     10  C   UNL     1      32.624 -11.642 -22.964  0.00  0.00    +0.011 C 
BRANCH  10  11
ATOM     11  C   UNL     1      31.808 -11.057 -21.801  0.00  0.00    +0.131 C 
BRANCH  11  12
ATOM     12  C   UNL     1      31.861  -9.549 -21.712  0.00  0.00    +0.004 C 
ATOM     13  C   UNL     1      31.552  -8.792 -22.831  0.00  0.00    -0.002 C 
ATOM     14  C   UNL     1      32.216  -8.953 -20.512  0.00  0.00    -0.002 C 
ATOM     15  C   UNL     1      31.601  -7.401 -22.748  0.00  0.00    -0.000 C 
ATOM     16  C   UNL     1      32.263  -7.562 -20.430  0.00  0.00    -0.000 C 
ATOM     17  C   UNL     1      31.957  -6.785 -21.548  0.00  0.00    -0.000 C 
ENDBRANCH  11  12
BRANCH  11  18
ATOM     18  O   UNL     1      30.441 -11.442 -21.955  0.00  0.00    -0.380 OA
ATOM     19  H   UNL     1      30.394 -12.291 -22.420  0.00  0.00    +0.211 HD
ENDBRANCH  11  18
ENDBRANCH  10  11
ENDBRANCH   9  10
ENDBRANCH   1   9
BRANCH   2  20
ATOM     20  C   UNL     1      35.203 -17.471 -21.163  0.00  0.00    -0.043 C 
BRANCH  20  21
ATOM     21  C   UNL     1      35.235 -18.849 -21.837  0.00  0.00    +0.117 C 
BRANCH  21  22
ATOM     22  C   UNL     1      34.919 -19.953 -20.853  0.00  0.00    +0.002 C 
ATOM     23  C   UNL     1      33.599 -20.216 -20.531  0.00  0.00    -0.002 C 
ATOM     24  C   UNL     1      35.959 -20.678 -20.295  0.00  0.00    -0.002 C 
ATOM     25  C   UNL     1      33.308 -21.234 -19.624  0.00  0.00    -0.000 C 
ATOM     26  C   UNL     1      35.667 -21.697 -19.388  0.00  0.00    -0.000 C 
ATOM     27  C   UNL     1      34.342 -21.975 -19.052  0.00  0.00    -0.000 C 
ENDBRANCH  21  22
BRANCH  21  28
ATOM     28  O   UNL     1      34.278 -18.905 -22.894  0.00  0.00    -0.351 OA
ATOM     29  C   UNL     1      34.885 -19.278 -24.121  0.00  0.00    +0.174 C 
ENDBRANCH  21  28
ENDBRANCH  20  21
ENDBRANCH   2  20
TORSDOF 9
ENDMDL
MODEL 3
REMARK VINA RESULT:      -9.9      1.875     10.156
REMARK  Name = 122553
REMARK  9 active torsions:
REMARK  status: ('A' for Active; 'I' for Inactive)
REMARK    1  A    between atoms: N_1  and  C_9
REMARK    2  A    between atoms: N_2  and  C_20
REMARK    3  A    between atoms: C_9  and  C_10
REMARK    4  A    between atoms: C_10  and  C_11
REMARK    5  A    between atoms: C_11  and  C_12
REMARK    6  A    between atoms: C_11  and  O_18
REMARK    7  A    between atoms: C_20  and  C_21
REMARK    8  A    between atoms: C_21  and  C_22
REMARK    9  A    between atoms: C_21  and  O_28
REMARK                            x       y       z     vdW  Elec       q    Type
REMARK                         _______ _______ _______ _____ _____    ______ ____
ROOT
ATOM      1  N   UNL     1      33.723 -15.144 -22.860  0.00  0.00    +0.384 N 
ATOM      2  N   UNL     1      32.623 -12.545 -22.234  0.00  0.00    +0.386 N 
ATOM      3  C   UNL     1      33.441 -14.749 -21.474  0.00  0.00    -0.101 C 
ATOM      4  C   UNL     1      34.041 -13.965 -23.674  0.00  0.00    -0.101 C 
ATOM      5  C   UNL     1      32.303 -13.724 -21.419  0.00  0.00    -0.101 C 
ATOM      6  C   UNL     1      32.903 -12.940 -23.619  0.00  0.00    -0.101 C 
ATOM      7  H   UNL     1      32.887 -15.584 -23.244  0.00  0.00    -0.080 HD
ATOM      8  H   UNL     1      33.459 -12.106 -21.849  0.00  0.00    -0.080 HD
ENDROOT
BRANCH   1   9
ATOM      9  C   UNL     1      34.811 -16.120 -22.911  0.00  0.00    -0.075 C 
BRANCH   9  10
ATOM     10  C   UNL     1      34.912 -16.867 -21.581  0.00  0.00    +0.011 C 
BRANCH  10  11
ATOM     11  C   UNL     1      35.636 -18.216 -21.704  0.00  0.00    +0.131 C 
BRANCH  11  12
ATOM     12  C   UNL     1      34.950 -19.350 -20.976  0.00  0.00    +0.004 C 
ATOM     13  C   UNL     1      33.565 -19.371 -20.907  0.00  0.00    -0.002 C 
ATOM     14  C   UNL     1      35.717 -20.345 -20.393  0.00  0.00    -0.002 C 
ATOM     15  C   UNL     1      32.933 -20.417 -20.236  0.00  0.00    -0.000 C 
ATOM     16  C   UNL     1      35.083 -21.390 -19.723  0.00  0.00    -0.000 C 
ATOM     17  C   UNL     1      33.691 -21.426 -19.643  0.00  0.00    -0.000 C 
ENDBRANCH  11  12
BRANCH  11  18
ATOM     18  O   UNL     1      35.726 -18.570 -23.085  0.00  0.00    -0.380 OA
ATOM     19  H   UNL     1      36.491 -18.127 -23.483  0.00  0.00    +0.211 HD
ENDBRANCH  11  18
ENDBRANCH  10  11
ENDBRANCH   9  10
ENDBRANCH   1   9
BRANCH   2  20
ATOM     20  C   UNL     1      31.536 -11.568 -22.182  0.00  0.00    -0.043 C 
BRANCH  20  21
ATOM     21  C   UNL     1      31.836 -10.473 -21.152  0.00  0.00    +0.117 C 
BRANCH  21  22
ATOM     22  C   UNL     1      31.819  -9.099 -21.784  0.00  0.00    +0.002 C 
ATOM     23  C   UNL     1      32.234  -8.007 -21.041  0.00  0.00    -0.002 C 
ATOM     24  C   UNL     1      31.388  -8.962 -23.093  0.00  0.00    -0.002 C 
ATOM     25  C   UNL     1      32.218  -6.740 -21.624  0.00  0.00    -0.000 C 
ATOM     26  C   UNL     1      31.374  -7.695 -23.676  0.00  0.00    -0.000 C 
ATOM     27  C   UNL     1      31.788  -6.583 -22.941  0.00  0.00    -0.000 C 
ENDBRANCH  21  22
BRANCH  21  28
ATOM     28  O   UNL     1      30.865 -10.496 -20.107  0.00  0.00    -0.351 OA
ATOM     29  C   UNL     1      31.447 -10.871 -18.869  0.00  0.00    +0.174 C 
ENDBRANCH  21  28
ENDBRANCH  20  21
ENDBRANCH   2  20
TORSDOF 9
ENDMDL
MODEL 4
REMARK VINA RESULT:      -9.8      1.912     10.249
REMARK  Name = 122553
REMARK  9 active torsions:
REMARK  status: ('A' for Active; 'I' for Inactive)
REMARK    1  A    between atoms: N_1  and  C_9
REMARK    2  A    between atoms: N_2  and  C_20
REMARK    3  A    between atoms: C_9  and  C_10
REMARK    4  A    between atoms: C_10  and  C_11
REMARK    5  A    between atoms: C_11  and  C_12
REMARK    6  A    between atoms: C_11  and  O_18
REMARK    7  A    between atoms: C_20  and  C_21
REMARK    8  A    between atoms: C_21  and  C_22
REMARK    9  A    between atoms: C_21  and  O_28
REMARK                            x       y       z     vdW  Elec       q    Type
REMARK                         _______ _______ _______ _____ _____    ______ ____
ROOT
ATOM      1  N   UNL     1      33.965 -14.131 -22.624  0.00  0.00    +0.384 N 
ATOM      2  N   UNL     1      31.734 -12.312 -22.362  0.00  0.00    +0.386 N 
ATOM      3  C   UNL     1      33.582 -13.231 -23.720  0.00  0.00    -0.101 C 
ATOM      4  C   UNL     1      32.793 -14.474 -21.809  0.00  0.00    -0.101 C 
ATOM      5  C   UNL     1      32.905 -11.968 -23.177  0.00  0.00    -0.101 C 
ATOM      6  C   UNL     1      32.117 -13.210 -21.266  0.00  0.00    -0.101 C 
ATOM      7  H   UNL     1      34.638 -13.647 -22.031  0.00  0.00    -0.080 HD
ATOM      8  H   UNL     1      31.061 -12.797 -22.955  0.00  0.00    -0.080 HD
ENDROOT
BRANCH   1   9
ATOM      9  C   UNL     1      34.607 -15.338 -23.143  0.00  0.00    -0.075 C 
BRANCH   9  10
ATOM     10  C   UNL     1      34.807 -16.354 -22.019  0.00  0.00    +0.011 C 
BRANCH  10  11
ATOM     11  C   UNL     1      35.385 -17.690 -22.512  0.00  0.00    +0.131 C 
BRANCH  11  12
ATOM     12  C   UNL     1      35.145 -18.848 -21.570  0.00  0.00    +0.004 C 
ATOM     13  C   UNL     1      36.228 -19.461 -20.960  0.00  0.00    -0.002 C 
ATOM     14  C   UNL     1      33.847 -19.273 -21.336  0.00  0.00    -0.002 C 
ATOM     15  C   UNL     1      36.006 -20.529 -20.091  0.00  0.00    -0.000 C 
ATOM     16  C   UNL     1      33.627 -20.340 -20.467  0.00  0.00    -0.000 C 
ATOM     17  C   UNL     1      34.706 -20.970 -19.845  0.00  0.00    -0.000 C 
ENDBRANCH  11  12
BRANCH  11  18
ATOM     18  O   UNL     1      34.792 -18.014 -23.770  0.00  0.00    -0.380 OA
ATOM     19  H   UNL     1      35.155 -18.854 -24.092  0.00  0.00    +0.211 HD
ENDBRANCH  11  18
ENDBRANCH  10  11
ENDBRANCH   9  10
ENDBRANCH   1   9
BRANCH   2  20
ATOM     20  C   UNL     1      31.090 -11.106 -21.844  0.00  0.00    -0.043 C 
BRANCH  20  21
ATOM     21  C   UNL     1      32.136 -10.076 -21.402  0.00  0.00    +0.117 C 
BRANCH  21  22
ATOM     22  C   UNL     1      31.870  -8.719 -22.015  0.00  0.00    +0.002 C 
ATOM     23  C   UNL     1      31.293  -8.645 -23.271  0.00  0.00    -0.002 C 
ATOM     24  C   UNL     1      32.209  -7.578 -21.306  0.00  0.00    -0.002 C 
ATOM     25  C   UNL     1      31.047  -7.394 -23.836  0.00  0.00    -0.000 C 
ATOM     26  C   UNL     1      31.962  -6.327 -21.871  0.00  0.00    -0.000 C 
ATOM     27  C   UNL     1      31.382  -6.235 -23.137  0.00  0.00    -0.000 C 
ENDBRANCH  21  22
BRANCH  21  28
ATOM     28  O   UNL     1      32.124  -9.935 -19.983  0.00  0.00    -0.351 OA
ATOM     29  C   UNL     1      30.929 -10.454 -19.422  0.00  0.00    +0.174 C 
ENDBRANCH  21  28
ENDBRANCH  20  21
ENDBRANCH   2  20
TORSDOF 9
ENDMDL
MODEL 5
REMARK VINA RESULT:      -9.7      1.303      9.892
REMARK  Name = 122553
REMARK  9 active torsions:
REMARK  status: ('A' for Active; 'I' for Inactive)
REMARK    1  A    between atoms: N_1  and  C_9
REMARK    2  A    between atoms: N_2  and  C_20
REMARK    3  A    between atoms: C_9  and  C_10
REMARK    4  A    between atoms: C_10  and  C_11
REMARK    5  A    between atoms: C_11  and  C_12
REMARK    6  A    between atoms: C_11  and  O_18
REMARK    7  A    between atoms: C_20  and  C_21
REMARK    8  A    between atoms: C_21  and  C_22
REMARK    9  A    between atoms: C_21  and  O_28
REMARK                            x       y       z     vdW  Elec       q    Type
REMARK                         _______ _______ _______ _____ _____    ______ ____
ROOT
ATOM      1  N   UNL     1      34.141 -16.264 -24.114  0.00  0.00    +0.384 N 
ATOM      2  N   UNL     1      33.852 -13.392 -23.960  0.00  0.00    +0.386 N 
ATOM      3  C   UNL     1      34.951 -15.464 -23.186  0.00  0.00    -0.101 C 
ATOM      4  C   UNL     1      33.781 -15.469 -25.295  0.00  0.00    -0.101 C 
ATOM      5  C   UNL     1      34.212 -14.186 -22.779  0.00  0.00    -0.101 C 
ATOM      6  C   UNL     1      33.041 -14.191 -24.887  0.00  0.00    -0.101 C 
ATOM      7  H   UNL     1      33.283 -16.538 -23.637  0.00  0.00    -0.080 HD
ATOM      8  H   UNL     1      34.711 -13.119 -24.437  0.00  0.00    -0.080 HD
ENDROOT
BRANCH   1   9
ATOM      9  C   UNL     1      34.849 -17.482 -24.504  0.00  0.00    -0.075 C 
BRANCH   9  10
ATOM     10  C   UNL     1      34.486 -18.629 -23.561  0.00  0.00    +0.011 C 
BRANCH  10  11
ATOM     11  C   UNL     1      35.088 -18.464 -22.156  0.00  0.00    +0.131 C 
BRANCH  11  12
ATOM     12  C   UNL     1      34.666 -19.537 -21.179  0.00  0.00    +0.004 C 
ATOM     13  C   UNL     1      35.636 -20.313 -20.564  0.00  0.00    -0.002 C 
ATOM     14  C   UNL     1      33.319 -19.723 -20.916  0.00  0.00    -0.002 C 
ATOM     15  C   UNL     1      35.247 -21.303 -19.662  0.00  0.00    -0.000 C 
ATOM     16  C   UNL     1      32.931 -20.712 -20.013  0.00  0.00    -0.000 C 
ATOM     17  C   UNL     1      33.894 -21.504 -19.386  0.00  0.00    -0.000 C 
ENDBRANCH  11  12
BRANCH  11  18
ATOM     18  O   UNL     1      36.513 -18.495 -22.257  0.00  0.00    -0.380 OA
ATOM     19  H   UNL     1      36.772 -18.465 -23.191  0.00  0.00    +0.211 HD
ENDBRANCH  11  18
ENDBRANCH  10  11
ENDBRANCH   9  10
ENDBRANCH   1   9
BRANCH   2  20
ATOM     20  C   UNL     1      33.145 -12.172 -23.571  0.00  0.00    -0.043 C 
BRANCH  20  21
ATOM     21  C   UNL     1      33.565 -10.992 -24.457  0.00  0.00    +0.117 C 
BRANCH  21  22
ATOM     22  C   UNL     1      33.502  -9.684 -23.701  0.00  0.00    +0.002 C 
ATOM     23  C   UNL     1      34.497  -8.742 -23.894  0.00  0.00    -0.002 C 
ATOM     24  C   UNL     1      32.449  -9.456 -22.831  0.00  0.00    -0.002 C 
ATOM     25  C   UNL     1      34.439  -7.536 -23.198  0.00  0.00    -0.000 C 
ATOM     26  C   UNL     1      32.390  -8.249 -22.135  0.00  0.00    -0.000 C 
ATOM     27  C   UNL     1      33.386  -7.288 -22.317  0.00  0.00    -0.000 C 
ENDBRANCH  21  22
BRANCH  21  28
ATOM     28  O   UNL     1      34.901 -11.174 -24.923  0.00  0.00    -0.351 OA
ATOM     29  C   UNL     1      34.969 -11.093 -26.339  0.00  0.00    +0.174 C 
ENDBRANCH  21  28
ENDBRANCH  20  21
ENDBRANCH   2  20
TORSDOF 9
ENDMDL
MODEL 6
REMARK VINA RESULT:      -9.6      3.505      6.558
REMARK  Name = 122553
REMARK  9 active torsions:
REMARK  status: ('A' for Active; 'I' for Inactive)
REMARK    1  A    between atoms: N_1  and  C_9
REMARK    2  A    between atoms: N_2  and  C_20
REMARK    3  A    between atoms: C_9  and  C_10
REMARK    4  A    between atoms: C_10  and  C_11
REMARK    5  A    between atoms: C_11  and  C_12
REMARK    6  A    between atoms: C_11  and  O_18
REMARK    7  A    between atoms: C_20  and  C_21
REMARK    8  A    between atoms: C_21  and  C_22
REMARK    9  A    between atoms: C_21  and  O_28
REMARK                            x       y       z     vdW  Elec       q    Type
REMARK                         _______ _______ _______ _____ _____    ______ ____
ROOT
ATOM      1  N   UNL     1      34.836 -20.162 -21.112  0.00  0.00    +0.384 N 
ATOM      2  N   UNL     1      34.148 -21.809 -18.838  0.00  0.00    +0.386 N 
ATOM      3  C   UNL     1      35.849 -20.569 -20.131  0.00  0.00    -0.101 C 
ATOM      4  C   UNL     1      33.515 -20.073 -20.478  0.00  0.00    -0.101 C 
ATOM      5  C   UNL     1      35.469 -21.899 -19.472  0.00  0.00    -0.101 C 
ATOM      6  C   UNL     1      33.135 -21.404 -19.820  0.00  0.00    -0.101 C 
ATOM      7  H   UNL     1      34.794 -20.872 -21.844  0.00  0.00    -0.080 HD
ATOM      8  H   UNL     1      34.190 -21.098 -18.108  0.00  0.00    -0.080 HD
ENDROOT
BRANCH   1   9
ATOM      9  C   UNL     1      35.198 -18.891 -21.737  0.00  0.00    -0.075 C 
BRANCH   9  10
ATOM     10  C   UNL     1      34.230 -17.792 -21.297  0.00  0.00    +0.011 C 
BRANCH  10  11
ATOM     11  C   UNL     1      34.883 -16.402 -21.242  0.00  0.00    +0.131 C 
BRANCH  11  12
ATOM     12  C   UNL     1      34.083 -15.320 -21.929  0.00  0.00    +0.004 C 
ATOM     13  C   UNL     1      33.014 -14.741 -21.263  0.00  0.00    -0.002 C 
ATOM     14  C   UNL     1      34.433 -14.929 -23.211  0.00  0.00    -0.002 C 
ATOM     15  C   UNL     1      32.277 -13.742 -21.897  0.00  0.00    -0.000 C 
ATOM     16  C   UNL     1      33.695 -13.929 -23.844  0.00  0.00    -0.000 C 
ATOM     17  C   UNL     1      32.615 -13.336 -23.188  0.00  0.00    -0.000 C 
ENDBRANCH  11  12
BRANCH  11  18
ATOM     18  O   UNL     1      35.053 -16.024 -19.875  0.00  0.00    -0.380 OA
ATOM     19  H   UNL     1      34.404 -15.342 -19.645  0.00  0.00    +0.211 HD
ENDBRANCH  11  18
ENDBRANCH  10  11
ENDBRANCH   9  10
ENDBRANCH   1   9
BRANCH   2  20
ATOM     20  C   UNL     1      33.785 -23.079 -18.212  0.00  0.00    -0.043 C 
BRANCH  20  21
ATOM     21  C   UNL     1      33.965 -23.008 -16.690  0.00  0.00    +0.117 C 
BRANCH  21  22
ATOM     22  C   UNL     1      32.641 -23.126 -15.970  0.00  0.00    +0.002 C 
ATOM     23  C   UNL     1      32.631 -23.371 -14.608  0.00  0.00    -0.002 C 
ATOM     24  C   UNL     1      31.465 -22.986 -16.689  0.00  0.00    -0.002 C 
ATOM     25  C   UNL     1      31.410 -23.479 -13.944  0.00  0.00    -0.000 C 
ATOM     26  C   UNL     1      30.244 -23.094 -16.024  0.00  0.00    -0.000 C 
ATOM     27  C   UNL     1      30.215 -23.342 -14.651  0.00  0.00    -0.000 C 
ENDBRANCH  21  22
BRANCH  21  28
ATOM     28  O   UNL     1      34.813 -24.064 -16.242  0.00  0.00    -0.351 OA
ATOM     29  C   UNL     1      36.024 -23.560 -15.701  0.00  0.00    +0.174 C 
ENDBRANCH  21  28
ENDBRANCH  20  21
ENDBRANCH   2  20
TORSDOF 9
ENDMDL
MODEL 7
REMARK VINA RESULT:      -9.6      5.396      8.758
REMARK  Name = 122553
REMARK  9 active torsions:
REMARK  status: ('A' for Active; 'I' for Inactive)
REMARK    1  A    between atoms: N_1  and  C_9
REMARK    2  A    between atoms: N_2  and  C_20
REMARK    3  A    between atoms: C_9  and  C_10
REMARK    4  A    between atoms: C_10  and  C_11
REMARK    5  A    between atoms: C_11  and  C_12
REMARK    6  A    between atoms: C_11  and  O_18
REMARK    7  A    between atoms: C_20  and  C_21
REMARK    8  A    between atoms: C_21  and  C_22
REMARK    9  A    between atoms: C_21  and  O_28
REMARK                            x       y       z     vdW  Elec       q    Type
REMARK                         _______ _______ _______ _____ _____    ______ ____
ROOT
ATOM      1  N   UNL     1      35.966 -21.729 -19.181  0.00  0.00    +0.384 N 
ATOM      2  N   UNL     1      34.399 -22.725 -16.965  0.00  0.00    +0.386 N 
ATOM      3  C   UNL     1      36.449 -21.627 -17.797  0.00  0.00    -0.101 C 
ATOM      4  C   UNL     1      34.499 -21.706 -19.213  0.00  0.00    -0.101 C 
ATOM      5  C   UNL     1      35.867 -22.749 -16.932  0.00  0.00    -0.101 C 
ATOM      6  C   UNL     1      33.916 -22.829 -18.347  0.00  0.00    -0.101 C 
ATOM      7  H   UNL     1      36.283 -22.618 -19.567  0.00  0.00    -0.080 HD
ATOM      8  H   UNL     1      34.083 -21.835 -16.580  0.00  0.00    -0.080 HD
ENDROOT
BRANCH   1   9
ATOM      9  C   UNL     1      36.520 -20.656 -20.005  0.00  0.00    -0.075 C 
BRANCH   9  10
ATOM     10  C   UNL     1      35.395 -19.898 -20.710  0.00  0.00    +0.011 C 
BRANCH  10  11
ATOM     11  C   UNL     1      35.850 -18.549 -21.289  0.00  0.00    +0.131 C 
BRANCH  11  12
ATOM     12  C   UNL     1      35.327 -18.270 -22.679  0.00  0.00    +0.004 C 
ATOM     13  C   UNL     1      34.941 -19.331 -23.484  0.00  0.00    -0.002 C 
ATOM     14  C   UNL     1      35.244 -16.960 -23.122  0.00  0.00    -0.002 C 
ATOM     15  C   UNL     1      34.458 -19.072 -24.766  0.00  0.00    -0.000 C 
ATOM     16  C   UNL     1      34.760 -16.703 -24.404  0.00  0.00    -0.000 C 
ATOM     17  C   UNL     1      34.368 -17.759 -25.228  0.00  0.00    -0.000 C 
ENDBRANCH  11  12
BRANCH  11  18
ATOM     18  O   UNL     1      35.399 -17.501 -20.429  0.00  0.00    -0.380 OA
ATOM     19  H   UNL     1      35.050 -16.772 -20.964  0.00  0.00    +0.211 HD
ENDBRANCH  11  18
ENDBRANCH  10  11
ENDBRANCH   9  10
ENDBRANCH   1   9
BRANCH   2  20
ATOM     20  C   UNL     1      33.843 -23.797 -16.140  0.00  0.00    -0.043 C 
BRANCH  20  21
ATOM     21  C   UNL     1      32.942 -23.225 -15.038  0.00  0.00    +0.117 C 
BRANCH  21  22
ATOM     22  C   UNL     1      31.488 -23.559 -15.285  0.00  0.00    +0.002 C 
ATOM     23  C   UNL     1      30.787 -22.858 -16.252  0.00  0.00    -0.002 C 
ATOM     24  C   UNL     1      30.887 -24.558 -14.538  0.00  0.00    -0.002 C 
ATOM     25  C   UNL     1      29.447 -23.165 -16.479  0.00  0.00    -0.000 C 
ATOM     26  C   UNL     1      29.546 -24.866 -14.766  0.00  0.00    -0.000 C 
ATOM     27  C   UNL     1      28.825 -24.169 -15.736  0.00  0.00    -0.000 C 
ENDBRANCH  21  22
BRANCH  21  28
ATOM     28  O   UNL     1      33.313 -23.759 -13.769  0.00  0.00    -0.351 OA
ATOM     29  C   UNL     1      34.696 -24.075 -13.726  0.00  0.00    +0.174 C 
ENDBRANCH  21  28
ENDBRANCH  20  21
ENDBRANCH   2  20
TORSDOF 9
ENDMDL
MODEL 8
REMARK VINA RESULT:      -9.5      2.239     10.577
REMARK  Name = 122553
REMARK  9 active torsions:
REMARK  status: ('A' for Active; 'I' for Inactive)
REMARK    1  A    between atoms: N_1  and  C_9
REMARK    2  A    between atoms: N_2  and  C_20
REMARK    3  A    between atoms: C_9  and  C_10
REMARK    4  A    between atoms: C_10  and  C_11
REMARK    5  A    between atoms: C_11  and  C_12
REMARK    6  A    between atoms: C_11  and  O_18
REMARK    7  A    between atoms: C_20  and  C_21
REMARK    8  A    between atoms: C_21  and  C_22
REMARK    9  A    between atoms: C_21  and  O_28
REMARK                            x       y       z     vdW  Elec       q    Type
REMARK                         _______ _______ _______ _____ _____    ______ ____
ROOT
ATOM      1  N   UNL     1      32.210 -12.966 -22.675  0.00  0.00    +0.384 N 
ATOM      2  N   UNL     1      32.171 -10.078 -22.539  0.00  0.00    +0.386 N 
ATOM      3  C   UNL     1      31.615 -12.264 -21.530  0.00  0.00    -0.101 C 
ATOM      4  C   UNL     1      33.283 -12.159 -23.269  0.00  0.00    -0.101 C 
ATOM      5  C   UNL     1      31.096 -10.884 -21.945  0.00  0.00    -0.101 C 
ATOM      6  C   UNL     1      32.763 -10.779 -23.684  0.00  0.00    -0.101 C 
ATOM      7  H   UNL     1      31.485 -13.104 -23.379  0.00  0.00    -0.080 HD
ATOM      8  H   UNL     1      32.896  -9.942 -21.835  0.00  0.00    -0.080 HD
ENDROOT
BRANCH   1   9
ATOM      9  C   UNL     1      32.708 -14.281 -22.277  0.00  0.00    -0.075 C 
BRANCH   9  10
ATOM     10  C   UNL     1      34.214 -14.372 -22.525  0.00  0.00    +0.011 C 
BRANCH  10  11
ATOM     11  C   UNL     1      34.584 -15.403 -23.603  0.00  0.00    +0.131 C 
BRANCH  11  12
ATOM     12  C   UNL     1      34.762 -16.807 -23.073  0.00  0.00    +0.004 C 
ATOM     13  C   UNL     1      34.965 -17.000 -21.716  0.00  0.00    -0.002 C 
ATOM     14  C   UNL     1      34.719 -17.875 -23.956  0.00  0.00    -0.002 C 
ATOM     15  C   UNL     1      35.128 -18.296 -21.228  0.00  0.00    -0.000 C 
ATOM     16  C   UNL     1      34.882 -19.170 -23.466  0.00  0.00    -0.000 C 
ATOM     17  C   UNL     1      35.088 -19.381 -22.102  0.00  0.00    -0.000 C 
ENDBRANCH  11  12
BRANCH  11  18
ATOM     18  O   UNL     1      33.552 -15.431 -24.590  0.00  0.00    -0.380 OA
ATOM     19  H   UNL     1      32.838 -16.017 -24.295  0.00  0.00    +0.211 HD
ENDBRANCH  11  18
ENDBRANCH  10  11
ENDBRANCH   9  10
ENDBRANCH   1   9
BRANCH   2  20
ATOM     20  C   UNL     1      31.674  -8.762 -22.936  0.00  0.00    -0.043 C 
BRANCH  20  21
ATOM     21  C   UNL     1      32.689  -7.667 -22.584  0.00  0.00    +0.117 C 
BRANCH  21  22
ATOM     22  C   UNL     1      33.078  -6.861 -23.803  0.00  0.00    +0.002 C 
ATOM     23  C   UNL     1      32.169  -5.969 -24.344  0.00  0.00    -0.002 C 
ATOM     24  C   UNL     1      34.338  -7.034 -24.354  0.00  0.00    -0.002 C 
ATOM     25  C   UNL     1      32.528  -5.226 -25.467  0.00  0.00    -0.000 C 
ATOM     26  C   UNL     1      34.697  -6.290 -25.477  0.00  0.00    -0.000 C 
ATOM     27  C   UNL     1      33.792  -5.386 -26.035  0.00  0.00    -0.000 C 
ENDBRANCH  21  22
BRANCH  21  28
ATOM     28  O   UNL     1      32.139  -6.775 -21.616  0.00  0.00    -0.351 OA
ATOM     29  C   UNL     1      32.438  -7.198 -20.295  0.00  0.00    +0.174 C 
ENDBRANCH  21  28
ENDBRANCH  20  21
ENDBRANCH   2  20
TORSDOF 9
ENDMDL
MODEL 9
REMARK VINA RESULT:      -9.4      3.850     11.183
REMARK  Name = 122553
REMARK  9 active torsions:
REMARK  status: ('A' for Active; 'I' for Inactive)
REMARK    1  A    between atoms: N_1  and  C_9
REMARK    2  A    between atoms: N_2  and  C_20
REMARK    3  A    between atoms: C_9  and  C_10
REMARK    4  A    between atoms: C_10  and  C_11
REMARK    5  A    between atoms: C_11  and  C_12
REMARK    6  A    between atoms: C_11  and  O_18
REMARK    7  A    between atoms: C_20  and  C_21
REMARK    8  A    between atoms: C_21  and  C_22
REMARK    9  A    between atoms: C_21  and  O_28
REMARK                            x       y       z     vdW  Elec       q    Type
REMARK                         _______ _______ _______ _____ _____    ______ ____
ROOT
ATOM      1  N   UNL     1      34.472 -22.284 -19.669  0.00  0.00    +0.384 N 
ATOM      2  N   UNL     1      35.526 -19.659 -20.267  0.00  0.00    +0.386 N 
ATOM      3  C   UNL     1      33.584 -21.128 -19.844  0.00  0.00    -0.101 C 
ATOM      4  C   UNL     1      35.781 -21.853 -19.162  0.00  0.00    -0.101 C 
ATOM      5  C   UNL     1      34.217 -20.089 -20.776  0.00  0.00    -0.101 C 
ATOM      6  C   UNL     1      36.413 -20.815 -20.094  0.00  0.00    -0.101 C 
ATOM      7  H   UNL     1      34.609 -22.724 -20.579  0.00  0.00    -0.080 HD
ATOM      8  H   UNL     1      35.387 -19.221 -19.356  0.00  0.00    -0.080 HD
ENDROOT
BRANCH   1   9
ATOM      9  C   UNL     1      33.869 -23.273 -18.777  0.00  0.00    -0.075 C 
BRANCH   9  10
ATOM     10  C   UNL     1      33.068 -22.573 -17.679  0.00  0.00    +0.011 C 
BRANCH  10  11
ATOM     11  C   UNL     1      33.444 -23.046 -16.266  0.00  0.00    +0.131 C 
BRANCH  11  12
ATOM     12  C   UNL     1      32.297 -23.663 -15.500  0.00  0.00    +0.004 C 
ATOM     13  C   UNL     1      31.001 -23.484 -15.959  0.00  0.00    -0.002 C 
ATOM     14  C   UNL     1      32.562 -24.393 -14.353  0.00  0.00    -0.002 C 
ATOM     15  C   UNL     1      29.943 -24.053 -15.252  0.00  0.00    -0.000 C 
ATOM     16  C   UNL     1      31.503 -24.962 -13.647  0.00  0.00    -0.000 C 
ATOM     17  C   UNL     1      30.192 -24.792 -14.095  0.00  0.00    -0.000 C 
ENDBRANCH  11  12
BRANCH  11  18
ATOM     18  O   UNL     1      34.482 -24.023 -16.367  0.00  0.00    -0.380 OA
ATOM     19  H   UNL     1      35.248 -23.735 -15.846  0.00  0.00    +0.211 HD
ENDBRANCH  11  18
ENDBRANCH  10  11
ENDBRANCH   9  10
ENDBRANCH   1   9
BRANCH   2  20
ATOM     20  C   UNL     1      36.129 -18.669 -21.157  0.00  0.00    -0.043 C 
BRANCH  20  21
ATOM     21  C   UNL     1      35.143 -18.247 -22.253  0.00  0.00    +0.117 C 
BRANCH  21  22
ATOM     22  C   UNL     1      34.811 -16.774 -22.161  0.00  0.00    +0.002 C 
ATOM     23  C   UNL     1      34.707 -16.031 -23.324  0.00  0.00    -0.002 C 
ATOM     24  C   UNL     1      34.620 -16.200 -20.916  0.00  0.00    -0.002 C 
ATOM     25  C   UNL     1      34.401 -14.673 -23.240  0.00  0.00    -0.000 C 
ATOM     26  C   UNL     1      34.313 -14.842 -20.832  0.00  0.00    -0.000 C 
ATOM     27  C   UNL     1      34.205 -14.078 -21.994  0.00  0.00    -0.000 C 
ENDBRANCH  21  22
BRANCH  21  28
ATOM     28  O   UNL     1      35.697 -18.501 -23.542  0.00  0.00    -0.351 OA
ATOM     29  C   UNL     1      34.861 -19.358 -24.304  0.00  0.00    +0.174 C 
ENDBRANCH  21  28
ENDBRANCH  20  21
ENDBRANCH   2  20
TORSDOF 9
ENDMDL
