MODEL 1
REMARK VINA RESULT:      -8.0      0.000      0.000
REMARK  Name = 5838
REMARK  2 active torsions:
REMARK  status: ('A' for Active; 'I' for Inactive)
REMARK    1  A    between atoms: C_6  and  C_12
REMARK    2  A    between atoms: C_6  and  C_18
REMARK                            x       y       z     vdW  Elec       q    Type
REMARK                         _______ _______ _______ _____ _____    ______ ____
ROOT
ATOM      1  O   UNL     1      36.015 -26.410 -15.567  0.00  0.00    -0.274 OA
ATOM      2  O   UNL     1      37.534 -22.750 -12.849  0.00  0.00    -0.274 OA
ATOM      3  O   UNL     1      40.230 -26.338 -13.771  0.00  0.00    -0.252 OA
ATOM      4  N   UNL     1      38.113 -26.340 -14.658  0.00  0.00    -0.239 N 
ATOM      5  N   UNL     1      38.853 -24.556 -13.330  0.00  0.00    -0.239 N 
ATOM      6  C   UNL     1      36.577 -24.456 -14.265  0.00  0.00    +0.153 C 
ATOM      7  C   UNL     1      36.853 -25.814 -14.887  0.00  0.00    +0.240 C 
ATOM      8  C   UNL     1      37.674 -23.836 -13.415  0.00  0.00    +0.240 C 
ATOM      9  C   UNL     1      39.140 -25.782 -13.912  0.00  0.00    +0.312 C 
ATOM     10  H   UNL     1      38.302 -27.211 -15.074  0.00  0.00    +0.159 HD
ATOM     11  H   UNL     1      39.572 -24.150 -12.793  0.00  0.00    +0.159 HD
ENDROOT
BRANCH   6  12
ATOM     12  C   UNL     1      36.371 -23.518 -15.422  0.00  0.00    -0.033 C 
ATOM     13  C   UNL     1      37.594 -22.778 -15.904  0.00  0.00    +0.023 C 
ATOM     14  C   UNL     1      37.276 -21.614 -16.846  0.00  0.00    +0.005 C 
ATOM     15  C   UNL     1      36.212 -22.004 -17.865  0.00  0.00    +0.005 C 
ATOM     16  C   UNL     1      34.925 -22.451 -17.172  0.00  0.00    +0.025 C 
ATOM     17  C   UNL     1      35.167 -23.349 -15.994  0.00  0.00    -0.034 C 
ENDBRANCH   6  12
BRANCH   6  18
ATOM     18  C   UNL     1      35.307 -24.558 -13.411  0.00  0.00    +0.021 C 
ATOM     19  C   UNL     1      35.644 -24.874 -11.971  0.00  0.00    +0.001 C 
ENDBRANCH   6  18
TORSDOF 2
ENDMDL
MODEL 2
REMARK VINA RESULT:      -7.9      1.540      3.197
REMARK  Name = 5838
REMARK  2 active torsions:
REMARK  status: ('A' for Active; 'I' for Inactive)
REMARK    1  A    between atoms: C_6  and  C_12
REMARK    2  A    between atoms: C_6  and  C_18
REMARK                            x       y       z     vdW  Elec       q    Type
REMARK                         _______ _______ _______ _____ _____    ______ ____
ROOT
ATOM      1  O   UNL     1      37.908 -22.151 -12.870  0.00  0.00    -0.274 OA
ATOM      2  O   UNL     1      36.750 -26.338 -14.924  0.00  0.00    -0.274 OA
ATOM      3  O   UNL     1      35.255 -25.220 -10.740  0.00  0.00    -0.252 OA
ATOM      4  N   UNL     1      36.583 -23.704 -11.837  0.00  0.00    -0.239 N 
ATOM      5  N   UNL     1      36.021 -25.748 -12.838  0.00  0.00    -0.239 N 
ATOM      6  C   UNL     1      37.424 -24.169 -14.104  0.00  0.00    +0.153 C 
ATOM      7  C   UNL     1      37.344 -23.247 -12.899  0.00  0.00    +0.240 C 
ATOM      8  C   UNL     1      36.719 -25.512 -14.009  0.00  0.00    +0.240 C 
ATOM      9  C   UNL     1      35.907 -24.911 -11.738  0.00  0.00    +0.312 C 
ATOM     10  H   UNL     1      36.514 -23.102 -11.062  0.00  0.00    +0.159 HD
ATOM     11  H   UNL     1      35.549 -26.610 -12.779  0.00  0.00    +0.159 HD
ENDROOT
BRANCH   6  12
ATOM     12  C   UNL     1      36.751 -23.427 -15.225  0.00  0.00    -0.033 C 
ATOM     13  C   UNL     1      37.655 -22.636 -16.136  0.00  0.00    +0.023 C 
ATOM     14  C   UNL     1      36.907 -21.654 -17.041  0.00  0.00    +0.005 C 
ATOM     15  C   UNL     1      35.656 -22.292 -17.632  0.00  0.00    +0.005 C 
ATOM     16  C   UNL     1      34.711 -22.772 -16.530  0.00  0.00    +0.025 C 
ATOM     17  C   UNL     1      35.419 -23.468 -15.405  0.00  0.00    -0.034 C 
ENDBRANCH   6  12
BRANCH   6  18
ATOM     18  C   UNL     1      38.903 -24.424 -14.427  0.00  0.00    +0.021 C 
ATOM     19  C   UNL     1      39.518 -25.385 -13.434  0.00  0.00    +0.001 C 
ENDBRANCH   6  18
TORSDOF 2
ENDMDL
MODEL 3
REMARK VINA RESULT:      -7.9      1.940      3.753
REMARK  Name = 5838
REMARK  2 active torsions:
REMARK  status: ('A' for Active; 'I' for Inactive)
REMARK    1  A    between atoms: C_6  and  C_12
REMARK    2  A    between atoms: C_6  and  C_18
REMARK                            x       y       z     vdW  Elec       q    Type
REMARK                         _______ _______ _______ _____ _____    ______ ____
ROOT
ATOM      1  O   UNL     1      36.418 -22.614 -12.910  0.00  0.00    -0.274 OA
ATOM      2  O   UNL     1      35.963 -26.311 -15.946  0.00  0.00    -0.274 OA
ATOM      3  O   UNL     1      37.574 -26.877 -11.695  0.00  0.00    -0.252 OA
ATOM      4  N   UNL     1      36.982 -24.755 -12.336  0.00  0.00    -0.239 N 
ATOM      5  N   UNL     1      36.763 -26.558 -13.817  0.00  0.00    -0.239 N 
ATOM      6  C   UNL     1      36.071 -24.321 -14.582  0.00  0.00    +0.153 C 
ATOM      7  C   UNL     1      36.502 -23.804 -13.220  0.00  0.00    +0.240 C 
ATOM      8  C   UNL     1      36.258 -25.804 -14.862  0.00  0.00    +0.240 C 
ATOM      9  C   UNL     1      37.135 -26.115 -12.557  0.00  0.00    +0.312 C 
ATOM     10  H   UNL     1      37.245 -24.427 -11.446  0.00  0.00    +0.159 HD
ATOM     11  H   UNL     1      36.870 -27.521 -13.989  0.00  0.00    +0.159 HD
ENDROOT
BRANCH   6  12
ATOM     12  C   UNL     1      34.591 -24.070 -14.658  0.00  0.00    -0.033 C 
ATOM     13  C   UNL     1      33.773 -24.556 -13.489  0.00  0.00    +0.023 C 
ATOM     14  C   UNL     1      32.266 -24.573 -13.759  0.00  0.00    +0.005 C 
ATOM     15  C   UNL     1      31.822 -23.307 -14.482  0.00  0.00    +0.005 C 
ATOM     16  C   UNL     1      32.563 -23.143 -15.808  0.00  0.00    +0.025 C 
ATOM     17  C   UNL     1      34.030 -23.446 -15.709  0.00  0.00    -0.034 C 
ENDBRANCH   6  12
BRANCH   6  18
ATOM     18  C   UNL     1      36.818 -23.530 -15.664  0.00  0.00    +0.021 C 
ATOM     19  C   UNL     1      38.314 -23.715 -15.539  0.00  0.00    +0.001 C 
ENDBRANCH   6  18
TORSDOF 2
ENDMDL
MODEL 4
REMARK VINA RESULT:      -7.9     16.416     18.732
REMARK  Name = 5838
REMARK  2 active torsions:
REMARK  status: ('A' for Active; 'I' for Inactive)
REMARK    1  A    between atoms: C_6  and  C_12
REMARK    2  A    between atoms: C_6  and  C_18
REMARK                            x       y       z     vdW  Elec       q    Type
REMARK                         _______ _______ _______ _____ _____    ______ ____
ROOT
ATOM      1  O   UNL     1      31.413  -8.549 -23.951  0.00  0.00    -0.274 OA
ATOM      2  O   UNL     1      33.348  -6.987 -19.839  0.00  0.00    -0.274 OA
ATOM      3  O   UNL     1      30.016  -4.665 -21.961  0.00  0.00    -0.252 OA
ATOM      4  N   UNL     1      30.738  -6.617 -22.928  0.00  0.00    -0.239 N 
ATOM      5  N   UNL     1      31.683  -5.854 -20.924  0.00  0.00    -0.239 N 
ATOM      6  C   UNL     1      32.498  -7.976 -21.871  0.00  0.00    +0.153 C 
ATOM      7  C   UNL     1      31.519  -7.757 -23.012  0.00  0.00    +0.240 C 
ATOM      8  C   UNL     1      32.567  -6.910 -20.789  0.00  0.00    +0.240 C 
ATOM      9  C   UNL     1      30.761  -5.646 -21.939  0.00  0.00    +0.312 C 
ATOM     10  H   UNL     1      30.089  -6.481 -23.656  0.00  0.00    +0.159 HD
ATOM     11  H   UNL     1      31.713  -5.169 -20.217  0.00  0.00    +0.159 HD
ENDROOT
BRANCH   6  12
ATOM     12  C   UNL     1      32.042  -9.233 -21.185  0.00  0.00    -0.033 C 
ATOM     13  C   UNL     1      31.981 -10.473 -22.040  0.00  0.00    +0.023 C 
ATOM     14  C   UNL     1      31.212 -11.628 -21.393  0.00  0.00    +0.005 C 
ATOM     15  C   UNL     1      31.575 -11.776 -19.921  0.00  0.00    +0.005 C 
ATOM     16  C   UNL     1      31.282 -10.489 -19.150  0.00  0.00    +0.025 C 
ATOM     17  C   UNL     1      31.708  -9.250 -19.883  0.00  0.00    -0.034 C 
ENDBRANCH   6  12
BRANCH   6  18
ATOM     18  C   UNL     1      33.904  -8.154 -22.460  0.00  0.00    +0.021 C 
ATOM     19  C   UNL     1      34.176  -7.127 -23.537  0.00  0.00    +0.001 C 
ENDBRANCH   6  18
TORSDOF 2
ENDMDL
MODEL 5
REMARK VINA RESULT:      -7.6      1.958      2.847
REMARK  Name = 5838
REMARK  2 active torsions:
REMARK  status: ('A' for Active; 'I' for Inactive)
REMARK    1  A    between atoms: C_6  and  C_12
REMARK    2  A    between atoms: C_6  and  C_18
REMARK                            x       y       z     vdW  Elec       q    Type
REMARK                         _______ _______ _______ _____ _____    ______ ____
ROOT
ATOM      1  O   UNL     1      36.234 -25.804 -11.888  0.00  0.00    -0.274 OA
ATOM      2  O   UNL     1      37.699 -22.606 -15.162  0.00  0.00    -0.274 OA
ATOM      3  O   UNL     1      39.586 -26.770 -14.859  0.00  0.00    -0.252 OA
ATOM      4  N   UNL     1      37.901 -26.254 -13.388  0.00  0.00    -0.239 N 
ATOM      5  N   UNL     1      38.618 -24.693 -14.984  0.00  0.00    -0.239 N 
ATOM      6  C   UNL     1      36.781 -24.063 -13.468  0.00  0.00    +0.153 C 
ATOM      7  C   UNL     1      36.935 -25.434 -12.832  0.00  0.00    +0.240 C 
ATOM      8  C   UNL     1      37.728 -23.704 -14.602  0.00  0.00    +0.240 C 
ATOM      9  C   UNL     1      38.757 -25.961 -14.440  0.00  0.00    +0.312 C 
ATOM     10  H   UNL     1      37.991 -27.150 -12.991  0.00  0.00    +0.159 HD
ATOM     11  H   UNL     1      39.222 -24.471 -15.728  0.00  0.00    +0.159 HD
ENDROOT
BRANCH   6  12
ATOM     12  C   UNL     1      35.401 -24.046 -14.063  0.00  0.00    -0.033 C 
ATOM     13  C   UNL     1      34.255 -24.043 -13.082  0.00  0.00    +0.023 C 
ATOM     14  C   UNL     1      32.899 -24.354 -13.722  0.00  0.00    +0.005 C 
ATOM     15  C   UNL     1      32.729 -23.613 -15.043  0.00  0.00    +0.005 C 
ATOM     16  C   UNL     1      33.840 -23.981 -16.026  0.00  0.00    +0.025 C 
ATOM     17  C   UNL     1      35.200 -24.034 -15.392  0.00  0.00    -0.034 C 
ENDBRANCH   6  12
BRANCH   6  18
ATOM     18  C   UNL     1      36.918 -22.997 -12.373  0.00  0.00    +0.021 C 
ATOM     19  C   UNL     1      38.290 -23.043 -11.738  0.00  0.00    +0.001 C 
ENDBRANCH   6  18
TORSDOF 2
ENDMDL
MODEL 6
REMARK VINA RESULT:      -7.4      1.656      2.683
REMARK  Name = 5838
REMARK  2 active torsions:
REMARK  status: ('A' for Active; 'I' for Inactive)
REMARK    1  A    between atoms: C_6  and  C_12
REMARK    2  A    between atoms: C_6  and  C_18
REMARK                            x       y       z     vdW  Elec       q    Type
REMARK                         _______ _______ _______ _____ _____    ______ ____
ROOT
ATOM      1  O   UNL     1      38.825 -24.365 -14.748  0.00  0.00    -0.274 OA
ATOM      2  O   UNL     1      34.105 -24.122 -13.878  0.00  0.00    -0.274 OA
ATOM      3  O   UNL     1      37.193 -22.762 -10.778  0.00  0.00    -0.252 OA
ATOM      4  N   UNL     1      37.975 -23.567 -12.780  0.00  0.00    -0.239 N 
ATOM      5  N   UNL     1      35.673 -23.451 -12.354  0.00  0.00    -0.239 N 
ATOM      6  C   UNL     1      36.420 -24.299 -14.543  0.00  0.00    +0.153 C 
ATOM      7  C   UNL     1      37.843 -24.094 -14.053  0.00  0.00    +0.240 C 
ATOM      8  C   UNL     1      35.291 -23.964 -13.581  0.00  0.00    +0.240 C 
ATOM      9  C   UNL     1      36.962 -23.227 -11.896  0.00  0.00    +0.312 C 
ATOM     10  H   UNL     1      38.896 -23.416 -12.466  0.00  0.00    +0.159 HD
ATOM     11  H   UNL     1      34.945 -23.219 -11.734  0.00  0.00    +0.159 HD
ENDROOT
BRANCH   6  12
ATOM     12  C   UNL     1      36.258 -23.366 -15.711  0.00  0.00    -0.033 C 
ATOM     13  C   UNL     1      37.431 -22.468 -16.012  0.00  0.00    +0.023 C 
ATOM     14  C   UNL     1      37.099 -21.330 -16.981  0.00  0.00    +0.005 C 
ATOM     15  C   UNL     1      36.246 -21.826 -18.142  0.00  0.00    +0.005 C 
ATOM     16  C   UNL     1      34.943 -22.448 -17.640  0.00  0.00    +0.025 C 
ATOM     17  C   UNL     1      35.132 -23.337 -16.445  0.00  0.00    -0.034 C 
ENDBRANCH   6  12
BRANCH   6  18
ATOM     18  C   UNL     1      36.259 -25.760 -14.983  0.00  0.00    +0.021 C 
ATOM     19  C   UNL     1      36.876 -26.703 -13.973  0.00  0.00    +0.001 C 
ENDBRANCH   6  18
TORSDOF 2
ENDMDL
MODEL 7
REMARK VINA RESULT:      -7.3     17.479     19.607
REMARK  Name = 5838
REMARK  2 active torsions:
REMARK  status: ('A' for Active; 'I' for Inactive)
REMARK    1  A    between atoms: C_6  and  C_12
REMARK    2  A    between atoms: C_6  and  C_18
REMARK                            x       y       z     vdW  Elec       q    Type
REMARK                         _______ _______ _______ _____ _____    ______ ____
ROOT
ATOM      1  O   UNL     1      30.652  -8.253 -23.305  0.00  0.00    -0.274 OA
ATOM      2  O   UNL     1      35.333  -7.179 -23.162  0.00  0.00    -0.274 OA
ATOM      3  O   UNL     1      33.852 -11.292 -24.534  0.00  0.00    -0.252 OA
ATOM      4  N   UNL     1      32.275  -9.744 -23.915  0.00  0.00    -0.239 N 
ATOM      5  N   UNL     1      34.559  -9.222 -23.842  0.00  0.00    -0.239 N 
ATOM      6  C   UNL     1      32.938  -7.486 -23.190  0.00  0.00    +0.153 C 
ATOM      7  C   UNL     1      31.847  -8.508 -23.462  0.00  0.00    +0.240 C 
ATOM      8  C   UNL     1      34.380  -7.928 -23.383  0.00  0.00    +0.240 C 
ATOM      9  C   UNL     1      33.581 -10.162 -24.126  0.00  0.00    +0.312 C 
ATOM     10  H   UNL     1      31.571 -10.403 -24.109  0.00  0.00    +0.159 HD
ATOM     11  H   UNL     1      35.491  -9.507 -23.984  0.00  0.00    +0.159 HD
ENDROOT
BRANCH   6  12
ATOM     12  C   UNL     1      32.709  -6.379 -24.182  0.00  0.00    -0.033 C 
ATOM     13  C   UNL     1      31.615  -5.399 -23.842  0.00  0.00    +0.023 C 
ATOM     14  C   UNL     1      31.208  -4.504 -25.016  0.00  0.00    +0.005 C 
ATOM     15  C   UNL     1      32.429  -3.998 -25.774  0.00  0.00    +0.005 C 
ATOM     16  C   UNL     1      33.268  -5.161 -26.302  0.00  0.00    +0.025 C 
ATOM     17  C   UNL     1      33.440  -6.270 -25.305  0.00  0.00    -0.034 C 
ENDBRANCH   6  12
BRANCH   6  18
ATOM     18  C   UNL     1      32.781  -6.974 -21.752  0.00  0.00    +0.021 C 
ATOM     19  C   UNL     1      32.812  -8.116 -20.762  0.00  0.00    +0.001 C 
ENDBRANCH   6  18
TORSDOF 2
ENDMDL
MODEL 8
REMARK VINA RESULT:      -7.2      7.571      9.869
REMARK  Name = 5838
REMARK  2 active torsions:
REMARK  status: ('A' for Active; 'I' for Inactive)
REMARK    1  A    between atoms: C_6  and  C_12
REMARK    2  A    between atoms: C_6  and  C_18
REMARK                            x       y       z     vdW  Elec       q    Type
REMARK                         _______ _______ _______ _____ _____    ______ ____
ROOT
ATOM      1  O   UNL     1      37.262 -18.078 -22.649  0.00  0.00    -0.274 OA
ATOM      2  O   UNL     1      32.770 -19.221 -21.381  0.00  0.00    -0.274 OA
ATOM      3  O   UNL     1      36.399 -20.884 -19.132  0.00  0.00    -0.252 OA
ATOM      4  N   UNL     1      36.795 -19.472 -20.897  0.00  0.00    -0.239 N 
ATOM      5  N   UNL     1      34.604 -20.032 -20.280  0.00  0.00    -0.239 N 
ATOM      6  C   UNL     1      34.931 -18.484 -22.167  0.00  0.00    +0.153 C 
ATOM      7  C   UNL     1      36.425 -18.650 -21.947  0.00  0.00    +0.240 C 
ATOM      8  C   UNL     1      33.996 -19.270 -21.262  0.00  0.00    +0.240 C 
ATOM      9  C   UNL     1      35.962 -20.176 -20.040  0.00  0.00    +0.312 C 
ATOM     10  H   UNL     1      37.762 -19.568 -20.740  0.00  0.00    +0.159 HD
ATOM     11  H   UNL     1      34.001 -20.530 -19.681  0.00  0.00    +0.159 HD
ENDROOT
BRANCH   6  12
ATOM     12  C   UNL     1      34.643 -17.033 -21.898  0.00  0.00    -0.033 C 
ATOM     13  C   UNL     1      34.250 -16.201 -23.093  0.00  0.00    +0.023 C 
ATOM     14  C   UNL     1      34.289 -14.693 -22.831  0.00  0.00    +0.005 C 
ATOM     15  C   UNL     1      33.680 -14.354 -21.475  0.00  0.00    +0.005 C 
ATOM     16  C   UNL     1      34.416 -15.075 -20.346  0.00  0.00    +0.025 C 
ATOM     17  C   UNL     1      34.730 -16.508 -20.664  0.00  0.00    -0.034 C 
ENDBRANCH   6  12
BRANCH   6  18
ATOM     18  C   UNL     1      34.608 -18.845 -23.623  0.00  0.00    +0.021 C 
ATOM     19  C   UNL     1      35.228 -20.171 -24.004  0.00  0.00    +0.001 C 
ENDBRANCH   6  18
TORSDOF 2
ENDMDL
MODEL 9
REMARK VINA RESULT:      -7.1      2.385      4.013
REMARK  Name = 5838
REMARK  2 active torsions:
REMARK  status: ('A' for Active; 'I' for Inactive)
REMARK    1  A    between atoms: C_6  and  C_12
REMARK    2  A    between atoms: C_6  and  C_18
REMARK                            x       y       z     vdW  Elec       q    Type
REMARK                         _______ _______ _______ _____ _____    ______ ____
ROOT
ATOM      1  O   UNL     1      35.425 -25.402 -14.328  0.00  0.00    -0.274 OA
ATOM      2  O   UNL     1      38.130 -22.051 -12.196  0.00  0.00    -0.274 OA
ATOM      3  O   UNL     1      35.249 -24.692  -9.805  0.00  0.00    -0.252 OA
ATOM      4  N   UNL     1      35.365 -25.023 -12.073  0.00  0.00    -0.239 N 
ATOM      5  N   UNL     1      36.683 -23.387 -11.033  0.00  0.00    -0.239 N 
ATOM      6  C   UNL     1      36.898 -23.693 -13.467  0.00  0.00    +0.153 C 
ATOM      7  C   UNL     1      35.836 -24.773 -13.350  0.00  0.00    +0.240 C 
ATOM      8  C   UNL     1      37.297 -22.960 -12.197  0.00  0.00    +0.240 C 
ATOM      9  C   UNL     1      35.734 -24.389 -10.896  0.00  0.00    +0.312 C 
ATOM     10  H   UNL     1      34.691 -25.735 -11.990  0.00  0.00    +0.159 HD
ATOM     11  H   UNL     1      36.950 -22.925 -10.206  0.00  0.00    +0.159 HD
ENDROOT
BRANCH   6  12
ATOM     12  C   UNL     1      38.138 -24.397 -13.945  0.00  0.00    -0.033 C 
ATOM     13  C   UNL     1      38.725 -25.419 -13.004  0.00  0.00    +0.023 C 
ATOM     14  C   UNL     1      40.141 -25.860 -13.384  0.00  0.00    +0.005 C 
ATOM     15  C   UNL     1      40.261 -26.097 -14.885  0.00  0.00    +0.005 C 
ATOM     16  C   UNL     1      39.904 -24.835 -15.671  0.00  0.00    +0.025 C 
ATOM     17  C   UNL     1      38.689 -24.131 -15.141  0.00  0.00    -0.034 C 
ENDBRANCH   6  12
BRANCH   6  18
ATOM     18  C   UNL     1      36.428 -22.655 -14.495  0.00  0.00    +0.021 C 
ATOM     19  C   UNL     1      34.952 -22.808 -14.786  0.00  0.00    +0.001 C 
ENDBRANCH   6  18
TORSDOF 2
ENDMDL
