MODEL 1
REMARK VINA RESULT:      -5.3      0.000      0.000
REMARK  Name = 7211
REMARK  7 active torsions:
REMARK  status: ('A' for Active; 'I' for Inactive)
REMARK    1  A    between atoms: C_1  and  C_2
REMARK    2  A    between atoms: C_1  and  C_4
REMARK    3  A    between atoms: C_1  and  C_10
REMARK    4  A    between atoms: C_4  and  O_5
REMARK    5  A    between atoms: C_4  and  C_7
REMARK    6  A    between atoms: C_7  and  C_8
REMARK    7  A    between atoms: C_10  and  O_11
REMARK                            x       y       z     vdW  Elec       q    Type
REMARK                         _______ _______ _______ _____ _____    ______ ____
ROOT
ATOM      1  C   UNL     1      34.879 -18.933 -21.161  0.00  0.00    +0.056 C 
ENDROOT
BRANCH   1   2
ATOM      2  C   UNL     1      33.374 -19.296 -21.141  0.00  0.00    +0.005 C 
ATOM      3  C   UNL     1      33.032 -20.457 -20.218  0.00  0.00    +0.000 C 
ENDBRANCH   1   2
BRANCH   1   4
ATOM      4  C   UNL     1      35.339 -18.414 -22.551  0.00  0.00    +0.113 C 
BRANCH   4   5
ATOM      5  O   UNL     1      36.747 -18.188 -22.570  0.00  0.00    -0.384 OA
ATOM      6  H   UNL     1      37.175 -18.763 -21.916  0.00  0.00    +0.210 HD
ENDBRANCH   4   5
BRANCH   4   7
ATOM      7  C   UNL     1      34.954 -19.346 -23.712  0.00  0.00    +0.029 C 
BRANCH   7   8
ATOM      8  C   UNL     1      34.266 -18.635 -24.886  0.00  0.00    +0.002 C 
ATOM      9  C   UNL     1      34.684 -17.181 -25.046  0.00  0.00    +0.000 C 
ENDBRANCH   7   8
ENDBRANCH   4   7
ENDBRANCH   1   4
BRANCH   1  10
ATOM     10  C   UNL     1      35.691 -20.141 -20.653  0.00  0.00    +0.139 C 
BRANCH  10  11
ATOM     11  O   UNL     1      36.844 -19.724 -19.937  0.00  0.00    -0.382 OA
ATOM     12  H   UNL     1      36.743 -18.795 -19.673  0.00  0.00    +0.210 HD
ENDBRANCH  10  11
ENDBRANCH   1  10
TORSDOF 7
ENDMDL
MODEL 2
REMARK VINA RESULT:      -5.3      1.438      4.114
REMARK  Name = 7211
REMARK  7 active torsions:
REMARK  status: ('A' for Active; 'I' for Inactive)
REMARK    1  A    between atoms: C_1  and  C_2
REMARK    2  A    between atoms: C_1  and  C_4
REMARK    3  A    between atoms: C_1  and  C_10
REMARK    4  A    between atoms: C_4  and  O_5
REMARK    5  A    between atoms: C_4  and  C_7
REMARK    6  A    between atoms: C_7  and  C_8
REMARK    7  A    between atoms: C_10  and  O_11
REMARK                            x       y       z     vdW  Elec       q    Type
REMARK                         _______ _______ _______ _____ _____    ______ ____
ROOT
ATOM      1  C   UNL     1      35.395 -18.200 -22.916  0.00  0.00    +0.056 C 
ENDROOT
BRANCH   1   2
ATOM      2  C   UNL     1      34.940 -19.365 -23.829  0.00  0.00    +0.005 C 
ATOM      3  C   UNL     1      34.223 -18.914 -25.093  0.00  0.00    +0.000 C 
ENDBRANCH   1   2
BRANCH   1   4
ATOM      4  C   UNL     1      35.183 -18.517 -21.410  0.00  0.00    +0.113 C 
BRANCH   4   5
ATOM      5  O   UNL     1      35.321 -17.340 -20.617  0.00  0.00    -0.384 OA
ATOM      6  H   UNL     1      35.258 -17.574 -19.678  0.00  0.00    +0.210 HD
ENDBRANCH   4   5
BRANCH   4   7
ATOM      7  C   UNL     1      33.830 -19.183 -21.108  0.00  0.00    +0.029 C 
BRANCH   7   8
ATOM      8  C   UNL     1      33.934 -20.456 -20.257  0.00  0.00    +0.002 C 
ATOM      9  C   UNL     1      35.364 -20.921 -20.029  0.00  0.00    +0.000 C 
ENDBRANCH   7   8
ENDBRANCH   4   7
ENDBRANCH   1   4
BRANCH   1  10
ATOM     10  C   UNL     1      34.701 -16.903 -23.378  0.00  0.00    +0.139 C 
BRANCH  10  11
ATOM     11  O   UNL     1      35.606 -15.809 -23.389  0.00  0.00    -0.382 OA
ATOM     12  H   UNL     1      35.699 -15.475 -24.295  0.00  0.00    +0.210 HD
ENDBRANCH  10  11
ENDBRANCH   1  10
TORSDOF 7
ENDMDL
MODEL 3
REMARK VINA RESULT:      -5.2      1.941      4.087
REMARK  Name = 7211
REMARK  7 active torsions:
REMARK  status: ('A' for Active; 'I' for Inactive)
REMARK    1  A    between atoms: C_1  and  C_2
REMARK    2  A    between atoms: C_1  and  C_4
REMARK    3  A    between atoms: C_1  and  C_10
REMARK    4  A    between atoms: C_4  and  O_5
REMARK    5  A    between atoms: C_4  and  C_7
REMARK    6  A    between atoms: C_7  and  C_8
REMARK    7  A    between atoms: C_10  and  O_11
REMARK                            x       y       z     vdW  Elec       q    Type
REMARK                         _______ _______ _______ _____ _____    ______ ____
ROOT
ATOM      1  C   UNL     1      34.350 -17.141 -22.124  0.00  0.00    +0.056 C 
ENDROOT
BRANCH   1   2
ATOM      2  C   UNL     1      34.891 -16.396 -20.879  0.00  0.00    +0.005 C 
ATOM      3  C   UNL     1      34.184 -15.078 -20.595  0.00  0.00    +0.000 C 
ENDBRANCH   1   2
BRANCH   1   4
ATOM      4  C   UNL     1      35.100 -18.477 -22.381  0.00  0.00    +0.113 C 
BRANCH   4   5
ATOM      5  O   UNL     1      36.495 -18.249 -22.575  0.00  0.00    -0.384 OA
ATOM      6  H   UNL     1      36.874 -18.983 -23.085  0.00  0.00    +0.210 HD
ENDBRANCH   4   5
BRANCH   4   7
ATOM      7  C   UNL     1      34.902 -19.515 -21.264  0.00  0.00    +0.029 C 
BRANCH   7   8
ATOM      8  C   UNL     1      33.433 -19.800 -20.926  0.00  0.00    +0.002 C 
ATOM      9  C   UNL     1      33.250 -20.859 -19.849  0.00  0.00    +0.000 C 
ENDBRANCH   7   8
ENDBRANCH   4   7
ENDBRANCH   1   4
BRANCH   1  10
ATOM     10  C   UNL     1      34.370 -16.180 -23.330  0.00  0.00    +0.139 C 
BRANCH  10  11
ATOM     11  O   UNL     1      35.691 -15.978 -23.809  0.00  0.00    -0.382 OA
ATOM     12  H   UNL     1      36.289 -16.615 -23.386  0.00  0.00    +0.210 HD
ENDBRANCH  10  11
ENDBRANCH   1  10
TORSDOF 7
ENDMDL
MODEL 4
REMARK VINA RESULT:      -5.0      1.902      2.662
REMARK  Name = 7211
REMARK  7 active torsions:
REMARK  status: ('A' for Active; 'I' for Inactive)
REMARK    1  A    between atoms: C_1  and  C_2
REMARK    2  A    between atoms: C_1  and  C_4
REMARK    3  A    between atoms: C_1  and  C_10
REMARK    4  A    between atoms: C_4  and  O_5
REMARK    5  A    between atoms: C_4  and  C_7
REMARK    6  A    between atoms: C_7  and  C_8
REMARK    7  A    between atoms: C_10  and  O_11
REMARK                            x       y       z     vdW  Elec       q    Type
REMARK                         _______ _______ _______ _____ _____    ______ ____
ROOT
ATOM      1  C   UNL     1      35.009 -20.764 -20.506  0.00  0.00    +0.056 C 
ENDROOT
BRANCH   1   2
ATOM      2  C   UNL     1      36.378 -20.861 -19.790  0.00  0.00    +0.005 C 
ATOM      3  C   UNL     1      36.340 -21.654 -18.492  0.00  0.00    +0.000 C 
ENDBRANCH   1   2
BRANCH   1   4
ATOM      4  C   UNL     1      34.718 -19.329 -21.025  0.00  0.00    +0.113 C 
BRANCH   4   5
ATOM      5  O   UNL     1      35.766 -18.433 -20.659  0.00  0.00    -0.384 OA
ATOM      6  H   UNL     1      35.794 -17.694 -21.288  0.00  0.00    +0.210 HD
ENDBRANCH   4   5
BRANCH   4   7
ATOM      7  C   UNL     1      34.493 -19.260 -22.545  0.00  0.00    +0.029 C 
BRANCH   7   8
ATOM      8  C   UNL     1      35.533 -18.417 -23.295  0.00  0.00    +0.002 C 
ATOM      9  C   UNL     1      34.934 -17.541 -24.385  0.00  0.00    +0.000 C 
ENDBRANCH   7   8
ENDBRANCH   4   7
ENDBRANCH   1   4
BRANCH   1  10
ATOM     10  C   UNL     1      33.915 -21.316 -19.570  0.00  0.00    +0.139 C 
BRANCH  10  11
ATOM     11  O   UNL     1      32.693 -20.611 -19.731  0.00  0.00    -0.382 OA
ATOM     12  H   UNL     1      32.845 -19.663 -19.590  0.00  0.00    +0.210 HD
ENDBRANCH  10  11
ENDBRANCH   1  10
TORSDOF 7
ENDMDL
MODEL 5
REMARK VINA RESULT:      -5.0      2.496      3.915
REMARK  Name = 7211
REMARK  7 active torsions:
REMARK  status: ('A' for Active; 'I' for Inactive)
REMARK    1  A    between atoms: C_1  and  C_2
REMARK    2  A    between atoms: C_1  and  C_4
REMARK    3  A    between atoms: C_1  and  C_10
REMARK    4  A    between atoms: C_4  and  O_5
REMARK    5  A    between atoms: C_4  and  C_7
REMARK    6  A    between atoms: C_7  and  C_8
REMARK    7  A    between atoms: C_10  and  O_11
REMARK                            x       y       z     vdW  Elec       q    Type
REMARK                         _______ _______ _______ _____ _____    ______ ____
ROOT
ATOM      1  C   UNL     1      35.249 -18.410 -23.288  0.00  0.00    +0.056 C 
ENDROOT
BRANCH   1   2
ATOM      2  C   UNL     1      34.839 -19.445 -22.212  0.00  0.00    +0.005 C 
ATOM      3  C   UNL     1      35.779 -19.495 -21.016  0.00  0.00    +0.000 C 
ENDBRANCH   1   2
BRANCH   1   4
ATOM      4  C   UNL     1      35.333 -16.969 -22.714  0.00  0.00    +0.113 C 
BRANCH   4   5
ATOM      5  O   UNL     1      35.752 -16.045 -23.716  0.00  0.00    -0.384 OA
ATOM      6  H   UNL     1      36.680 -16.214 -23.944  0.00  0.00    +0.210 HD
ENDBRANCH   4   5
BRANCH   4   7
ATOM      7  C   UNL     1      34.016 -16.481 -22.087  0.00  0.00    +0.029 C 
BRANCH   7   8
ATOM      8  C   UNL     1      34.203 -15.573 -20.865  0.00  0.00    +0.002 C 
ATOM      9  C   UNL     1      32.909 -14.940 -20.373  0.00  0.00    +0.000 C 
ENDBRANCH   7   8
ENDBRANCH   4   7
ENDBRANCH   1   4
BRANCH   1  10
ATOM     10  C   UNL     1      34.301 -18.540 -24.496  0.00  0.00    +0.139 C 
BRANCH  10  11
ATOM     11  O   UNL     1      34.717 -17.713 -25.572  0.00  0.00    -0.382 OA
ATOM     12  H   UNL     1      33.938 -17.388 -26.051  0.00  0.00    +0.210 HD
ENDBRANCH  10  11
ENDBRANCH   1  10
TORSDOF 7
ENDMDL
MODEL 6
REMARK VINA RESULT:      -5.0      2.971      4.501
REMARK  Name = 7211
REMARK  7 active torsions:
REMARK  status: ('A' for Active; 'I' for Inactive)
REMARK    1  A    between atoms: C_1  and  C_2
REMARK    2  A    between atoms: C_1  and  C_4
REMARK    3  A    between atoms: C_1  and  C_10
REMARK    4  A    between atoms: C_4  and  O_5
REMARK    5  A    between atoms: C_4  and  C_7
REMARK    6  A    between atoms: C_7  and  C_8
REMARK    7  A    between atoms: C_10  and  O_11
REMARK                            x       y       z     vdW  Elec       q    Type
REMARK                         _______ _______ _______ _____ _____    ______ ____
ROOT
ATOM      1  C   UNL     1      33.731 -15.901 -22.384  0.00  0.00    +0.056 C 
ENDROOT
BRANCH   1   2
ATOM      2  C   UNL     1      33.998 -15.300 -20.983  0.00  0.00    +0.005 C 
ATOM      3  C   UNL     1      32.735 -14.887 -20.239  0.00  0.00    +0.000 C 
ENDBRANCH   1   2
BRANCH   1   4
ATOM      4  C   UNL     1      34.799 -16.957 -22.783  0.00  0.00    +0.113 C 
BRANCH   4   5
ATOM      5  O   UNL     1      35.854 -16.356 -23.531  0.00  0.00    -0.384 OA
ATOM      6  H   UNL     1      35.836 -16.692 -24.441  0.00  0.00    +0.210 HD
ENDBRANCH   4   5
BRANCH   4   7
ATOM      7  C   UNL     1      35.390 -17.715 -21.582  0.00  0.00    +0.029 C 
BRANCH   7   8
ATOM      8  C   UNL     1      35.012 -19.201 -21.531  0.00  0.00    +0.002 C 
ATOM      9  C   UNL     1      33.623 -19.457 -20.967  0.00  0.00    +0.000 C 
ENDBRANCH   7   8
ENDBRANCH   4   7
ENDBRANCH   1   4
BRANCH   1  10
ATOM     10  C   UNL     1      33.587 -14.753 -23.402  0.00  0.00    +0.139 C 
BRANCH  10  11
ATOM     11  O   UNL     1      34.485 -13.691 -23.115  0.00  0.00    -0.382 OA
ATOM     12  H   UNL     1      34.698 -13.695 -22.168  0.00  0.00    +0.210 HD
ENDBRANCH  10  11
ENDBRANCH   1  10
TORSDOF 7
ENDMDL
MODEL 7
REMARK VINA RESULT:      -5.0      2.758      3.935
REMARK  Name = 7211
REMARK  7 active torsions:
REMARK  status: ('A' for Active; 'I' for Inactive)
REMARK    1  A    between atoms: C_1  and  C_2
REMARK    2  A    between atoms: C_1  and  C_4
REMARK    3  A    between atoms: C_1  and  C_10
REMARK    4  A    between atoms: C_4  and  O_5
REMARK    5  A    between atoms: C_4  and  C_7
REMARK    6  A    between atoms: C_7  and  C_8
REMARK    7  A    between atoms: C_10  and  O_11
REMARK                            x       y       z     vdW  Elec       q    Type
REMARK                         _______ _______ _______ _____ _____    ______ ____
ROOT
ATOM      1  C   UNL     1      34.649 -21.832 -19.747  0.00  0.00    +0.056 C 
ENDROOT
BRANCH   1   2
ATOM      2  C   UNL     1      36.014 -21.162 -19.456  0.00  0.00    +0.005 C 
ATOM      3  C   UNL     1      36.650 -21.605 -18.145  0.00  0.00    +0.000 C 
ENDBRANCH   1   2
BRANCH   1   4
ATOM      4  C   UNL     1      33.632 -20.840 -20.376  0.00  0.00    +0.113 C 
BRANCH   4   5
ATOM      5  O   UNL     1      32.538 -20.604 -19.492  0.00  0.00    -0.384 OA
ATOM      6  H   UNL     1      32.460 -21.344 -18.869  0.00  0.00    +0.210 HD
ENDBRANCH   4   5
BRANCH   4   7
ATOM      7  C   UNL     1      34.258 -19.496 -20.785  0.00  0.00    +0.029 C 
BRANCH   7   8
ATOM      8  C   UNL     1      34.489 -19.346 -22.294  0.00  0.00    +0.002 C 
ATOM      9  C   UNL     1      35.673 -18.457 -22.644  0.00  0.00    +0.000 C 
ENDBRANCH   7   8
ENDBRANCH   4   7
ENDBRANCH   1   4
BRANCH   1  10
ATOM     10  C   UNL     1      34.138 -22.508 -18.459  0.00  0.00    +0.139 C 
BRANCH  10  11
ATOM     11  O   UNL     1      33.708 -23.838 -18.710  0.00  0.00    -0.382 OA
ATOM     12  H   UNL     1      33.095 -24.117 -18.011  0.00  0.00    +0.210 HD
ENDBRANCH  10  11
ENDBRANCH   1  10
TORSDOF 7
ENDMDL
MODEL 8
REMARK VINA RESULT:      -5.0     10.812     12.309
REMARK  Name = 7211
REMARK  7 active torsions:
REMARK  status: ('A' for Active; 'I' for Inactive)
REMARK    1  A    between atoms: C_1  and  C_2
REMARK    2  A    between atoms: C_1  and  C_4
REMARK    3  A    between atoms: C_1  and  C_10
REMARK    4  A    between atoms: C_4  and  O_5
REMARK    5  A    between atoms: C_4  and  C_7
REMARK    6  A    between atoms: C_7  and  C_8
REMARK    7  A    between atoms: C_10  and  O_11
REMARK                            x       y       z     vdW  Elec       q    Type
REMARK                         _______ _______ _______ _____ _____    ______ ____
ROOT
ATOM      1  C   UNL     1      32.738  -6.773 -21.958  0.00  0.00    +0.056 C 
ENDROOT
BRANCH   1   2
ATOM      2  C   UNL     1      33.230  -7.248 -23.347  0.00  0.00    +0.005 C 
ATOM      3  C   UNL     1      34.712  -7.594 -23.389  0.00  0.00    +0.000 C 
ENDBRANCH   1   2
BRANCH   1   4
ATOM      4  C   UNL     1      33.025  -7.818 -20.845  0.00  0.00    +0.113 C 
BRANCH   4   5
ATOM      5  O   UNL     1      33.044  -7.202 -19.559  0.00  0.00    -0.384 OA
ATOM      6  H   UNL     1      32.149  -6.902 -19.332  0.00  0.00    +0.210 HD
ENDBRANCH   4   5
BRANCH   4   7
ATOM      7  C   UNL     1      32.033  -8.993 -20.835  0.00  0.00    +0.029 C 
BRANCH   7   8
ATOM      8  C   UNL     1      31.899  -9.690 -19.475  0.00  0.00    +0.002 C 
ATOM      9  C   UNL     1      31.375 -11.115 -19.570  0.00  0.00    +0.000 C 
ENDBRANCH   7   8
ENDBRANCH   4   7
ENDBRANCH   1   4
BRANCH   1  10
ATOM     10  C   UNL     1      31.252  -6.375 -22.063  0.00  0.00    +0.139 C 
BRANCH  10  11
ATOM     11  O   UNL     1      30.909  -5.398 -21.091  0.00  0.00    -0.382 OA
ATOM     12  H   UNL     1      31.266  -4.536 -21.358  0.00  0.00    +0.210 HD
ENDBRANCH  10  11
ENDBRANCH   1  10
TORSDOF 7
ENDMDL
MODEL 9
REMARK VINA RESULT:      -4.9      1.792      2.454
REMARK  Name = 7211
REMARK  7 active torsions:
REMARK  status: ('A' for Active; 'I' for Inactive)
REMARK    1  A    between atoms: C_1  and  C_2
REMARK    2  A    between atoms: C_1  and  C_4
REMARK    3  A    between atoms: C_1  and  C_10
REMARK    4  A    between atoms: C_4  and  O_5
REMARK    5  A    between atoms: C_4  and  C_7
REMARK    6  A    between atoms: C_7  and  C_8
REMARK    7  A    between atoms: C_10  and  O_11
REMARK                            x       y       z     vdW  Elec       q    Type
REMARK                         _______ _______ _______ _____ _____    ______ ____
ROOT
ATOM      1  C   UNL     1      34.739 -19.159 -20.952  0.00  0.00    +0.056 C 
ENDROOT
BRANCH   1   2
ATOM      2  C   UNL     1      33.296 -19.720 -20.960  0.00  0.00    +0.005 C 
ATOM      3  C   UNL     1      33.036 -20.766 -19.885  0.00  0.00    +0.000 C 
ENDBRANCH   1   2
BRANCH   1   4
ATOM      4  C   UNL     1      35.100 -18.451 -22.287  0.00  0.00    +0.113 C 
BRANCH   4   5
ATOM      5  O   UNL     1      34.470 -19.096 -23.392  0.00  0.00    -0.384 OA
ATOM      6  H   UNL     1      35.131 -19.600 -23.892  0.00  0.00    +0.210 HD
ENDBRANCH   4   5
BRANCH   4   7
ATOM      7  C   UNL     1      34.751 -16.954 -22.300  0.00  0.00    +0.029 C 
BRANCH   7   8
ATOM      8  C   UNL     1      34.793 -16.287 -20.919  0.00  0.00    +0.002 C 
ATOM      9  C   UNL     1      33.687 -15.265 -20.702  0.00  0.00    +0.000 C 
ENDBRANCH   7   8
ENDBRANCH   4   7
ENDBRANCH   1   4
BRANCH   1  10
ATOM     10  C   UNL     1      35.713 -20.291 -20.569  0.00  0.00    +0.139 C 
BRANCH  10  11
ATOM     11  O   UNL     1      36.775 -19.807 -19.760  0.00  0.00    -0.382 OA
ATOM     12  H   UNL     1      36.621 -20.062 -18.837  0.00  0.00    +0.210 HD
ENDBRANCH  10  11
ENDBRANCH   1  10
TORSDOF 7
ENDMDL
