MODEL 1
REMARK VINA RESULT:      -8.3      0.000      0.000
REMARK  Name = 11269353
REMARK  8 active torsions:
REMARK  status: ('A' for Active; 'I' for Inactive)
REMARK    1  A    between atoms: C_1  and  N_2
REMARK    2  A    between atoms: C_1  and  C_13
REMARK    3  A    between atoms: C_1  and  C_22
REMARK    4  A    between atoms: N_2  and  S_4
REMARK    5  A    between atoms: S_4  and  C_9
REMARK    6  A    between atoms: C_13  and  C_17
REMARK    7  A    between atoms: C_13  and  C_21
REMARK    8  A    between atoms: C_22  and  O_23
REMARK                            x       y       z     vdW  Elec       q    Type
REMARK                         _______ _______ _______ _____ _____    ______ ____
ROOT
ATOM      1  C   UNL     1      33.957 -16.331 -22.634  0.00  0.00    +0.121 C 
ENDROOT
BRANCH   1   2
ATOM      2  N   UNL     1      34.342 -17.170 -21.465  0.00  0.00    -0.177 NA
ATOM      3  H   UNL     1      35.024 -16.640 -20.921  0.00  0.00    +0.149 HD
BRANCH   2   4
ATOM      4  S   UNL     1      35.022 -18.704 -21.781  0.00  0.00    +0.066 S 
ATOM      5  O   UNL     1      36.410 -18.716 -21.359  0.00  0.00    -0.153 OA
ATOM      6  O   UNL     1      34.637 -19.115 -23.117  0.00  0.00    -0.153 OA
BRANCH   4   9
ATOM      7 CL   UNL     1      34.191 -23.045 -18.102  0.00  0.00    -0.075 Cl
ATOM      8  S   UNL     1      35.243 -20.957 -19.933  0.00  0.00    -0.056 S 
ATOM      9  C   UNL     1      34.189 -19.884 -20.720  0.00  0.00    +0.152 C 
ATOM     10  C   UNL     1      32.880 -20.081 -20.432  0.00  0.00    +0.028 C 
ATOM     11  C   UNL     1      32.716 -21.163 -19.520  0.00  0.00    +0.020 C 
ATOM     12  C   UNL     1      33.921 -21.730 -19.167  0.00  0.00    +0.088 C 
ENDBRANCH   4   9
ENDBRANCH   2   4
ENDBRANCH   1   2
BRANCH   1  13
ATOM     13  C   UNL     1      33.040 -15.164 -22.190  0.00  0.00    +0.208 C 
BRANCH  13  17
ATOM     14  F   UNL     1      34.724 -14.428 -20.660  0.00  0.00    -0.170 F 
ATOM     15  F   UNL     1      32.839 -13.336 -20.687  0.00  0.00    -0.170 F 
ATOM     16  F   UNL     1      32.921 -15.320 -19.813  0.00  0.00    -0.170 F 
ATOM     17  C   UNL     1      33.392 -14.563 -20.828  0.00  0.00    +0.407 C 
ENDBRANCH  13  17
BRANCH  13  21
ATOM     18  F   UNL     1      31.893 -13.292 -23.102  0.00  0.00    -0.170 F 
ATOM     19  F   UNL     1      34.068 -13.257 -23.208  0.00  0.00    -0.170 F 
ATOM     20  F   UNL     1      32.930 -14.599 -24.498  0.00  0.00    -0.170 F 
ATOM     21  C   UNL     1      32.990 -14.067 -23.256  0.00  0.00    +0.407 C 
ENDBRANCH  13  21
ENDBRANCH   1  13
BRANCH   1  22
ATOM     22  C   UNL     1      35.232 -15.877 -23.346  0.00  0.00    +0.155 C 
BRANCH  22  23
ATOM     23  O   UNL     1      35.390 -16.587 -24.571  0.00  0.00    -0.381 OA
ATOM     24  H   UNL     1      36.316 -16.859 -24.671  0.00  0.00    +0.211 HD
ENDBRANCH  22  23
ENDBRANCH   1  22
TORSDOF 8
ENDMDL
MODEL 2
REMARK VINA RESULT:      -8.3      1.713      2.745
REMARK  Name = 11269353
REMARK  8 active torsions:
REMARK  status: ('A' for Active; 'I' for Inactive)
REMARK    1  A    between atoms: C_1  and  N_2
REMARK    2  A    between atoms: C_1  and  C_13
REMARK    3  A    between atoms: C_1  and  C_22
REMARK    4  A    between atoms: N_2  and  S_4
REMARK    5  A    between atoms: S_4  and  C_9
REMARK    6  A    between atoms: C_13  and  C_17
REMARK    7  A    between atoms: C_13  and  C_21
REMARK    8  A    between atoms: C_22  and  O_23
REMARK                            x       y       z     vdW  Elec       q    Type
REMARK                         _______ _______ _______ _____ _____    ______ ____
ROOT
ATOM      1  C   UNL     1      34.592 -16.085 -22.581  0.00  0.00    +0.121 C 
ENDROOT
BRANCH   1   2
ATOM      2  N   UNL     1      34.299 -17.422 -21.995  0.00  0.00    -0.177 NA
ATOM      3  H   UNL     1      34.295 -17.316 -20.980  0.00  0.00    +0.149 HD
BRANCH   2   4
ATOM      4  S   UNL     1      35.365 -18.703 -22.370  0.00  0.00    +0.066 S 
ATOM      5  O   UNL     1      36.733 -18.224 -22.321  0.00  0.00    -0.153 OA
ATOM      6  O   UNL     1      34.854 -19.406 -23.530  0.00  0.00    -0.153 OA
BRANCH   4   9
ATOM      7 CL   UNL     1      33.052 -22.244 -18.474  0.00  0.00    -0.075 Cl
ATOM      8  S   UNL     1      33.631 -20.282 -20.627  0.00  0.00    -0.056 S 
ATOM      9  C   UNL     1      35.232 -19.910 -21.052  0.00  0.00    +0.152 C 
ATOM     10  C   UNL     1      36.166 -20.575 -20.331  0.00  0.00    +0.028 C 
ATOM     11  C   UNL     1      35.554 -21.439 -19.378  0.00  0.00    +0.020 C 
ATOM     12  C   UNL     1      34.179 -21.378 -19.431  0.00  0.00    +0.088 C 
ENDBRANCH   4   9
ENDBRANCH   2   4
ENDBRANCH   1   2
BRANCH   1  13
ATOM     13  C   UNL     1      33.607 -15.766 -23.734  0.00  0.00    +0.208 C 
BRANCH  13  17
ATOM     14  F   UNL     1      34.298 -13.487 -23.940  0.00  0.00    -0.170 F 
ATOM     15  F   UNL     1      32.460 -14.078 -24.948  0.00  0.00    -0.170 F 
ATOM     16  F   UNL     1      32.489 -13.884 -22.787  0.00  0.00    -0.170 F 
ATOM     17  C   UNL     1      33.219 -14.292 -23.848  0.00  0.00    +0.407 C 
ENDBRANCH  13  17
BRANCH  13  21
ATOM     18  F   UNL     1      33.520 -17.424 -25.436  0.00  0.00    -0.170 F 
ATOM     19  F   UNL     1      33.964 -15.387 -26.069  0.00  0.00    -0.170 F 
ATOM     20  F   UNL     1      35.464 -16.552 -24.995  0.00  0.00    -0.170 F 
ATOM     21  C   UNL     1      34.141 -16.279 -25.072  0.00  0.00    +0.407 C 
ENDBRANCH  13  21
ENDBRANCH   1  13
BRANCH   1  22
ATOM     22  C   UNL     1      34.578 -15.049 -21.456  0.00  0.00    +0.155 C 
BRANCH  22  23
ATOM     23  O   UNL     1      34.933 -15.663 -20.219  0.00  0.00    -0.381 OA
ATOM     24  H   UNL     1      34.304 -15.392 -19.532  0.00  0.00    +0.211 HD
ENDBRANCH  22  23
ENDBRANCH   1  22
TORSDOF 8
ENDMDL
MODEL 3
REMARK VINA RESULT:      -8.2      0.888      2.179
REMARK  Name = 11269353
REMARK  8 active torsions:
REMARK  status: ('A' for Active; 'I' for Inactive)
REMARK    1  A    between atoms: C_1  and  N_2
REMARK    2  A    between atoms: C_1  and  C_13
REMARK    3  A    between atoms: C_1  and  C_22
REMARK    4  A    between atoms: N_2  and  S_4
REMARK    5  A    between atoms: S_4  and  C_9
REMARK    6  A    between atoms: C_13  and  C_17
REMARK    7  A    between atoms: C_13  and  C_21
REMARK    8  A    between atoms: C_22  and  O_23
REMARK                            x       y       z     vdW  Elec       q    Type
REMARK                         _______ _______ _______ _____ _____    ______ ____
ROOT
ATOM      1  C   UNL     1      34.167 -15.858 -22.796  0.00  0.00    +0.121 C 
ENDROOT
BRANCH   1   2
ATOM      2  N   UNL     1      34.893 -16.743 -21.843  0.00  0.00    -0.177 NA
ATOM      3  H   UNL     1      35.773 -16.282 -21.609  0.00  0.00    +0.149 HD
BRANCH   2   4
ATOM      4  S   UNL     1      35.268 -18.326 -22.361  0.00  0.00    +0.066 S 
ATOM      5  O   UNL     1      36.691 -18.562 -22.209  0.00  0.00    -0.153 OA
ATOM      6  O   UNL     1      34.593 -18.574 -23.619  0.00  0.00    -0.153 OA
BRANCH   4   9
ATOM      7 CL   UNL     1      34.561 -22.507 -18.475  0.00  0.00    -0.075 Cl
ATOM      8  S   UNL     1      35.551 -20.499 -20.427  0.00  0.00    -0.056 S 
ATOM      9  C   UNL     1      34.471 -19.460 -21.223  0.00  0.00    +0.152 C 
ATOM     10  C   UNL     1      33.172 -19.644 -20.885  0.00  0.00    +0.028 C 
ATOM     11  C   UNL     1      33.039 -20.687 -19.924  0.00  0.00    +0.020 C 
ATOM     12  C   UNL     1      34.256 -21.239 -19.586  0.00  0.00    +0.088 C 
ENDBRANCH   4   9
ENDBRANCH   2   4
ENDBRANCH   1   2
BRANCH   1  13
ATOM     13  C   UNL     1      33.841 -14.495 -22.136  0.00  0.00    +0.208 C 
BRANCH  13  17
ATOM     14  F   UNL     1      32.648 -12.442 -22.411  0.00  0.00    -0.170 F 
ATOM     15  F   UNL     1      34.154 -12.940 -23.904  0.00  0.00    -0.170 F 
ATOM     16  F   UNL     1      32.273 -14.020 -23.870  0.00  0.00    -0.170 F 
ATOM     17  C   UNL     1      33.218 -13.466 -23.080  0.00  0.00    +0.407 C 
ENDBRANCH  13  17
BRANCH  13  21
ATOM     18  F   UNL     1      33.675 -15.191 -19.869  0.00  0.00    -0.170 F 
ATOM     19  F   UNL     1      32.422 -13.516 -20.476  0.00  0.00    -0.170 F 
ATOM     20  F   UNL     1      31.948 -15.538 -21.145  0.00  0.00    -0.170 F 
ATOM     21  C   UNL     1      32.962 -14.679 -20.898  0.00  0.00    +0.407 C 
ENDBRANCH  13  21
ENDBRANCH   1  13
BRANCH   1  22
ATOM     22  C   UNL     1      34.996 -15.740 -24.076  0.00  0.00    +0.155 C 
BRANCH  22  23
ATOM     23  O   UNL     1      34.233 -16.179 -25.197  0.00  0.00    -0.381 OA
ATOM     24  H   UNL     1      33.577 -15.503 -25.426  0.00  0.00    +0.211 HD
ENDBRANCH  22  23
ENDBRANCH   1  22
TORSDOF 8
ENDMDL
MODEL 4
REMARK VINA RESULT:      -8.1     10.398     11.854
REMARK  Name = 11269353
REMARK  8 active torsions:
REMARK  status: ('A' for Active; 'I' for Inactive)
REMARK    1  A    between atoms: C_1  and  N_2
REMARK    2  A    between atoms: C_1  and  C_13
REMARK    3  A    between atoms: C_1  and  C_22
REMARK    4  A    between atoms: N_2  and  S_4
REMARK    5  A    between atoms: S_4  and  C_9
REMARK    6  A    between atoms: C_13  and  C_17
REMARK    7  A    between atoms: C_13  and  C_21
REMARK    8  A    between atoms: C_22  and  O_23
REMARK                            x       y       z     vdW  Elec       q    Type
REMARK                         _______ _______ _______ _____ _____    ______ ____
ROOT
ATOM      1  C   UNL     1      36.594 -25.410 -14.970  0.00  0.00    +0.121 C 
ENDROOT
BRANCH   1   2
ATOM      2  N   UNL     1      35.198 -24.998 -14.653  0.00  0.00    -0.177 NA
ATOM      3  H   UNL     1      34.594 -25.799 -14.840  0.00  0.00    +0.149 HD
BRANCH   2   4
ATOM      4  S   UNL     1      34.554 -23.664 -15.502  0.00  0.00    +0.066 S 
ATOM      5  O   UNL     1      34.504 -23.969 -16.919  0.00  0.00    -0.153 OA
ATOM      6  O   UNL     1      35.187 -22.455 -15.013  0.00  0.00    -0.153 OA
BRANCH   4   9
ATOM      7 CL   UNL     1      28.875 -22.802 -15.776  0.00  0.00    -0.075 Cl
ATOM      8  S   UNL     1      31.780 -23.162 -16.274  0.00  0.00    -0.056 S 
ATOM      9  C   UNL     1      32.845 -23.483 -14.991  0.00  0.00    +0.152 C 
ATOM     10  C   UNL     1      32.248 -23.550 -13.778  0.00  0.00    +0.028 C 
ATOM     11  C   UNL     1      30.845 -23.330 -13.888  0.00  0.00    +0.020 C 
ATOM     12  C   UNL     1      30.456 -23.106 -15.190  0.00  0.00    +0.088 C 
ENDBRANCH   4   9
ENDBRANCH   2   4
ENDBRANCH   1   2
BRANCH   1  13
ATOM     13  C   UNL     1      37.585 -24.824 -13.933  0.00  0.00    +0.208 C 
BRANCH  13  17
ATOM     14  F   UNL     1      37.859 -26.489 -12.240  0.00  0.00    -0.170 F 
ATOM     15  F   UNL     1      37.889 -24.402 -11.616  0.00  0.00    -0.170 F 
ATOM     16  F   UNL     1      36.015 -25.323 -12.208  0.00  0.00    -0.170 F 
ATOM     17  C   UNL     1      37.335 -25.272 -12.493  0.00  0.00    +0.407 C 
ENDBRANCH  13  17
BRANCH  13  21
ATOM     18  F   UNL     1      39.887 -24.764 -13.343  0.00  0.00    -0.170 F 
ATOM     19  F   UNL     1      39.240 -26.414 -14.610  0.00  0.00    -0.170 F 
ATOM     20  F   UNL     1      39.385 -24.396 -15.427  0.00  0.00    -0.170 F 
ATOM     21  C   UNL     1      39.033 -25.109 -14.333  0.00  0.00    +0.407 C 
ENDBRANCH  13  21
ENDBRANCH   1  13
BRANCH   1  22
ATOM     22  C   UNL     1      36.638 -26.936 -15.070  0.00  0.00    +0.155 C 
BRANCH  22  23
ATOM     23  O   UNL     1      36.777 -27.334 -16.432  0.00  0.00    -0.381 OA
ATOM     24  H   UNL     1      35.969 -27.106 -16.919  0.00  0.00    +0.211 HD
ENDBRANCH  22  23
ENDBRANCH   1  22
TORSDOF 8
ENDMDL
MODEL 5
REMARK VINA RESULT:      -8.0      5.352      7.581
REMARK  Name = 11269353
REMARK  8 active torsions:
REMARK  status: ('A' for Active; 'I' for Inactive)
REMARK    1  A    between atoms: C_1  and  N_2
REMARK    2  A    between atoms: C_1  and  C_13
REMARK    3  A    between atoms: C_1  and  C_22
REMARK    4  A    between atoms: N_2  and  S_4
REMARK    5  A    between atoms: S_4  and  C_9
REMARK    6  A    between atoms: C_13  and  C_17
REMARK    7  A    between atoms: C_13  and  C_21
REMARK    8  A    between atoms: C_22  and  O_23
REMARK                            x       y       z     vdW  Elec       q    Type
REMARK                         _______ _______ _______ _____ _____    ______ ____
ROOT
ATOM      1  C   UNL     1      34.309 -15.371 -22.571  0.00  0.00    +0.121 C 
ENDROOT
BRANCH   1   2
ATOM      2  N   UNL     1      34.612 -14.100 -23.286  0.00  0.00    -0.177 NA
ATOM      3  H   UNL     1      35.078 -13.480 -22.623  0.00  0.00    +0.149 HD
BRANCH   2   4
ATOM      4  S   UNL     1      33.299 -13.236 -23.956  0.00  0.00    +0.066 S 
ATOM      5  O   UNL     1      32.186 -13.247 -23.026  0.00  0.00    -0.153 OA
ATOM      6  O   UNL     1      33.132 -13.645 -25.336  0.00  0.00    -0.153 OA
BRANCH   4   9
ATOM      7 CL   UNL     1      33.457  -7.554 -23.082  0.00  0.00    -0.075 Cl
ATOM      8  S   UNL     1      32.890 -10.469 -23.108  0.00  0.00    -0.056 S 
ATOM      9  C   UNL     1      33.801 -11.520 -24.082  0.00  0.00    +0.152 C 
ATOM     10  C   UNL     1      34.765 -10.906 -24.809  0.00  0.00    +0.028 C 
ATOM     11  C   UNL     1      34.771  -9.503 -24.567  0.00  0.00    +0.020 C 
ATOM     12  C   UNL     1      33.801  -9.130 -23.662  0.00  0.00    +0.088 C 
ENDBRANCH   4   9
ENDBRANCH   2   4
ENDBRANCH   1   2
BRANCH   1  13
ATOM     13  C   UNL     1      35.214 -16.517 -23.087  0.00  0.00    +0.208 C 
BRANCH  13  17
ATOM     14  F   UNL     1      34.147 -18.393 -22.059  0.00  0.00    -0.170 F 
ATOM     15  F   UNL     1      36.253 -18.592 -22.581  0.00  0.00    -0.170 F 
ATOM     16  F   UNL     1      35.673 -17.350 -20.899  0.00  0.00    -0.170 F 
ATOM     17  C   UNL     1      35.313 -17.720 -22.148  0.00  0.00    +0.407 C 
ENDBRANCH  13  17
BRANCH  13  21
ATOM     18  F   UNL     1      35.496 -16.325 -25.440  0.00  0.00    -0.170 F 
ATOM     19  F   UNL     1      34.967 -18.294 -24.670  0.00  0.00    -0.170 F 
ATOM     20  F   UNL     1      33.482 -16.696 -24.706  0.00  0.00    -0.170 F 
ATOM     21  C   UNL     1      34.788 -16.969 -24.484  0.00  0.00    +0.407 C 
ENDBRANCH  13  21
ENDBRANCH   1  13
BRANCH   1  22
ATOM     22  C   UNL     1      34.429 -15.121 -21.066  0.00  0.00    +0.155 C 
BRANCH  22  23
ATOM     23  O   UNL     1      33.158 -14.771 -20.524  0.00  0.00    -0.381 OA
ATOM     24  H   UNL     1      32.882 -15.447 -19.885  0.00  0.00    +0.211 HD
ENDBRANCH  22  23
ENDBRANCH   1  22
TORSDOF 8
ENDMDL
MODEL 6
REMARK VINA RESULT:      -8.0      9.661     11.925
REMARK  Name = 11269353
REMARK  8 active torsions:
REMARK  status: ('A' for Active; 'I' for Inactive)
REMARK    1  A    between atoms: C_1  and  N_2
REMARK    2  A    between atoms: C_1  and  C_13
REMARK    3  A    between atoms: C_1  and  C_22
REMARK    4  A    between atoms: N_2  and  S_4
REMARK    5  A    between atoms: S_4  and  C_9
REMARK    6  A    between atoms: C_13  and  C_17
REMARK    7  A    between atoms: C_13  and  C_21
REMARK    8  A    between atoms: C_22  and  O_23
REMARK                            x       y       z     vdW  Elec       q    Type
REMARK                         _______ _______ _______ _____ _____    ______ ____
ROOT
ATOM      1  C   UNL     1      35.746 -24.678 -12.788  0.00  0.00    +0.121 C 
ENDROOT
BRANCH   1   2
ATOM      2  N   UNL     1      35.538 -23.562 -13.753  0.00  0.00    -0.177 NA
ATOM      3  H   UNL     1      34.706 -23.053 -13.455  0.00  0.00    +0.149 HD
BRANCH   2   4
ATOM      4  S   UNL     1      35.329 -23.966 -15.399  0.00  0.00    +0.066 S 
ATOM      5  O   UNL     1      35.399 -25.406 -15.557  0.00  0.00    -0.153 OA
ATOM      6  O   UNL     1      36.147 -23.079 -16.201  0.00  0.00    -0.153 OA
BRANCH   4   9
ATOM      7 CL   UNL     1      29.734 -22.725 -14.917  0.00  0.00    -0.075 Cl
ATOM      8  S   UNL     1      32.590 -23.438 -14.525  0.00  0.00    -0.056 S 
ATOM      9  C   UNL     1      33.653 -23.517 -15.847  0.00  0.00    +0.152 C 
ATOM     10  C   UNL     1      33.077 -23.232 -17.039  0.00  0.00    +0.028 C 
ATOM     11  C   UNL     1      31.693 -22.932 -16.879  0.00  0.00    +0.020 C 
ATOM     12  C   UNL     1      31.297 -23.008 -15.561  0.00  0.00    +0.088 C 
ENDBRANCH   4   9
ENDBRANCH   2   4
ENDBRANCH   1   2
BRANCH   1  13
ATOM     13  C   UNL     1      37.235 -24.771 -12.373  0.00  0.00    +0.208 C 
BRANCH  13  17
ATOM     14  F   UNL     1      39.291 -25.918 -12.789  0.00  0.00    -0.170 F 
ATOM     15  F   UNL     1      37.497 -26.679 -13.762  0.00  0.00    -0.170 F 
ATOM     16  F   UNL     1      38.396 -24.830 -14.456  0.00  0.00    -0.170 F 
ATOM     17  C   UNL     1      38.119 -25.551 -13.347  0.00  0.00    +0.407 C 
ENDBRANCH  13  17
BRANCH  13  21
ATOM     18  F   UNL     1      37.825 -22.641 -13.249  0.00  0.00    -0.170 F 
ATOM     19  F   UNL     1      37.131 -22.696 -11.185  0.00  0.00    -0.170 F 
ATOM     20  F   UNL     1      39.106 -23.467 -11.698  0.00  0.00    -0.170 F 
ATOM     21  C   UNL     1      37.824 -23.382 -12.118  0.00  0.00    +0.407 C 
ENDBRANCH  13  21
ENDBRANCH   1  13
BRANCH   1  22
ATOM     22  C   UNL     1      34.789 -24.485 -11.611  0.00  0.00    +0.155 C 
BRANCH  22  23
ATOM     23  O   UNL     1      35.276 -25.177 -10.464  0.00  0.00    -0.381 OA
ATOM     24  H   UNL     1      34.543 -25.346  -9.852  0.00  0.00    +0.211 HD
ENDBRANCH  22  23
ENDBRANCH   1  22
TORSDOF 8
ENDMDL
MODEL 7
REMARK VINA RESULT:      -7.9      6.864      9.388
REMARK  Name = 11269353
REMARK  8 active torsions:
REMARK  status: ('A' for Active; 'I' for Inactive)
REMARK    1  A    between atoms: C_1  and  N_2
REMARK    2  A    between atoms: C_1  and  C_13
REMARK    3  A    between atoms: C_1  and  C_22
REMARK    4  A    between atoms: N_2  and  S_4
REMARK    5  A    between atoms: S_4  and  C_9
REMARK    6  A    between atoms: C_13  and  C_17
REMARK    7  A    between atoms: C_13  and  C_21
REMARK    8  A    between atoms: C_22  and  O_23
REMARK                            x       y       z     vdW  Elec       q    Type
REMARK                         _______ _______ _______ _____ _____    ______ ____
ROOT
ATOM      1  C   UNL     1      32.296 -23.035 -16.099  0.00  0.00    +0.121 C 
ENDROOT
BRANCH   1   2
ATOM      2  N   UNL     1      32.314 -22.848 -17.576  0.00  0.00    -0.177 NA
ATOM      3  H   UNL     1      31.717 -23.569 -17.982  0.00  0.00    +0.149 HD
BRANCH   2   4
ATOM      4  S   UNL     1      33.825 -22.931 -18.367  0.00  0.00    +0.066 S 
ATOM      5  O   UNL     1      33.855 -24.093 -19.235  0.00  0.00    -0.153 OA
ATOM      6  O   UNL     1      34.872 -22.690 -17.394  0.00  0.00    -0.153 OA
BRANCH   4   9
ATOM      7 CL   UNL     1      36.058 -18.777 -21.659  0.00  0.00    -0.075 Cl
ATOM      8  S   UNL     1      35.523 -21.083 -19.866  0.00  0.00    -0.056 S 
ATOM      9  C   UNL     1      33.932 -21.514 -19.461  0.00  0.00    +0.152 C 
ATOM     10  C   UNL     1      32.984 -20.725 -20.020  0.00  0.00    +0.028 C 
ATOM     11  C   UNL     1      33.576 -19.710 -20.825  0.00  0.00    +0.020 C 
ATOM     12  C   UNL     1      34.952 -19.788 -20.829  0.00  0.00    +0.088 C 
ENDBRANCH   4   9
ENDBRANCH   2   4
ENDBRANCH   1   2
BRANCH   1  13
ATOM     13  C   UNL     1      31.053 -23.852 -15.667  0.00  0.00    +0.208 C 
BRANCH  13  17
ATOM     14  F   UNL     1      29.920 -24.856 -13.816  0.00  0.00    -0.170 F 
ATOM     15  F   UNL     1      31.996 -25.422 -14.155  0.00  0.00    -0.170 F 
ATOM     16  F   UNL     1      31.531 -23.456 -13.363  0.00  0.00    -0.170 F 
ATOM     17  C   UNL     1      31.116 -24.397 -14.239  0.00  0.00    +0.407 C 
ENDBRANCH  13  17
BRANCH  13  21
ATOM     18  F   UNL     1      29.842 -22.291 -16.989  0.00  0.00    -0.170 F 
ATOM     19  F   UNL     1      28.682 -23.841 -15.990  0.00  0.00    -0.170 F 
ATOM     20  F   UNL     1      29.551 -22.206 -14.835  0.00  0.00    -0.170 F 
ATOM     21  C   UNL     1      29.768 -23.048 -15.871  0.00  0.00    +0.407 C 
ENDBRANCH  13  21
ENDBRANCH   1  13
BRANCH   1  22
ATOM     22  C   UNL     1      33.625 -23.664 -15.674  0.00  0.00    +0.155 C 
BRANCH  22  23
ATOM     23  O   UNL     1      34.267 -22.844 -14.702  0.00  0.00    -0.381 OA
ATOM     24  H   UNL     1      33.709 -22.075 -14.507  0.00  0.00    +0.211 HD
ENDBRANCH  22  23
ENDBRANCH   1  22
TORSDOF 8
ENDMDL
MODEL 8
REMARK VINA RESULT:      -7.9      1.464      2.768
REMARK  Name = 11269353
REMARK  8 active torsions:
REMARK  status: ('A' for Active; 'I' for Inactive)
REMARK    1  A    between atoms: C_1  and  N_2
REMARK    2  A    between atoms: C_1  and  C_13
REMARK    3  A    between atoms: C_1  and  C_22
REMARK    4  A    between atoms: N_2  and  S_4
REMARK    5  A    between atoms: S_4  and  C_9
REMARK    6  A    between atoms: C_13  and  C_17
REMARK    7  A    between atoms: C_13  and  C_21
REMARK    8  A    between atoms: C_22  and  O_23
REMARK                            x       y       z     vdW  Elec       q    Type
REMARK                         _______ _______ _______ _____ _____    ______ ____
ROOT
ATOM      1  C   UNL     1      34.922 -15.944 -22.570  0.00  0.00    +0.121 C 
ENDROOT
BRANCH   1   2
ATOM      2  N   UNL     1      34.183 -17.236 -22.506  0.00  0.00    -0.177 NA
ATOM      3  H   UNL     1      33.597 -17.211 -21.671  0.00  0.00    +0.149 HD
BRANCH   2   4
ATOM      4  S   UNL     1      35.104 -18.673 -22.441  0.00  0.00    +0.066 S 
ATOM      5  O   UNL     1      36.434 -18.374 -21.945  0.00  0.00    -0.153 OA
ATOM      6  O   UNL     1      34.907 -19.405 -23.677  0.00  0.00    -0.153 OA
BRANCH   4   9
ATOM      7 CL   UNL     1      34.571 -22.548 -18.226  0.00  0.00    -0.075 Cl
ATOM      8  S   UNL     1      35.476 -20.681 -20.351  0.00  0.00    -0.056 S 
ATOM      9  C   UNL     1      34.356 -19.728 -21.201  0.00  0.00    +0.152 C 
ATOM     10  C   UNL     1      33.070 -19.910 -20.818  0.00  0.00    +0.028 C 
ATOM     11  C   UNL     1      32.980 -20.877 -19.776  0.00  0.00    +0.020 C 
ATOM     12  C   UNL     1      34.215 -21.377 -19.425  0.00  0.00    +0.088 C 
ENDBRANCH   4   9
ENDBRANCH   2   4
ENDBRANCH   1   2
BRANCH   1  13
ATOM     13  C   UNL     1      34.455 -15.108 -23.788  0.00  0.00    +0.208 C 
BRANCH  13  17
ATOM     14  F   UNL     1      34.070 -15.120 -26.147  0.00  0.00    -0.170 F 
ATOM     15  F   UNL     1      35.335 -16.692 -25.324  0.00  0.00    -0.170 F 
ATOM     16  F   UNL     1      33.192 -16.743 -24.981  0.00  0.00    -0.170 F 
ATOM     17  C   UNL     1      34.255 -15.914 -25.072  0.00  0.00    +0.407 C 
ENDBRANCH  13  17
BRANCH  13  21
ATOM     18  F   UNL     1      32.464 -14.075 -24.574  0.00  0.00    -0.170 F 
ATOM     19  F   UNL     1      32.392 -14.962 -22.585  0.00  0.00    -0.170 F 
ATOM     20  F   UNL     1      33.499 -13.112 -22.920  0.00  0.00    -0.170 F 
ATOM     21  C   UNL     1      33.191 -14.313 -23.459  0.00  0.00    +0.407 C 
ENDBRANCH  13  21
ENDBRANCH   1  13
BRANCH   1  22
ATOM     22  C   UNL     1      34.758 -15.225 -21.230  0.00  0.00    +0.155 C 
BRANCH  22  23
ATOM     23  O   UNL     1      35.063 -16.112 -20.157  0.00  0.00    -0.381 OA
ATOM     24  H   UNL     1      35.335 -15.598 -19.380  0.00  0.00    +0.211 HD
ENDBRANCH  22  23
ENDBRANCH   1  22
TORSDOF 8
ENDMDL
MODEL 9
REMARK VINA RESULT:      -7.9      5.019      7.183
REMARK  Name = 11269353
REMARK  8 active torsions:
REMARK  status: ('A' for Active; 'I' for Inactive)
REMARK    1  A    between atoms: C_1  and  N_2
REMARK    2  A    between atoms: C_1  and  C_13
REMARK    3  A    between atoms: C_1  and  C_22
REMARK    4  A    between atoms: N_2  and  S_4
REMARK    5  A    between atoms: S_4  and  C_9
REMARK    6  A    between atoms: C_13  and  C_17
REMARK    7  A    between atoms: C_13  and  C_21
REMARK    8  A    between atoms: C_22  and  O_23
REMARK                            x       y       z     vdW  Elec       q    Type
REMARK                         _______ _______ _______ _____ _____    ______ ____
ROOT
ATOM      1  C   UNL     1      34.366 -20.401 -20.541  0.00  0.00    +0.121 C 
ENDROOT
BRANCH   1   2
ATOM      2  N   UNL     1      34.827 -18.987 -20.626  0.00  0.00    -0.177 NA
ATOM      3  H   UNL     1      34.077 -18.399 -20.263  0.00  0.00    +0.149 HD
BRANCH   2   4
ATOM      4  S   UNL     1      35.250 -18.383 -22.166  0.00  0.00    +0.066 S 
ATOM      5  O   UNL     1      34.421 -19.012 -23.178  0.00  0.00    -0.153 OA
ATOM      6  O   UNL     1      36.695 -18.369 -22.278  0.00  0.00    -0.153 OA
BRANCH   4   9
ATOM      7 CL   UNL     1      33.917 -13.161 -24.173  0.00  0.00    -0.075 Cl
ATOM      8  S   UNL     1      34.641 -16.012 -23.762  0.00  0.00    -0.056 S 
ATOM      9  C   UNL     1      34.806 -16.647 -22.196  0.00  0.00    +0.152 C 
ATOM     10  C   UNL     1      34.582 -15.749 -21.208  0.00  0.00    +0.028 C 
ATOM     11  C   UNL     1      34.257 -14.470 -21.744  0.00  0.00    +0.020 C 
ATOM     12  C   UNL     1      34.254 -14.472 -23.122  0.00  0.00    +0.088 C 
ENDBRANCH   4   9
ENDBRANCH   2   4
ENDBRANCH   1   2
BRANCH   1  13
ATOM     13  C   UNL     1      34.928 -21.084 -19.269  0.00  0.00    +0.208 C 
BRANCH  13  17
ATOM     14  F   UNL     1      34.720 -22.912 -17.743  0.00  0.00    -0.170 F 
ATOM     15  F   UNL     1      32.891 -22.120 -18.623  0.00  0.00    -0.170 F 
ATOM     16  F   UNL     1      34.249 -23.299 -19.838  0.00  0.00    -0.170 F 
ATOM     17  C   UNL     1      34.201 -22.366 -18.862  0.00  0.00    +0.407 C 
ENDBRANCH  13  17
BRANCH  13  21
ATOM     18  F   UNL     1      37.121 -20.184 -19.462  0.00  0.00    -0.170 F 
ATOM     19  F   UNL     1      36.919 -22.056 -18.365  0.00  0.00    -0.170 F 
ATOM     20  F   UNL     1      36.705 -22.030 -20.536  0.00  0.00    -0.170 F 
ATOM     21  C   UNL     1      36.429 -21.345 -19.403  0.00  0.00    +0.407 C 
ENDBRANCH  13  21
ENDBRANCH   1  13
BRANCH   1  22
ATOM     22  C   UNL     1      32.839 -20.418 -20.625  0.00  0.00    +0.155 C 
BRANCH  22  23
ATOM     23  O   UNL     1      32.333 -19.086 -20.638  0.00  0.00    -0.381 OA
ATOM     24  H   UNL     1      32.465 -18.698 -21.517  0.00  0.00    +0.211 HD
ENDBRANCH  22  23
ENDBRANCH   1  22
TORSDOF 8
ENDMDL
