MODEL 1
REMARK VINA RESULT:      -8.6      0.000      0.000
REMARK  Name = 9565
REMARK  6 active torsions:
REMARK  status: ('A' for Active; 'I' for Inactive)
REMARK    1  A    between atoms: N_1  and  S_9
REMARK    2  A    between atoms: C_5  and  O_18
REMARK    3  A    between atoms: S_9  and  C_12
REMARK    4  A    between atoms: O_18  and  C_19
REMARK    5  A    between atoms: C_19  and  C_20
REMARK    6  A    between atoms: C_20  and  O_21
REMARK                            x       y       z     vdW  Elec       q    Type
REMARK                         _______ _______ _______ _____ _____    ______ ____
ROOT
ATOM      1  N   UNL     1      34.504 -18.417 -21.354  0.00  0.00    -0.158 N 
ATOM      2  N   UNL     1      33.265 -20.219 -20.469  0.00  0.00    -0.199 NA
ATOM      3  N   UNL     1      35.659 -20.126 -20.208  0.00  0.00    -0.176 NA
ATOM      4  C   UNL     1      34.474 -19.662 -20.633  0.00  0.00    +0.106 C 
ATOM      5  C   UNL     1      34.418 -21.976 -19.296  0.00  0.00    +0.161 C 
ATOM      6  C   UNL     1      33.273 -21.386 -19.790  0.00  0.00    +0.203 C 
ATOM      7  C   UNL     1      35.593 -21.295 -19.536  0.00  0.00    +0.145 C 
ATOM      8  H   UNL     1      34.105 -17.602 -20.973  0.00  0.00    +0.186 HD
ENDROOT
BRANCH   1   9
ATOM      9  S   UNL     1      35.259 -18.395 -22.902  0.00  0.00    +0.081 S 
ATOM     10  O   UNL     1      36.688 -18.178 -22.707  0.00  0.00    -0.149 OA
ATOM     11  O   UNL     1      34.825 -19.555 -23.672  0.00  0.00    -0.149 OA
BRANCH   9  12
ATOM     12  C   UNL     1      34.597 -16.956 -23.636  0.00  0.00    +0.126 C 
ATOM     13  C   UNL     1      34.398 -15.809 -22.867  0.00  0.00    +0.020 C 
ATOM     14  C   UNL     1      34.266 -16.953 -24.991  0.00  0.00    +0.020 C 
ATOM     15  C   UNL     1      33.869 -14.660 -23.452  0.00  0.00    +0.001 C 
ATOM     16  C   UNL     1      33.737 -15.803 -25.577  0.00  0.00    +0.001 C 
ATOM     17  C   UNL     1      33.538 -14.656 -24.808  0.00  0.00    +0.000 C 
ENDBRANCH   9  12
ENDBRANCH   1   9
BRANCH   5  18
ATOM     18  O   UNL     1      34.390 -23.145 -18.620  0.00  0.00    -0.473 OA
BRANCH  18  19
ATOM     19  C   UNL     1      33.450 -23.264 -17.547  0.00  0.00    +0.237 C 
BRANCH  19  20
ATOM     20  C   UNL     1      34.195 -23.201 -16.227  0.00  0.00    +0.189 C 
BRANCH  20  21
ATOM     21  O   UNL     1      35.563 -23.519 -16.451  0.00  0.00    -0.347 OA
ATOM     22  C   UNL     1      36.425 -22.562 -15.851  0.00  0.00    +0.174 C 
ENDBRANCH  20  21
ENDBRANCH  19  20
ENDBRANCH  18  19
ENDBRANCH   5  18
TORSDOF 6
ENDMDL
MODEL 2
REMARK VINA RESULT:      -8.3      3.844      9.137
REMARK  Name = 9565
REMARK  6 active torsions:
REMARK  status: ('A' for Active; 'I' for Inactive)
REMARK    1  A    between atoms: N_1  and  S_9
REMARK    2  A    between atoms: C_5  and  O_18
REMARK    3  A    between atoms: S_9  and  C_12
REMARK    4  A    between atoms: O_18  and  C_19
REMARK    5  A    between atoms: C_19  and  C_20
REMARK    6  A    between atoms: C_20  and  O_21
REMARK                            x       y       z     vdW  Elec       q    Type
REMARK                         _______ _______ _______ _____ _____    ______ ____
ROOT
ATOM      1  N   UNL     1      33.633 -16.952 -22.330  0.00  0.00    -0.158 N 
ATOM      2  N   UNL     1      32.424 -14.993 -21.819  0.00  0.00    -0.199 NA
ATOM      3  N   UNL     1      34.264 -14.933 -23.373  0.00  0.00    -0.176 NA
ATOM      4  C   UNL     1      33.427 -15.542 -22.519  0.00  0.00    +0.106 C 
ATOM      5  C   UNL     1      33.047 -12.918 -22.868  0.00  0.00    +0.161 C 
ATOM      6  C   UNL     1      32.259 -13.668 -22.018  0.00  0.00    +0.203 C 
ATOM      7  C   UNL     1      34.043 -13.610 -23.526  0.00  0.00    +0.145 C 
ATOM      8  H   UNL     1      32.968 -17.607 -22.642  0.00  0.00    +0.186 HD
ENDROOT
BRANCH   1   9
ATOM      9  S   UNL     1      35.078 -17.463 -21.543  0.00  0.00    +0.081 S 
ATOM     10  O   UNL     1      36.094 -17.692 -22.564  0.00  0.00    -0.149 OA
ATOM     11  O   UNL     1      35.380 -16.555 -20.443  0.00  0.00    -0.149 OA
BRANCH   9  12
ATOM     12  C   UNL     1      34.630 -19.015 -20.881  0.00  0.00    +0.126 C 
ATOM     13  C   UNL     1      35.618 -19.915 -20.480  0.00  0.00    +0.020 C 
ATOM     14  C   UNL     1      33.283 -19.356 -20.753  0.00  0.00    +0.020 C 
ATOM     15  C   UNL     1      35.260 -21.154 -19.952  0.00  0.00    +0.001 C 
ATOM     16  C   UNL     1      32.925 -20.596 -20.224  0.00  0.00    +0.001 C 
ATOM     17  C   UNL     1      33.914 -21.496 -19.823  0.00  0.00    +0.000 C 
ENDBRANCH   9  12
ENDBRANCH   1   9
BRANCH   5  18
ATOM     18  O   UNL     1      32.855 -11.593 -23.045  0.00  0.00    -0.473 OA
BRANCH  18  19
ATOM     19  C   UNL     1      33.696 -10.925 -23.992  0.00  0.00    +0.237 C 
BRANCH  19  20
ATOM     20  C   UNL     1      33.558  -9.426 -23.804  0.00  0.00    +0.189 C 
BRANCH  20  21
ATOM     21  O   UNL     1      34.851  -8.860 -23.628  0.00  0.00    -0.347 OA
ATOM     22  C   UNL     1      34.800  -7.441 -23.614  0.00  0.00    +0.174 C 
ENDBRANCH  20  21
ENDBRANCH  19  20
ENDBRANCH  18  19
ENDBRANCH   5  18
TORSDOF 6
ENDMDL
MODEL 3
REMARK VINA RESULT:      -8.2      3.950      5.644
REMARK  Name = 9565
REMARK  6 active torsions:
REMARK  status: ('A' for Active; 'I' for Inactive)
REMARK    1  A    between atoms: N_1  and  S_9
REMARK    2  A    between atoms: C_5  and  O_18
REMARK    3  A    between atoms: S_9  and  C_12
REMARK    4  A    between atoms: O_18  and  C_19
REMARK    5  A    between atoms: C_19  and  C_20
REMARK    6  A    between atoms: C_20  and  O_21
REMARK                            x       y       z     vdW  Elec       q    Type
REMARK                         _______ _______ _______ _____ _____    ______ ____
ROOT
ATOM      1  N   UNL     1      34.610 -13.770 -23.139  0.00  0.00    -0.158 N 
ATOM      2  N   UNL     1      34.574 -15.544 -21.585  0.00  0.00    -0.199 NA
ATOM      3  N   UNL     1      34.649 -15.983 -23.953  0.00  0.00    -0.176 NA
ATOM      4  C   UNL     1      34.612 -15.183 -22.876  0.00  0.00    +0.106 C 
ATOM      5  C   UNL     1      34.612 -17.812 -22.388  0.00  0.00    +0.161 C 
ATOM      6  C   UNL     1      34.576 -16.877 -21.374  0.00  0.00    +0.203 C 
ATOM      7  C   UNL     1      34.649 -17.303 -23.670  0.00  0.00    +0.145 C 
ATOM      8  H   UNL     1      35.379 -13.208 -22.890  0.00  0.00    +0.186 HD
ENDROOT
BRANCH   1   9
ATOM      9  S   UNL     1      33.223 -13.088 -23.902  0.00  0.00    +0.081 S 
ATOM     10  O   UNL     1      33.223 -13.509 -25.298  0.00  0.00    -0.149 OA
ATOM     11  O   UNL     1      32.042 -13.351 -23.089  0.00  0.00    -0.149 OA
BRANCH   9  12
ATOM     12  C   UNL     1      33.561 -11.376 -23.861  0.00  0.00    +0.126 C 
ATOM     13  C   UNL     1      34.660 -10.865 -24.553  0.00  0.00    +0.020 C 
ATOM     14  C   UNL     1      32.732 -10.519 -23.137  0.00  0.00    +0.020 C 
ATOM     15  C   UNL     1      34.929  -9.497 -24.520  0.00  0.00    +0.001 C 
ATOM     16  C   UNL     1      33.002  -9.150 -23.105  0.00  0.00    +0.001 C 
ATOM     17  C   UNL     1      34.101  -8.639 -23.796  0.00  0.00    +0.000 C 
ENDBRANCH   9  12
ENDBRANCH   1   9
BRANCH   5  18
ATOM     18  O   UNL     1      34.613 -19.140 -22.141  0.00  0.00    -0.473 OA
BRANCH  18  19
ATOM     19  C   UNL     1      34.297 -19.564 -20.811  0.00  0.00    +0.237 C 
BRANCH  19  20
ATOM     20  C   UNL     1      32.857 -20.040 -20.773  0.00  0.00    +0.189 C 
BRANCH  20  21
ATOM     21  O   UNL     1      32.665 -20.848 -19.618  0.00  0.00    -0.347 OA
ATOM     22  C   UNL     1      33.766 -21.719 -19.404  0.00  0.00    +0.174 C 
ENDBRANCH  20  21
ENDBRANCH  19  20
ENDBRANCH  18  19
ENDBRANCH   5  18
TORSDOF 6
ENDMDL
MODEL 4
REMARK VINA RESULT:      -8.1      4.286      6.335
REMARK  Name = 9565
REMARK  6 active torsions:
REMARK  status: ('A' for Active; 'I' for Inactive)
REMARK    1  A    between atoms: N_1  and  S_9
REMARK    2  A    between atoms: C_5  and  O_18
REMARK    3  A    between atoms: S_9  and  C_12
REMARK    4  A    between atoms: O_18  and  C_19
REMARK    5  A    between atoms: C_19  and  C_20
REMARK    6  A    between atoms: C_20  and  O_21
REMARK                            x       y       z     vdW  Elec       q    Type
REMARK                         _______ _______ _______ _____ _____    ______ ____
ROOT
ATOM      1  N   UNL     1      35.352 -22.672 -17.341  0.00  0.00    -0.158 N 
ATOM      2  N   UNL     1      35.671 -22.515 -15.009  0.00  0.00    -0.199 NA
ATOM      3  N   UNL     1      35.503 -24.664 -16.086  0.00  0.00    -0.176 NA
ATOM      4  C   UNL     1      35.519 -23.322 -16.069  0.00  0.00    +0.106 C 
ATOM      5  C   UNL     1      35.827 -24.532 -13.704  0.00  0.00    +0.161 C 
ATOM      6  C   UNL     1      35.824 -23.158 -13.831  0.00  0.00    +0.203 C 
ATOM      7  C   UNL     1      35.662 -25.241 -14.876  0.00  0.00    +0.145 C 
ATOM      8  H   UNL     1      36.088 -22.162 -17.749  0.00  0.00    +0.186 HD
ENDROOT
BRANCH   1   9
ATOM      9  S   UNL     1      33.826 -22.811 -18.128  0.00  0.00    +0.081 S 
ATOM     10  O   UNL     1      33.811 -24.068 -18.868  0.00  0.00    -0.149 OA
ATOM     11  O   UNL     1      32.758 -22.548 -17.171  0.00  0.00    -0.149 OA
BRANCH   9  12
ATOM     12  C   UNL     1      33.869 -21.509 -19.290  0.00  0.00    +0.126 C 
ATOM     13  C   UNL     1      35.086 -21.107 -19.843  0.00  0.00    +0.020 C 
ATOM     14  C   UNL     1      32.687 -20.871 -19.667  0.00  0.00    +0.020 C 
ATOM     15  C   UNL     1      35.120 -20.067 -20.770  0.00  0.00    +0.001 C 
ATOM     16  C   UNL     1      32.721 -19.831 -20.595  0.00  0.00    +0.001 C 
ATOM     17  C   UNL     1      33.938 -19.428 -21.147  0.00  0.00    +0.000 C 
ENDBRANCH   9  12
ENDBRANCH   1   9
BRANCH   5  18
ATOM     18  O   UNL     1      35.983 -25.143 -12.510  0.00  0.00    -0.473 OA
BRANCH  18  19
ATOM     19  C   UNL     1      37.071 -26.064 -12.377  0.00  0.00    +0.237 C 
BRANCH  19  20
ATOM     20  C   UNL     1      38.375 -25.328 -12.621  0.00  0.00    +0.189 C 
BRANCH  20  21
ATOM     21  O   UNL     1      39.182 -26.094 -13.508  0.00  0.00    -0.347 OA
ATOM     22  C   UNL     1      39.524 -25.353 -14.670  0.00  0.00    +0.174 C 
ENDBRANCH  20  21
ENDBRANCH  19  20
ENDBRANCH  18  19
ENDBRANCH   5  18
TORSDOF 6
ENDMDL
MODEL 5
REMARK VINA RESULT:      -8.1      4.007      8.718
REMARK  Name = 9565
REMARK  6 active torsions:
REMARK  status: ('A' for Active; 'I' for Inactive)
REMARK    1  A    between atoms: N_1  and  S_9
REMARK    2  A    between atoms: C_5  and  O_18
REMARK    3  A    between atoms: S_9  and  C_12
REMARK    4  A    between atoms: O_18  and  C_19
REMARK    5  A    between atoms: C_19  and  C_20
REMARK    6  A    between atoms: C_20  and  O_21
REMARK                            x       y       z     vdW  Elec       q    Type
REMARK                         _______ _______ _______ _____ _____    ______ ____
ROOT
ATOM      1  N   UNL     1      33.500 -16.716 -22.282  0.00  0.00    -0.158 N 
ATOM      2  N   UNL     1      32.306 -14.758 -21.728  0.00  0.00    -0.199 NA
ATOM      3  N   UNL     1      34.095 -14.694 -23.341  0.00  0.00    -0.176 NA
ATOM      4  C   UNL     1      33.287 -15.305 -22.461  0.00  0.00    +0.106 C 
ATOM      5  C   UNL     1      32.893 -12.681 -22.794  0.00  0.00    +0.161 C 
ATOM      6  C   UNL     1      32.134 -13.433 -21.920  0.00  0.00    +0.203 C 
ATOM      7  C   UNL     1      33.868 -13.371 -23.484  0.00  0.00    +0.145 C 
ATOM      8  H   UNL     1      32.826 -17.370 -22.573  0.00  0.00    +0.186 HD
ENDROOT
BRANCH   1   9
ATOM      9  S   UNL     1      34.970 -17.226 -21.542  0.00  0.00    +0.081 S 
ATOM     10  O   UNL     1      35.970 -17.394 -22.591  0.00  0.00    -0.149 OA
ATOM     11  O   UNL     1      35.276 -16.355 -20.414  0.00  0.00    -0.149 OA
BRANCH   9  12
ATOM     12  C   UNL     1      34.567 -18.811 -20.932  0.00  0.00    +0.126 C 
ATOM     13  C   UNL     1      35.581 -19.704 -20.585  0.00  0.00    +0.020 C 
ATOM     14  C   UNL     1      33.230 -19.185 -20.793  0.00  0.00    +0.020 C 
ATOM     15  C   UNL     1      35.259 -20.970 -20.098  0.00  0.00    +0.001 C 
ATOM     16  C   UNL     1      32.907 -20.452 -20.306  0.00  0.00    +0.001 C 
ATOM     17  C   UNL     1      33.922 -21.345 -19.959  0.00  0.00    +0.000 C 
ENDBRANCH   9  12
ENDBRANCH   1   9
BRANCH   5  18
ATOM     18  O   UNL     1      32.693 -11.356 -22.962  0.00  0.00    -0.473 OA
BRANCH  18  19
ATOM     19  C   UNL     1      31.580 -10.765 -22.283  0.00  0.00    +0.237 C 
BRANCH  19  20
ATOM     20  C   UNL     1      31.953  -9.358 -21.853  0.00  0.00    +0.189 C 
BRANCH  20  21
ATOM     21  O   UNL     1      32.270  -9.365 -20.467  0.00  0.00    -0.347 OA
ATOM     22  C   UNL     1      31.463 -10.291 -19.753  0.00  0.00    +0.174 C 
ENDBRANCH  20  21
ENDBRANCH  19  20
ENDBRANCH  18  19
ENDBRANCH   5  18
TORSDOF 6
ENDMDL
MODEL 6
REMARK VINA RESULT:      -8.0      3.125      8.401
REMARK  Name = 9565
REMARK  6 active torsions:
REMARK  status: ('A' for Active; 'I' for Inactive)
REMARK    1  A    between atoms: N_1  and  S_9
REMARK    2  A    between atoms: C_5  and  O_18
REMARK    3  A    between atoms: S_9  and  C_12
REMARK    4  A    between atoms: O_18  and  C_19
REMARK    5  A    between atoms: C_19  and  C_20
REMARK    6  A    between atoms: C_20  and  O_21
REMARK                            x       y       z     vdW  Elec       q    Type
REMARK                         _______ _______ _______ _____ _____    ______ ____
ROOT
ATOM      1  N   UNL     1      33.644 -23.584 -18.089  0.00  0.00    -0.158 N 
ATOM      2  N   UNL     1      33.036 -21.693 -19.362  0.00  0.00    -0.199 NA
ATOM      3  N   UNL     1      35.345 -22.351 -19.163  0.00  0.00    -0.176 NA
ATOM      4  C   UNL     1      34.031 -22.477 -18.922  0.00  0.00    +0.106 C 
ATOM      5  C   UNL     1      34.751 -20.417 -20.467  0.00  0.00    +0.161 C 
ATOM      6  C   UNL     1      33.433 -20.664 -20.139  0.00  0.00    +0.203 C 
ATOM      7  C   UNL     1      35.672 -21.302 -19.946  0.00  0.00    +0.145 C 
ATOM      8  H   UNL     1      33.124 -24.335 -18.456  0.00  0.00    +0.186 HD
ENDROOT
BRANCH   1   9
ATOM      9  S   UNL     1      34.117 -23.557 -16.433  0.00  0.00    +0.081 S 
ATOM     10  O   UNL     1      34.687 -24.859 -16.104  0.00  0.00    -0.149 OA
ATOM     11  O   UNL     1      34.905 -22.360 -16.171  0.00  0.00    -0.149 OA
BRANCH   9  12
ATOM     12  C   UNL     1      32.590 -23.418 -15.597  0.00  0.00    +0.126 C 
ATOM     13  C   UNL     1      32.536 -23.578 -14.212  0.00  0.00    +0.020 C 
ATOM     14  C   UNL     1      31.425 -23.146 -16.315  0.00  0.00    +0.020 C 
ATOM     15  C   UNL     1      31.317 -23.467 -13.545  0.00  0.00    +0.001 C 
ATOM     16  C   UNL     1      30.205 -23.035 -15.647  0.00  0.00    +0.001 C 
ATOM     17  C   UNL     1      30.151 -23.195 -14.262  0.00  0.00    +0.000 C 
ENDBRANCH   9  12
ENDBRANCH   1   9
BRANCH   5  18
ATOM     18  O   UNL     1      35.115 -19.376 -21.248  0.00  0.00    -0.473 OA
BRANCH  18  19
ATOM     19  C   UNL     1      34.179 -18.303 -21.394  0.00  0.00    +0.237 C 
BRANCH  19  20
ATOM     20  C   UNL     1      34.941 -17.009 -21.608  0.00  0.00    +0.189 C 
BRANCH  20  21
ATOM     21  O   UNL     1      35.002 -16.297 -20.378  0.00  0.00    -0.347 OA
ATOM     22  C   UNL     1      34.504 -14.974 -20.517  0.00  0.00    +0.174 C 
ENDBRANCH  20  21
ENDBRANCH  19  20
ENDBRANCH  18  19
ENDBRANCH   5  18
TORSDOF 6
ENDMDL
MODEL 7
REMARK VINA RESULT:      -8.0      3.680      8.210
REMARK  Name = 9565
REMARK  6 active torsions:
REMARK  status: ('A' for Active; 'I' for Inactive)
REMARK    1  A    between atoms: N_1  and  S_9
REMARK    2  A    between atoms: C_5  and  O_18
REMARK    3  A    between atoms: S_9  and  C_12
REMARK    4  A    between atoms: O_18  and  C_19
REMARK    5  A    between atoms: C_19  and  C_20
REMARK    6  A    between atoms: C_20  and  O_21
REMARK                            x       y       z     vdW  Elec       q    Type
REMARK                         _______ _______ _______ _____ _____    ______ ____
ROOT
ATOM      1  N   UNL     1      35.337 -17.122 -20.593  0.00  0.00    -0.158 N 
ATOM      2  N   UNL     1      35.001 -14.867 -21.201  0.00  0.00    -0.199 NA
ATOM      3  N   UNL     1      33.133 -16.372 -20.975  0.00  0.00    -0.176 NA
ATOM      4  C   UNL     1      34.437 -16.056 -20.943  0.00  0.00    +0.106 C 
ATOM      5  C   UNL     1      32.763 -14.076 -21.597  0.00  0.00    +0.161 C 
ATOM      6  C   UNL     1      34.129 -13.891 -21.527  0.00  0.00    +0.203 C 
ATOM      7  C   UNL     1      32.318 -15.350 -21.307  0.00  0.00    +0.145 C 
ATOM      8  H   UNL     1      35.840 -17.102 -19.747  0.00  0.00    +0.186 HD
ENDROOT
BRANCH   1   9
ATOM      9  S   UNL     1      35.509 -18.434 -21.696  0.00  0.00    +0.081 S 
ATOM     10  O   UNL     1      34.575 -18.225 -22.797  0.00  0.00    -0.149 OA
ATOM     11  O   UNL     1      36.921 -18.631 -22.001  0.00  0.00    -0.149 OA
BRANCH   9  12
ATOM     12  C   UNL     1      34.940 -19.798 -20.767  0.00  0.00    +0.126 C 
ATOM     13  C   UNL     1      35.854 -20.693 -20.210  0.00  0.00    +0.020 C 
ATOM     14  C   UNL     1      33.571 -19.993 -20.582  0.00  0.00    +0.020 C 
ATOM     15  C   UNL     1      35.400 -21.782 -19.468  0.00  0.00    +0.001 C 
ATOM     16  C   UNL     1      33.116 -21.083 -19.840  0.00  0.00    +0.001 C 
ATOM     17  C   UNL     1      34.031 -21.978 -19.283  0.00  0.00    +0.000 C 
ENDBRANCH   9  12
ENDBRANCH   1   9
BRANCH   5  18
ATOM     18  O   UNL     1      31.917 -13.076 -21.927  0.00  0.00    -0.473 OA
BRANCH  18  19
ATOM     19  C   UNL     1      31.662 -12.075 -20.936  0.00  0.00    +0.237 C 
BRANCH  19  20
ATOM     20  C   UNL     1      31.586 -10.719 -21.612  0.00  0.00    +0.189 C 
BRANCH  20  21
ATOM     21  O   UNL     1      31.553  -9.705 -20.615  0.00  0.00    -0.347 OA
ATOM     22  C   UNL     1      31.831 -10.233 -19.326  0.00  0.00    +0.174 C 
ENDBRANCH  20  21
ENDBRANCH  19  20
ENDBRANCH  18  19
ENDBRANCH   5  18
TORSDOF 6
ENDMDL
MODEL 8
REMARK VINA RESULT:      -8.0      3.765      5.455
REMARK  Name = 9565
REMARK  6 active torsions:
REMARK  status: ('A' for Active; 'I' for Inactive)
REMARK    1  A    between atoms: N_1  and  S_9
REMARK    2  A    between atoms: C_5  and  O_18
REMARK    3  A    between atoms: S_9  and  C_12
REMARK    4  A    between atoms: O_18  and  C_19
REMARK    5  A    between atoms: C_19  and  C_20
REMARK    6  A    between atoms: C_20  and  O_21
REMARK                            x       y       z     vdW  Elec       q    Type
REMARK                         _______ _______ _______ _____ _____    ______ ____
ROOT
ATOM      1  N   UNL     1      34.606 -13.872 -22.845  0.00  0.00    -0.158 N 
ATOM      2  N   UNL     1      34.396 -15.720 -21.395  0.00  0.00    -0.199 NA
ATOM      3  N   UNL     1      34.785 -16.043 -23.751  0.00  0.00    -0.176 NA
ATOM      4  C   UNL     1      34.596 -15.297 -22.651  0.00  0.00    +0.106 C 
ATOM      5  C   UNL     1      34.574 -17.946 -22.292  0.00  0.00    +0.161 C 
ATOM      6  C   UNL     1      34.391 -17.062 -21.248  0.00  0.00    +0.203 C 
ATOM      7  C   UNL     1      34.768 -17.374 -23.532  0.00  0.00    +0.145 C 
ATOM      8  H   UNL     1      35.327 -13.316 -22.472  0.00  0.00    +0.186 HD
ENDROOT
BRANCH   1   9
ATOM      9  S   UNL     1      33.320 -13.167 -23.750  0.00  0.00    +0.081 S 
ATOM     10  O   UNL     1      33.904 -12.313 -24.777  0.00  0.00    -0.149 OA
ATOM     11  O   UNL     1      32.381 -14.207 -24.152  0.00  0.00    -0.149 OA
BRANCH   9  12
ATOM     12  C   UNL     1      32.543 -12.134 -22.577  0.00  0.00    +0.126 C 
ATOM     13  C   UNL     1      32.036 -12.676 -21.395  0.00  0.00    +0.020 C 
ATOM     14  C   UNL     1      32.428 -10.765 -22.821  0.00  0.00    +0.020 C 
ATOM     15  C   UNL     1      31.415 -11.850 -20.459  0.00  0.00    +0.001 C 
ATOM     16  C   UNL     1      31.807  -9.938 -21.885  0.00  0.00    +0.001 C 
ATOM     17  C   UNL     1      31.300 -10.481 -20.703  0.00  0.00    +0.000 C 
ENDBRANCH   9  12
ENDBRANCH   1   9
BRANCH   5  18
ATOM     18  O   UNL     1      34.563 -19.285 -22.110  0.00  0.00    -0.473 OA
BRANCH  18  19
ATOM     19  C   UNL     1      34.311 -19.769 -20.787  0.00  0.00    +0.237 C 
BRANCH  19  20
ATOM     20  C   UNL     1      32.845 -20.138 -20.666  0.00  0.00    +0.189 C 
BRANCH  20  21
ATOM     21  O   UNL     1      32.740 -21.498 -20.265  0.00  0.00    -0.347 OA
ATOM     22  C   UNL     1      33.665 -21.809 -19.232  0.00  0.00    +0.174 C 
ENDBRANCH  20  21
ENDBRANCH  19  20
ENDBRANCH  18  19
ENDBRANCH   5  18
TORSDOF 6
ENDMDL
MODEL 9
REMARK VINA RESULT:      -7.9      8.455      9.366
REMARK  Name = 9565
REMARK  6 active torsions:
REMARK  status: ('A' for Active; 'I' for Inactive)
REMARK    1  A    between atoms: N_1  and  S_9
REMARK    2  A    between atoms: C_5  and  O_18
REMARK    3  A    between atoms: S_9  and  C_12
REMARK    4  A    between atoms: O_18  and  C_19
REMARK    5  A    between atoms: C_19  and  C_20
REMARK    6  A    between atoms: C_20  and  O_21
REMARK                            x       y       z     vdW  Elec       q    Type
REMARK                         _______ _______ _______ _____ _____    ______ ____
ROOT
ATOM      1  N   UNL     1      33.076 -23.741 -15.561  0.00  0.00    -0.158 N 
ATOM      2  N   UNL     1      35.179 -22.723 -15.233  0.00  0.00    -0.199 NA
ATOM      3  N   UNL     1      34.920 -25.109 -15.018  0.00  0.00    -0.176 NA
ATOM      4  C   UNL     1      34.475 -23.865 -15.253  0.00  0.00    +0.106 C 
ATOM      5  C   UNL     1      37.076 -24.095 -14.678  0.00  0.00    +0.161 C 
ATOM      6  C   UNL     1      36.487 -22.875 -14.940  0.00  0.00    +0.203 C 
ATOM      7  C   UNL     1      36.236 -25.188 -14.732  0.00  0.00    +0.145 C 
ATOM      8  H   UNL     1      32.778 -23.462 -16.456  0.00  0.00    +0.186 HD
ENDROOT
BRANCH   1   9
ATOM      9  S   UNL     1      31.938 -24.093 -14.316  0.00  0.00    +0.081 S 
ATOM     10  O   UNL     1      31.995 -25.525 -14.043  0.00  0.00    -0.149 OA
ATOM     11  O   UNL     1      32.119 -23.160 -13.212  0.00  0.00    -0.149 OA
BRANCH   9  12
ATOM     12  C   UNL     1      30.407 -23.759 -15.086  0.00  0.00    +0.126 C 
ATOM     13  C   UNL     1      29.793 -24.734 -15.872  0.00  0.00    +0.020 C 
ATOM     14  C   UNL     1      29.797 -22.516 -14.914  0.00  0.00    +0.020 C 
ATOM     15  C   UNL     1      28.571 -24.467 -16.487  0.00  0.00    +0.001 C 
ATOM     16  C   UNL     1      28.574 -22.248 -15.529  0.00  0.00    +0.001 C 
ATOM     17  C   UNL     1      27.960 -23.224 -16.316  0.00  0.00    +0.000 C 
ENDBRANCH   9  12
ENDBRANCH   1   9
BRANCH   5  18
ATOM     18  O   UNL     1      38.391 -24.212 -14.388  0.00  0.00    -0.473 OA
BRANCH  18  19
ATOM     19  C   UNL     1      38.741 -24.897 -13.180  0.00  0.00    +0.237 C 
BRANCH  19  20
ATOM     20  C   UNL     1      38.397 -24.017 -11.994  0.00  0.00    +0.189 C 
BRANCH  20  21
ATOM     21  O   UNL     1      37.448 -24.691 -11.176  0.00  0.00    -0.347 OA
ATOM     22  C   UNL     1      36.224 -23.975 -11.101  0.00  0.00    +0.174 C 
ENDBRANCH  20  21
ENDBRANCH  19  20
ENDBRANCH  18  19
ENDBRANCH   5  18
TORSDOF 6
ENDMDL
