MODEL 1
REMARK VINA RESULT:      -5.4      0.000      0.000
REMARK  Name = 445160
REMARK  9 active torsions:
REMARK  status: ('A' for Active; 'I' for Inactive)
REMARK    1  A    between atoms: C_1  and  C_2
REMARK    2  A    between atoms: C_1  and  C_9
REMARK    3  A    between atoms: C_2  and  S_3
REMARK    4  A    between atoms: C_2  and  C_5
REMARK    5  A    between atoms: C_5  and  C_6
REMARK    6  A    between atoms: C_6  and  S_7
REMARK    7  A    between atoms: C_9  and  C_10
REMARK    8  A    between atoms: C_10  and  C_11
REMARK    9  A    between atoms: C_11  and  C_14
REMARK                            x       y       z     vdW  Elec       q    Type
REMARK                         _______ _______ _______ _____ _____    ______ ____
ROOT
ATOM      1  C   UNL     1      35.766 -18.328 -22.949  0.00  0.00    +0.011 C 
ENDROOT
BRANCH   1   2
ATOM      2  C   UNL     1      35.187 -18.266 -21.520  0.00  0.00    +0.045 C 
BRANCH   2   3
ATOM      3  S   UNL     1      34.661 -16.562 -21.103  0.00  0.00    -0.169 S 
ATOM      4  H   UNL     1      34.941 -15.733 -22.145  0.00  0.00    +0.102 HD
ENDBRANCH   2   3
BRANCH   2   5
ATOM      5  C   UNL     1      34.009 -19.256 -21.386  0.00  0.00    +0.022 C 
BRANCH   5   6
ATOM      6  C   UNL     1      34.144 -20.357 -20.329  0.00  0.00    +0.054 C 
BRANCH   6   7
ATOM      7  S   UNL     1      35.853 -20.934 -20.115  0.00  0.00    -0.168 S 
ATOM      8  H   UNL     1      36.711 -20.011 -20.625  0.00  0.00    +0.102 HD
ENDBRANCH   6   7
ENDBRANCH   5   6
ENDBRANCH   2   5
ENDBRANCH   1   2
BRANCH   1   9
ATOM      9  C   UNL     1      34.945 -19.192 -23.917  0.00  0.00    +0.001 C 
BRANCH   9  10
ATOM     10  C   UNL     1      34.264 -18.328 -24.984  0.00  0.00    +0.010 C 
BRANCH  10  11
ATOM     11  C   UNL     1      34.855 -16.922 -25.059  0.00  0.00    +0.085 C 
BRANCH  11  14
ATOM     12  O   UNL     1      33.347 -15.769 -26.537  0.00  0.00    -0.275 OA
ATOM     13  N   UNL     1      33.474 -15.066 -24.350  0.00  0.00    -0.329 N 
ATOM     14  C   UNL     1      33.820 -15.874 -25.409  0.00  0.00    +0.219 C 
ATOM     15  H   UNL     1      32.808 -14.352 -24.472  0.00  0.00    +0.145 HD
ATOM     16  H   UNL     1      33.893 -15.202 -23.469  0.00  0.00    +0.145 HD
ENDBRANCH  11  14
ENDBRANCH  10  11
ENDBRANCH   9  10
ENDBRANCH   1   9
TORSDOF 9
ENDMDL
MODEL 2
REMARK VINA RESULT:      -5.4      4.607      6.478
REMARK  Name = 445160
REMARK  9 active torsions:
REMARK  status: ('A' for Active; 'I' for Inactive)
REMARK    1  A    between atoms: C_1  and  C_2
REMARK    2  A    between atoms: C_1  and  C_9
REMARK    3  A    between atoms: C_2  and  S_3
REMARK    4  A    between atoms: C_2  and  C_5
REMARK    5  A    between atoms: C_5  and  C_6
REMARK    6  A    between atoms: C_6  and  S_7
REMARK    7  A    between atoms: C_9  and  C_10
REMARK    8  A    between atoms: C_10  and  C_11
REMARK    9  A    between atoms: C_11  and  C_14
REMARK                            x       y       z     vdW  Elec       q    Type
REMARK                         _______ _______ _______ _____ _____    ______ ____
ROOT
ATOM      1  C   UNL     1      34.562 -19.827 -21.085  0.00  0.00    +0.011 C 
ENDROOT
BRANCH   1   2
ATOM      2  C   UNL     1      34.385 -18.631 -22.043  0.00  0.00    +0.045 C 
BRANCH   2   3
ATOM      3  S   UNL     1      34.882 -17.066 -21.231  0.00  0.00    -0.169 S 
ATOM      4  H   UNL     1      33.856 -16.176 -21.297  0.00  0.00    +0.102 HD
ENDBRANCH   2   3
BRANCH   2   5
ATOM      5  C   UNL     1      35.198 -18.866 -23.334  0.00  0.00    +0.022 C 
BRANCH   5   6
ATOM      6  C   UNL     1      34.495 -18.564 -24.662  0.00  0.00    +0.054 C 
BRANCH   6   7
ATOM      7  S   UNL     1      34.511 -16.799 -25.091  0.00  0.00    -0.168 S 
ATOM      8  H   UNL     1      35.365 -16.139 -24.264  0.00  0.00    +0.102 HD
ENDBRANCH   6   7
ENDBRANCH   5   6
ENDBRANCH   2   5
ENDBRANCH   1   2
BRANCH   1   9
ATOM      9  C   UNL     1      33.284 -20.213 -20.327  0.00  0.00    +0.001 C 
BRANCH   9  10
ATOM     10  C   UNL     1      33.492 -21.494 -19.511  0.00  0.00    +0.010 C 
BRANCH  10  11
ATOM     11  C   UNL     1      34.918 -22.031 -19.626  0.00  0.00    +0.085 C 
BRANCH  11  14
ATOM     12  O   UNL     1      35.356 -22.712 -17.360  0.00  0.00    -0.275 OA
ATOM     13  N   UNL     1      36.693 -21.082 -18.283  0.00  0.00    -0.329 N 
ATOM     14  C   UNL     1      35.661 -21.992 -18.308  0.00  0.00    +0.219 C 
ATOM     15  H   UNL     1      37.240 -20.980 -17.472  0.00  0.00    +0.145 HD
ATOM     16  H   UNL     1      36.885 -20.534 -19.078  0.00  0.00    +0.145 HD
ENDBRANCH  11  14
ENDBRANCH  10  11
ENDBRANCH   9  10
ENDBRANCH   1   9
TORSDOF 9
ENDMDL
MODEL 3
REMARK VINA RESULT:      -5.4      4.960      6.398
REMARK  Name = 445160
REMARK  9 active torsions:
REMARK  status: ('A' for Active; 'I' for Inactive)
REMARK    1  A    between atoms: C_1  and  C_2
REMARK    2  A    between atoms: C_1  and  C_9
REMARK    3  A    between atoms: C_2  and  S_3
REMARK    4  A    between atoms: C_2  and  C_5
REMARK    5  A    between atoms: C_5  and  C_6
REMARK    6  A    between atoms: C_6  and  S_7
REMARK    7  A    between atoms: C_9  and  C_10
REMARK    8  A    between atoms: C_10  and  C_11
REMARK    9  A    between atoms: C_11  and  C_14
REMARK                            x       y       z     vdW  Elec       q    Type
REMARK                         _______ _______ _______ _____ _____    ______ ____
ROOT
ATOM      1  C   UNL     1      35.066 -19.164 -21.051  0.00  0.00    +0.011 C 
ENDROOT
BRANCH   1   2
ATOM      2  C   UNL     1      35.521 -17.858 -21.733  0.00  0.00    +0.045 C 
BRANCH   2   3
ATOM      3  S   UNL     1      35.088 -17.866 -23.513  0.00  0.00    -0.169 S 
ATOM      4  H   UNL     1      36.222 -17.978 -24.255  0.00  0.00    +0.102 HD
ENDBRANCH   2   3
BRANCH   2   5
ATOM      5  C   UNL     1      34.892 -16.643 -21.017  0.00  0.00    +0.022 C 
BRANCH   5   6
ATOM      6  C   UNL     1      34.437 -15.475 -21.899  0.00  0.00    +0.054 C 
BRANCH   6   7
ATOM      7  S   UNL     1      32.741 -14.932 -21.543  0.00  0.00    -0.168 S 
ATOM      8  H   UNL     1      31.912 -16.009 -21.535  0.00  0.00    +0.102 HD
ENDBRANCH   6   7
ENDBRANCH   5   6
ENDBRANCH   2   5
ENDBRANCH   1   2
BRANCH   1   9
ATOM      9  C   UNL     1      33.541 -19.313 -20.945  0.00  0.00    +0.001 C 
BRANCH   9  10
ATOM     10  C   UNL     1      33.164 -20.578 -20.165  0.00  0.00    +0.010 C 
BRANCH  10  11
ATOM     11  C   UNL     1      34.390 -21.358 -19.694  0.00  0.00    +0.085 C 
BRANCH  11  14
ATOM     12  O   UNL     1      34.950 -22.842 -17.884  0.00  0.00    -0.275 OA
ATOM     13  N   UNL     1      32.725 -22.517 -18.375  0.00  0.00    -0.329 N 
ATOM     14  C   UNL     1      34.072 -22.311 -18.561  0.00  0.00    +0.219 C 
ATOM     15  H   UNL     1      32.413 -23.120 -17.663  0.00  0.00    +0.145 HD
ATOM     16  H   UNL     1      32.072 -22.060 -18.954  0.00  0.00    +0.145 HD
ENDBRANCH  11  14
ENDBRANCH  10  11
ENDBRANCH   9  10
ENDBRANCH   1   9
TORSDOF 9
ENDMDL
MODEL 4
REMARK VINA RESULT:      -5.3      4.647      6.166
REMARK  Name = 445160
REMARK  9 active torsions:
REMARK  status: ('A' for Active; 'I' for Inactive)
REMARK    1  A    between atoms: C_1  and  C_2
REMARK    2  A    between atoms: C_1  and  C_9
REMARK    3  A    between atoms: C_2  and  S_3
REMARK    4  A    between atoms: C_2  and  C_5
REMARK    5  A    between atoms: C_5  and  C_6
REMARK    6  A    between atoms: C_6  and  S_7
REMARK    7  A    between atoms: C_9  and  C_10
REMARK    8  A    between atoms: C_10  and  C_11
REMARK    9  A    between atoms: C_11  and  C_14
REMARK                            x       y       z     vdW  Elec       q    Type
REMARK                         _______ _______ _______ _____ _____    ______ ____
ROOT
ATOM      1  C   UNL     1      34.706 -18.940 -22.789  0.00  0.00    +0.011 C 
ENDROOT
BRANCH   1   2
ATOM      2  C   UNL     1      35.253 -17.601 -23.322  0.00  0.00    +0.045 C 
BRANCH   2   3
ATOM      3  S   UNL     1      34.612 -17.257 -25.003  0.00  0.00    -0.169 S 
ATOM      4  H   UNL     1      35.317 -17.981 -25.914  0.00  0.00    +0.102 HD
ENDBRANCH   2   3
BRANCH   2   5
ATOM      5  C   UNL     1      34.890 -16.459 -22.348  0.00  0.00    +0.022 C 
BRANCH   5   6
ATOM      6  C   UNL     1      33.901 -15.402 -22.855  0.00  0.00    +0.054 C 
BRANCH   6   7
ATOM      7  S   UNL     1      32.697 -14.892 -21.595  0.00  0.00    -0.168 S 
ATOM      8  H   UNL     1      31.799 -15.892 -21.394  0.00  0.00    +0.102 HD
ENDBRANCH   6   7
ENDBRANCH   5   6
ENDBRANCH   2   5
ENDBRANCH   1   2
BRANCH   1   9
ATOM      9  C   UNL     1      34.324 -18.911 -21.303  0.00  0.00    +0.001 C 
BRANCH   9  10
ATOM     10  C   UNL     1      34.604 -20.262 -20.635  0.00  0.00    +0.010 C 
BRANCH  10  11
ATOM     11  C   UNL     1      33.373 -20.827 -19.928  0.00  0.00    +0.085 C 
BRANCH  11  14
ATOM     12  O   UNL     1      34.721 -22.726 -19.321  0.00  0.00    -0.275 OA
ATOM     13  N   UNL     1      32.668 -22.483 -18.310  0.00  0.00    -0.329 N 
ATOM     14  C   UNL     1      33.673 -22.103 -19.169  0.00  0.00    +0.219 C 
ATOM     15  H   UNL     1      32.765 -23.299 -17.769  0.00  0.00    +0.145 HD
ATOM     16  H   UNL     1      31.851 -21.938 -18.236  0.00  0.00    +0.145 HD
ENDBRANCH  11  14
ENDBRANCH  10  11
ENDBRANCH   9  10
ENDBRANCH   1   9
TORSDOF 9
ENDMDL
MODEL 5
REMARK VINA RESULT:      -5.2      4.312      6.028
REMARK  Name = 445160
REMARK  9 active torsions:
REMARK  status: ('A' for Active; 'I' for Inactive)
REMARK    1  A    between atoms: C_1  and  C_2
REMARK    2  A    between atoms: C_1  and  C_9
REMARK    3  A    between atoms: C_2  and  S_3
REMARK    4  A    between atoms: C_2  and  C_5
REMARK    5  A    between atoms: C_5  and  C_6
REMARK    6  A    between atoms: C_6  and  S_7
REMARK    7  A    between atoms: C_9  and  C_10
REMARK    8  A    between atoms: C_10  and  C_11
REMARK    9  A    between atoms: C_11  and  C_14
REMARK                            x       y       z     vdW  Elec       q    Type
REMARK                         _______ _______ _______ _____ _____    ______ ____
ROOT
ATOM      1  C   UNL     1      35.368 -17.649 -21.900  0.00  0.00    +0.011 C 
ENDROOT
BRANCH   1   2
ATOM      2  C   UNL     1      34.399 -16.481 -22.173  0.00  0.00    +0.045 C 
BRANCH   2   3
ATOM      3  S   UNL     1      34.413 -15.284 -20.787  0.00  0.00    -0.169 S 
ATOM      4  H   UNL     1      33.848 -14.115 -21.191  0.00  0.00    +0.102 HD
ENDBRANCH   2   3
BRANCH   2   5
ATOM      5  C   UNL     1      34.768 -15.789 -23.503  0.00  0.00    +0.022 C 
BRANCH   5   6
ATOM      6  C   UNL     1      34.190 -16.397 -24.786  0.00  0.00    +0.054 C 
BRANCH   6   7
ATOM      7  S   UNL     1      33.320 -15.182 -25.820  0.00  0.00    -0.168 S 
ATOM      8  H   UNL     1      34.217 -14.536 -26.611  0.00  0.00    +0.102 HD
ENDBRANCH   6   7
ENDBRANCH   5   6
ENDBRANCH   2   5
ENDBRANCH   1   2
BRANCH   1   9
ATOM      9  C   UNL     1      34.761 -19.035 -22.158  0.00  0.00    +0.001 C 
BRANCH   9  10
ATOM     10  C   UNL     1      34.164 -19.623 -20.874  0.00  0.00    +0.010 C 
BRANCH  10  11
ATOM     11  C   UNL     1      35.085 -20.654 -20.223  0.00  0.00    +0.085 C 
BRANCH  11  14
ATOM     12  O   UNL     1      34.881 -22.540 -18.742  0.00  0.00    -0.275 OA
ATOM     13  N   UNL     1      32.962 -21.675 -19.673  0.00  0.00    -0.329 N 
ATOM     14  C   UNL     1      34.321 -21.720 -19.467  0.00  0.00    +0.219 C 
ATOM     15  H   UNL     1      32.374 -22.326 -19.226  0.00  0.00    +0.145 HD
ATOM     16  H   UNL     1      32.576 -20.992 -20.268  0.00  0.00    +0.145 HD
ENDBRANCH  11  14
ENDBRANCH  10  11
ENDBRANCH   9  10
ENDBRANCH   1   9
TORSDOF 9
ENDMDL
MODEL 6
REMARK VINA RESULT:      -5.1      0.937      2.430
REMARK  Name = 445160
REMARK  9 active torsions:
REMARK  status: ('A' for Active; 'I' for Inactive)
REMARK    1  A    between atoms: C_1  and  C_2
REMARK    2  A    between atoms: C_1  and  C_9
REMARK    3  A    between atoms: C_2  and  S_3
REMARK    4  A    between atoms: C_2  and  C_5
REMARK    5  A    between atoms: C_5  and  C_6
REMARK    6  A    between atoms: C_6  and  S_7
REMARK    7  A    between atoms: C_9  and  C_10
REMARK    8  A    between atoms: C_10  and  C_11
REMARK    9  A    between atoms: C_11  and  C_14
REMARK                            x       y       z     vdW  Elec       q    Type
REMARK                         _______ _______ _______ _____ _____    ______ ____
ROOT
ATOM      1  C   UNL     1      35.448 -18.824 -23.132  0.00  0.00    +0.011 C 
ENDROOT
BRANCH   1   2
ATOM      2  C   UNL     1      34.547 -19.142 -21.921  0.00  0.00    +0.045 C 
BRANCH   2   3
ATOM      3  S   UNL     1      35.433 -20.188 -20.706  0.00  0.00    -0.169 S 
ATOM      4  H   UNL     1      34.600 -20.487 -19.674  0.00  0.00    +0.102 HD
ENDBRANCH   2   3
BRANCH   2   5
ATOM      5  C   UNL     1      34.058 -17.831 -21.269  0.00  0.00    +0.022 C 
BRANCH   5   6
ATOM      6  C   UNL     1      34.969 -16.606 -21.406  0.00  0.00    +0.054 C 
BRANCH   6   7
ATOM      7  S   UNL     1      34.264 -15.107 -20.660  0.00  0.00    -0.168 S 
ATOM      8  H   UNL     1      34.313 -14.088 -21.559  0.00  0.00    +0.102 HD
ENDBRANCH   6   7
ENDBRANCH   5   6
ENDBRANCH   2   5
ENDBRANCH   1   2
BRANCH   1   9
ATOM      9  C   UNL     1      34.903 -19.346 -24.469  0.00  0.00    +0.001 C 
BRANCH   9  10
ATOM     10  C   UNL     1      34.080 -18.270 -25.187  0.00  0.00    +0.010 C 
BRANCH  10  11
ATOM     11  C   UNL     1      34.748 -16.897 -25.136  0.00  0.00    +0.085 C 
BRANCH  11  14
ATOM     12  O   UNL     1      33.389 -15.541 -26.588  0.00  0.00    -0.275 OA
ATOM     13  N   UNL     1      33.408 -15.046 -24.340  0.00  0.00    -0.329 N 
ATOM     14  C   UNL     1      33.784 -15.771 -25.447  0.00  0.00    +0.219 C 
ATOM     15  H   UNL     1      32.783 -14.292 -24.435  0.00  0.00    +0.145 HD
ATOM     16  H   UNL     1      33.763 -15.283 -23.453  0.00  0.00    +0.145 HD
ENDBRANCH  11  14
ENDBRANCH  10  11
ENDBRANCH   9  10
ENDBRANCH   1   9
TORSDOF 9
ENDMDL
MODEL 7
REMARK VINA RESULT:      -5.0      4.263      5.602
REMARK  Name = 445160
REMARK  9 active torsions:
REMARK  status: ('A' for Active; 'I' for Inactive)
REMARK    1  A    between atoms: C_1  and  C_2
REMARK    2  A    between atoms: C_1  and  C_9
REMARK    3  A    between atoms: C_2  and  S_3
REMARK    4  A    between atoms: C_2  and  C_5
REMARK    5  A    between atoms: C_5  and  C_6
REMARK    6  A    between atoms: C_6  and  S_7
REMARK    7  A    between atoms: C_9  and  C_10
REMARK    8  A    between atoms: C_10  and  C_11
REMARK    9  A    between atoms: C_11  and  C_14
REMARK                            x       y       z     vdW  Elec       q    Type
REMARK                         _______ _______ _______ _____ _____    ______ ____
ROOT
ATOM      1  C   UNL     1      34.979 -17.073 -21.225  0.00  0.00    +0.011 C 
ENDROOT
BRANCH   1   2
ATOM      2  C   UNL     1      34.461 -15.725 -21.764  0.00  0.00    +0.045 C 
BRANCH   2   3
ATOM      3  S   UNL     1      34.504 -15.695 -23.595  0.00  0.00    -0.169 S 
ATOM      4  H   UNL     1      33.859 -16.788 -24.082  0.00  0.00    +0.102 HD
ENDBRANCH   2   3
BRANCH   2   5
ATOM      5  C   UNL     1      33.032 -15.463 -21.241  0.00  0.00    +0.022 C 
BRANCH   5   6
ATOM      6  C   UNL     1      32.706 -14.033 -20.796  0.00  0.00    +0.054 C 
BRANCH   6   7
ATOM      7  S   UNL     1      32.230 -12.948 -22.173  0.00  0.00    -0.168 S 
ATOM      8  H   UNL     1      32.910 -13.312 -23.292  0.00  0.00    +0.102 HD
ENDBRANCH   6   7
ENDBRANCH   5   6
ENDBRANCH   2   5
ENDBRANCH   1   2
BRANCH   1   9
ATOM      9  C   UNL     1      35.542 -18.003 -22.309  0.00  0.00    +0.001 C 
BRANCH   9  10
ATOM     10  C   UNL     1      34.936 -19.407 -22.201  0.00  0.00    +0.010 C 
BRANCH  10  11
ATOM     11  C   UNL     1      33.770 -19.463 -21.215  0.00  0.00    +0.085 C 
BRANCH  11  14
ATOM     12  O   UNL     1      35.108 -20.727 -19.665  0.00  0.00    -0.275 OA
ATOM     13  N   UNL     1      32.832 -21.068 -19.666  0.00  0.00    -0.329 N 
ATOM     14  C   UNL     1      33.991 -20.473 -20.110  0.00  0.00    +0.219 C 
ATOM     15  H   UNL     1      32.867 -21.740 -18.948  0.00  0.00    +0.145 HD
ATOM     16  H   UNL     1      31.967 -20.820 -20.066  0.00  0.00    +0.145 HD
ENDBRANCH  11  14
ENDBRANCH  10  11
ENDBRANCH   9  10
ENDBRANCH   1   9
TORSDOF 9
ENDMDL
MODEL 8
REMARK VINA RESULT:      -5.0      1.926      2.263
REMARK  Name = 445160
REMARK  9 active torsions:
REMARK  status: ('A' for Active; 'I' for Inactive)
REMARK    1  A    between atoms: C_1  and  C_2
REMARK    2  A    between atoms: C_1  and  C_9
REMARK    3  A    between atoms: C_2  and  S_3
REMARK    4  A    between atoms: C_2  and  C_5
REMARK    5  A    between atoms: C_5  and  C_6
REMARK    6  A    between atoms: C_6  and  S_7
REMARK    7  A    between atoms: C_9  and  C_10
REMARK    8  A    between atoms: C_10  and  C_11
REMARK    9  A    between atoms: C_11  and  C_14
REMARK                            x       y       z     vdW  Elec       q    Type
REMARK                         _______ _______ _______ _____ _____    ______ ____
ROOT
ATOM      1  C   UNL     1      35.169 -17.096 -21.736  0.00  0.00    +0.011 C 
ENDROOT
BRANCH   1   2
ATOM      2  C   UNL     1      34.610 -18.513 -21.983  0.00  0.00    +0.045 C 
BRANCH   2   3
ATOM      3  S   UNL     1      34.832 -19.005 -23.733  0.00  0.00    -0.169 S 
ATOM      4  H   UNL     1      33.929 -19.970 -24.050  0.00  0.00    +0.102 HD
ENDBRANCH   2   3
BRANCH   2   5
ATOM      5  C   UNL     1      35.294 -19.521 -21.034  0.00  0.00    +0.022 C 
BRANCH   5   6
ATOM      6  C   UNL     1      34.388 -20.535 -20.329  0.00  0.00    +0.054 C 
BRANCH   6   7
ATOM      7  S   UNL     1      35.308 -21.724 -19.309  0.00  0.00    -0.168 S 
ATOM      8  H   UNL     1      36.642 -21.564 -19.519  0.00  0.00    +0.102 HD
ENDBRANCH   6   7
ENDBRANCH   5   6
ENDBRANCH   2   5
ENDBRANCH   1   2
BRANCH   1   9
ATOM      9  C   UNL     1      34.189 -15.969 -22.094  0.00  0.00    +0.001 C 
BRANCH   9  10
ATOM     10  C   UNL     1      34.614 -15.258 -23.383  0.00  0.00    +0.010 C 
BRANCH  10  11
ATOM     11  C   UNL     1      33.420 -14.740 -24.183  0.00  0.00    +0.085 C 
BRANCH  11  14
ATOM     12  O   UNL     1      34.178 -16.131 -25.994  0.00  0.00    -0.275 OA
ATOM     13  N   UNL     1      32.443 -14.673 -26.396  0.00  0.00    -0.329 N 
ATOM     14  C   UNL     1      33.401 -15.263 -25.604  0.00  0.00    +0.219 C 
ATOM     15  H   UNL     1      32.348 -14.943 -27.337  0.00  0.00    +0.145 HD
ATOM     16  H   UNL     1      31.852 -13.981 -26.020  0.00  0.00    +0.145 HD
ENDBRANCH  11  14
ENDBRANCH  10  11
ENDBRANCH   9  10
ENDBRANCH   1   9
TORSDOF 9
ENDMDL
MODEL 9
REMARK VINA RESULT:      -5.0      3.619      5.066
REMARK  Name = 445160
REMARK  9 active torsions:
REMARK  status: ('A' for Active; 'I' for Inactive)
REMARK    1  A    between atoms: C_1  and  C_2
REMARK    2  A    between atoms: C_1  and  C_9
REMARK    3  A    between atoms: C_2  and  S_3
REMARK    4  A    between atoms: C_2  and  C_5
REMARK    5  A    between atoms: C_5  and  C_6
REMARK    6  A    between atoms: C_6  and  S_7
REMARK    7  A    between atoms: C_9  and  C_10
REMARK    8  A    between atoms: C_10  and  C_11
REMARK    9  A    between atoms: C_11  and  C_14
REMARK                            x       y       z     vdW  Elec       q    Type
REMARK                         _______ _______ _______ _____ _____    ______ ____
ROOT
ATOM      1  C   UNL     1      34.404 -17.223 -24.823  0.00  0.00    +0.011 C 
ENDROOT
BRANCH   1   2
ATOM      2  C   UNL     1      34.180 -15.701 -24.712  0.00  0.00    +0.045 C 
BRANCH   2   3
ATOM      3  S   UNL     1      33.160 -15.088 -26.105  0.00  0.00    -0.169 S 
ATOM      4  H   UNL     1      32.155 -14.310 -25.622  0.00  0.00    +0.102 HD
ENDBRANCH   2   3
BRANCH   2   5
ATOM      5  C   UNL     1      33.522 -15.364 -23.356  0.00  0.00    +0.022 C 
BRANCH   5   6
ATOM      6  C   UNL     1      34.369 -14.575 -22.351  0.00  0.00    +0.054 C 
BRANCH   6   7
ATOM      7  S   UNL     1      34.449 -15.361 -20.715  0.00  0.00    -0.168 S 
ATOM      8  H   UNL     1      34.167 -14.440 -19.756  0.00  0.00    +0.102 HD
ENDBRANCH   6   7
ENDBRANCH   5   6
ENDBRANCH   2   5
ENDBRANCH   1   2
BRANCH   1   9
ATOM      9  C   UNL     1      35.293 -17.804 -23.715  0.00  0.00    +0.001 C 
BRANCH   9  10
ATOM     10  C   UNL     1      34.801 -19.192 -23.286  0.00  0.00    +0.010 C 
BRANCH  10  11
ATOM     11  C   UNL     1      34.203 -19.188 -21.880  0.00  0.00    +0.085 C 
BRANCH  11  14
ATOM     12  O   UNL     1      36.211 -18.924 -20.581  0.00  0.00    -0.275 OA
ATOM     13  N   UNL     1      34.882 -20.757 -20.168  0.00  0.00    -0.329 N 
ATOM     14  C   UNL     1      35.207 -19.590 -20.820  0.00  0.00    +0.219 C 
ATOM     15  H   UNL     1      35.471 -21.105 -19.460  0.00  0.00    +0.145 HD
ATOM     16  H   UNL     1      34.061 -21.244 -20.409  0.00  0.00    +0.145 HD
ENDBRANCH  11  14
ENDBRANCH  10  11
ENDBRANCH   9  10
ENDBRANCH   1   9
TORSDOF 9
ENDMDL
