MODEL 1
REMARK VINA RESULT:      -8.8      0.000      0.000
REMARK  Name = 4740
REMARK  5 active torsions:
REMARK  status: ('A' for Active; 'I' for Inactive)
REMARK    1  A    between atoms: N_3  and  C_14
REMARK    2  A    between atoms: C_14  and  C_15
REMARK    3  A    between atoms: C_15  and  C_16
REMARK    4  A    between atoms: C_16  and  C_17
REMARK    5  A    between atoms: C_17  and  C_19
REMARK                            x       y       z     vdW  Elec       q    Type
REMARK                         _______ _______ _______ _____ _____    ______ ____
ROOT
ATOM      1  O   UNL     1      34.491 -16.438 -21.013  0.00  0.00    -0.272 OA
ATOM      2  O   UNL     1      34.853 -17.270 -25.617  0.00  0.00    -0.252 OA
ATOM      3  N   UNL     1      34.687 -16.875 -23.314  0.00  0.00    -0.212 N 
ATOM      4  N   UNL     1      33.632 -15.412 -24.931  0.00  0.00    -0.228 N 
ATOM      5  N   UNL     1      32.857 -14.058 -21.794  0.00  0.00    -0.239 NA
ATOM      6  N   UNL     1      32.412 -13.531 -23.915  0.00  0.00    -0.240 NA
ATOM      7  C   UNL     1      33.464 -15.011 -22.561  0.00  0.00    +0.192 C 
ATOM      8  C   UNL     1      34.243 -16.145 -22.180  0.00  0.00    +0.254 C 
ATOM      9  C   UNL     1      33.176 -14.666 -23.853  0.00  0.00    +0.136 C 
ATOM     10  C   UNL     1      34.419 -16.567 -24.698  0.00  0.00    +0.318 C 
ATOM     11  C   UNL     1      32.236 -13.189 -22.655  0.00  0.00    +0.203 C 
ATOM     12  C   UNL     1      33.299 -15.003 -26.290  0.00  0.00    +0.123 C 
ATOM     13  C   UNL     1      32.852 -13.958 -20.355  0.00  0.00    +0.092 C 
ENDROOT
BRANCH   3  14
ATOM     14  C   UNL     1      35.496 -18.061 -23.054  0.00  0.00    +0.103 C 
BRANCH  14  15
ATOM     15  C   UNL     1      34.646 -19.287 -22.735  0.00  0.00    +0.022 C 
BRANCH  15  16
ATOM     16  C   UNL     1      34.862 -19.796 -21.304  0.00  0.00    +0.010 C 
BRANCH  16  17
ATOM     17  C   UNL     1      33.549 -20.148 -20.608  0.00  0.00    +0.065 C 
BRANCH  17  19
ATOM     18  O   UNL     1      32.680 -21.904 -19.189  0.00  0.00    -0.296 OA
ATOM     19  C   UNL     1      33.661 -21.313 -19.638  0.00  0.00    +0.151 C 
ATOM     20  C   UNL     1      35.059 -21.741 -19.275  0.00  0.00    +0.072 C 
ENDBRANCH  17  19
ENDBRANCH  16  17
ENDBRANCH  15  16
ENDBRANCH  14  15
ENDBRANCH   3  14
TORSDOF 5
ENDMDL
MODEL 2
REMARK VINA RESULT:      -8.4      8.006     10.906
REMARK  Name = 4740
REMARK  5 active torsions:
REMARK  status: ('A' for Active; 'I' for Inactive)
REMARK    1  A    between atoms: N_3  and  C_14
REMARK    2  A    between atoms: C_14  and  C_15
REMARK    3  A    between atoms: C_15  and  C_16
REMARK    4  A    between atoms: C_16  and  C_17
REMARK    5  A    between atoms: C_17  and  C_19
REMARK                            x       y       z     vdW  Elec       q    Type
REMARK                         _______ _______ _______ _____ _____    ______ ____
ROOT
ATOM      1  O   UNL     1      33.216 -23.068 -17.108  0.00  0.00    -0.272 OA
ATOM      2  O   UNL     1      33.884 -24.431 -12.668  0.00  0.00    -0.252 OA
ATOM      3  N   UNL     1      33.526 -23.757 -14.883  0.00  0.00    -0.212 N 
ATOM      4  N   UNL     1      35.706 -23.583 -13.841  0.00  0.00    -0.228 N 
ATOM      5  N   UNL     1      36.122 -22.361 -17.098  0.00  0.00    -0.239 NA
ATOM      6  N   UNL     1      37.438 -22.651 -15.321  0.00  0.00    -0.240 NA
ATOM      7  C   UNL     1      35.332 -22.892 -16.119  0.00  0.00    +0.192 C 
ATOM      8  C   UNL     1      33.944 -23.226 -16.132  0.00  0.00    +0.254 C 
ATOM      9  C   UNL     1      36.160 -23.060 -15.044  0.00  0.00    +0.136 C 
ATOM     10  C   UNL     1      34.345 -23.960 -13.713  0.00  0.00    +0.318 C 
ATOM     11  C   UNL     1      37.381 -22.235 -16.570  0.00  0.00    +0.203 C 
ATOM     12  C   UNL     1      36.628 -23.743 -12.724  0.00  0.00    +0.123 C 
ATOM     13  C   UNL     1      35.735 -21.995 -18.439  0.00  0.00    +0.092 C 
ENDROOT
BRANCH   3  14
ATOM     14  C   UNL     1      32.122 -24.138 -14.770  0.00  0.00    +0.103 C 
BRANCH  14  15
ATOM     15  C   UNL     1      31.272 -23.047 -14.128  0.00  0.00    +0.022 C 
BRANCH  15  16
ATOM     16  C   UNL     1      30.023 -22.713 -14.952  0.00  0.00    +0.010 C 
BRANCH  16  17
ATOM     17  C   UNL     1      29.703 -23.791 -15.985  0.00  0.00    +0.065 C 
BRANCH  17  19
ATOM     18  O   UNL     1      27.870 -24.466 -17.413  0.00  0.00    -0.296 OA
ATOM     19  C   UNL     1      28.330 -23.646 -16.621  0.00  0.00    +0.151 C 
ATOM     20  C   UNL     1      27.528 -22.443 -16.197  0.00  0.00    +0.072 C 
ENDBRANCH  17  19
ENDBRANCH  16  17
ENDBRANCH  15  16
ENDBRANCH  14  15
ENDBRANCH   3  14
TORSDOF 5
ENDMDL
MODEL 3
REMARK VINA RESULT:      -8.3      1.118      3.030
REMARK  Name = 4740
REMARK  5 active torsions:
REMARK  status: ('A' for Active; 'I' for Inactive)
REMARK    1  A    between atoms: N_3  and  C_14
REMARK    2  A    between atoms: C_14  and  C_15
REMARK    3  A    between atoms: C_15  and  C_16
REMARK    4  A    between atoms: C_16  and  C_17
REMARK    5  A    between atoms: C_17  and  C_19
REMARK                            x       y       z     vdW  Elec       q    Type
REMARK                         _______ _______ _______ _____ _____    ______ ____
ROOT
ATOM      1  O   UNL     1      34.886 -17.292 -24.967  0.00  0.00    -0.272 OA
ATOM      2  O   UNL     1      35.122 -16.587 -20.334  0.00  0.00    -0.252 OA
ATOM      3  N   UNL     1      35.019 -16.960 -22.644  0.00  0.00    -0.212 N 
ATOM      4  N   UNL     1      33.905 -15.071 -21.613  0.00  0.00    -0.228 N 
ATOM      5  N   UNL     1      33.207 -14.817 -25.037  0.00  0.00    -0.239 NA
ATOM      6  N   UNL     1      32.696 -13.643 -23.211  0.00  0.00    -0.240 NA
ATOM      7  C   UNL     1      33.802 -15.460 -23.989  0.00  0.00    +0.192 C 
ATOM      8  C   UNL     1      34.602 -16.642 -23.964  0.00  0.00    +0.254 C 
ATOM      9  C   UNL     1      33.474 -14.721 -22.885  0.00  0.00    +0.136 C 
ATOM     10  C   UNL     1      34.710 -16.226 -21.441  0.00  0.00    +0.318 C 
ATOM     11  C   UNL     1      32.553 -13.729 -24.518  0.00  0.00    +0.203 C 
ATOM     12  C   UNL     1      33.529 -14.253 -20.468  0.00  0.00    +0.123 C 
ATOM     13  C   UNL     1      33.243 -15.188 -26.431  0.00  0.00    +0.092 C 
ENDROOT
BRANCH   3  14
ATOM     14  C   UNL     1      35.846 -18.152 -22.488  0.00  0.00    +0.103 C 
BRANCH  14  15
ATOM     15  C   UNL     1      35.014 -19.420 -22.324  0.00  0.00    +0.022 C 
BRANCH  15  16
ATOM     16  C   UNL     1      34.736 -19.754 -20.853  0.00  0.00    +0.010 C 
BRANCH  16  17
ATOM     17  C   UNL     1      35.669 -20.838 -20.317  0.00  0.00    +0.065 C 
BRANCH  17  19
ATOM     18  O   UNL     1      35.673 -22.310 -18.397  0.00  0.00    -0.296 OA
ATOM     19  C   UNL     1      35.028 -21.740 -19.276  0.00  0.00    +0.151 C 
ATOM     20  C   UNL     1      33.530 -21.877 -19.349  0.00  0.00    +0.072 C 
ENDBRANCH  17  19
ENDBRANCH  16  17
ENDBRANCH  15  16
ENDBRANCH  14  15
ENDBRANCH   3  14
TORSDOF 5
ENDMDL
MODEL 4
REMARK VINA RESULT:      -8.0      2.698      6.512
REMARK  Name = 4740
REMARK  5 active torsions:
REMARK  status: ('A' for Active; 'I' for Inactive)
REMARK    1  A    between atoms: N_3  and  C_14
REMARK    2  A    between atoms: C_14  and  C_15
REMARK    3  A    between atoms: C_15  and  C_16
REMARK    4  A    between atoms: C_16  and  C_17
REMARK    5  A    between atoms: C_17  and  C_19
REMARK                            x       y       z     vdW  Elec       q    Type
REMARK                         _______ _______ _______ _____ _____    ______ ____
ROOT
ATOM      1  O   UNL     1      34.968 -15.950 -20.495  0.00  0.00    -0.272 OA
ATOM      2  O   UNL     1      33.077 -13.498 -24.020  0.00  0.00    -0.252 OA
ATOM      3  N   UNL     1      34.017 -14.703 -22.244  0.00  0.00    -0.212 N 
ATOM      4  N   UNL     1      33.865 -15.640 -24.473  0.00  0.00    -0.228 N 
ATOM      5  N   UNL     1      35.382 -18.117 -22.515  0.00  0.00    -0.239 NA
ATOM      6  N   UNL     1      34.776 -17.919 -24.652  0.00  0.00    -0.240 NA
ATOM      7  C   UNL     1      34.831 -16.875 -22.643  0.00  0.00    +0.192 C 
ATOM      8  C   UNL     1      34.636 -15.845 -21.672  0.00  0.00    +0.254 C 
ATOM      9  C   UNL     1      34.469 -16.779 -23.959  0.00  0.00    +0.136 C 
ATOM     10  C   UNL     1      33.612 -14.537 -23.619  0.00  0.00    +0.318 C 
ATOM     11  C   UNL     1      35.327 -18.708 -23.751  0.00  0.00    +0.203 C 
ATOM     12  C   UNL     1      33.497 -15.586 -25.882  0.00  0.00    +0.123 C 
ATOM     13  C   UNL     1      35.927 -18.719 -21.322  0.00  0.00    +0.092 C 
ENDROOT
BRANCH   3  14
ATOM     14  C   UNL     1      33.764 -13.578 -21.349  0.00  0.00    +0.103 C 
BRANCH  14  15
ATOM     15  C   UNL     1      32.350 -13.596 -20.777  0.00  0.00    +0.022 C 
BRANCH  15  16
ATOM     16  C   UNL     1      31.609 -12.272 -21.002  0.00  0.00    +0.010 C 
BRANCH  16  17
ATOM     17  C   UNL     1      31.621 -11.382 -19.761  0.00  0.00    +0.065 C 
BRANCH  17  19
ATOM     18  O   UNL     1      32.014  -9.065 -19.185  0.00  0.00    -0.296 OA
ATOM     19  C   UNL     1      31.840  -9.908 -20.063  0.00  0.00    +0.151 C 
ATOM     20  C   UNL     1      31.873  -9.529 -21.521  0.00  0.00    +0.072 C 
ENDBRANCH  17  19
ENDBRANCH  16  17
ENDBRANCH  15  16
ENDBRANCH  14  15
ENDBRANCH   3  14
TORSDOF 5
ENDMDL
MODEL 5
REMARK VINA RESULT:      -7.8      2.693      6.823
REMARK  Name = 4740
REMARK  5 active torsions:
REMARK  status: ('A' for Active; 'I' for Inactive)
REMARK    1  A    between atoms: N_3  and  C_14
REMARK    2  A    between atoms: C_14  and  C_15
REMARK    3  A    between atoms: C_15  and  C_16
REMARK    4  A    between atoms: C_16  and  C_17
REMARK    5  A    between atoms: C_17  and  C_19
REMARK                            x       y       z     vdW  Elec       q    Type
REMARK                         _______ _______ _______ _____ _____    ______ ____
ROOT
ATOM      1  O   UNL     1      33.175 -13.724 -23.678  0.00  0.00    -0.272 OA
ATOM      2  O   UNL     1      34.994 -15.920 -19.952  0.00  0.00    -0.252 OA
ATOM      3  N   UNL     1      34.080 -14.803 -21.798  0.00  0.00    -0.212 N 
ATOM      4  N   UNL     1      35.026 -17.025 -22.000  0.00  0.00    -0.228 N 
ATOM      5  N   UNL     1      33.925 -16.177 -25.216  0.00  0.00    -0.239 NA
ATOM      6  N   UNL     1      34.922 -17.940 -24.282  0.00  0.00    -0.240 NA
ATOM      7  C   UNL     1      34.085 -15.871 -23.895  0.00  0.00    +0.192 C 
ATOM      8  C   UNL     1      33.724 -14.697 -23.168  0.00  0.00    +0.254 C 
ATOM      9  C   UNL     1      34.696 -16.966 -23.347  0.00  0.00    +0.136 C 
ATOM     10  C   UNL     1      34.724 -15.925 -21.158  0.00  0.00    +0.318 C 
ATOM     11  C   UNL     1      34.445 -17.433 -25.401  0.00  0.00    +0.203 C 
ATOM     12  C   UNL     1      35.678 -18.212 -21.463  0.00  0.00    +0.123 C 
ATOM     13  C   UNL     1      33.328 -15.358 -26.243  0.00  0.00    +0.092 C 
ENDROOT
BRANCH   3  14
ATOM     14  C   UNL     1      33.762 -13.661 -20.947  0.00  0.00    +0.103 C 
BRANCH  14  15
ATOM     15  C   UNL     1      32.283 -13.605 -20.579  0.00  0.00    +0.022 C 
BRANCH  15  16
ATOM     16  C   UNL     1      31.644 -12.252 -20.916  0.00  0.00    +0.010 C 
BRANCH  16  17
ATOM     17  C   UNL     1      31.565 -11.328 -19.702  0.00  0.00    +0.065 C 
BRANCH  17  19
ATOM     18  O   UNL     1      32.168  -9.053 -19.145  0.00  0.00    -0.296 OA
ATOM     19  C   UNL     1      31.882  -9.875 -20.014  0.00  0.00    +0.151 C 
ATOM     20  C   UNL     1      31.866  -9.491 -21.470  0.00  0.00    +0.072 C 
ENDBRANCH  17  19
ENDBRANCH  16  17
ENDBRANCH  15  16
ENDBRANCH  14  15
ENDBRANCH   3  14
TORSDOF 5
ENDMDL
MODEL 6
REMARK VINA RESULT:      -7.8      6.163     10.043
REMARK  Name = 4740
REMARK  5 active torsions:
REMARK  status: ('A' for Active; 'I' for Inactive)
REMARK    1  A    between atoms: N_3  and  C_14
REMARK    2  A    between atoms: C_14  and  C_15
REMARK    3  A    between atoms: C_15  and  C_16
REMARK    4  A    between atoms: C_16  and  C_17
REMARK    5  A    between atoms: C_17  and  C_19
REMARK                            x       y       z     vdW  Elec       q    Type
REMARK                         _______ _______ _______ _____ _____    ______ ____
ROOT
ATOM      1  O   UNL     1      31.447 -22.724 -17.593  0.00  0.00    -0.272 OA
ATOM      2  O   UNL     1      35.730 -23.969 -16.136  0.00  0.00    -0.252 OA
ATOM      3  N   UNL     1      33.601 -23.345 -16.887  0.00  0.00    -0.212 N 
ATOM      4  N   UNL     1      34.010 -23.917 -14.569  0.00  0.00    -0.228 N 
ATOM      5  N   UNL     1      30.602 -23.130 -14.753  0.00  0.00    -0.239 NA
ATOM      6  N   UNL     1      32.007 -23.774 -13.147  0.00  0.00    -0.240 NA
ATOM      7  C   UNL     1      31.822 -23.274 -15.348  0.00  0.00    +0.192 C 
ATOM      8  C   UNL     1      32.218 -23.078 -16.706  0.00  0.00    +0.254 C 
ATOM      9  C   UNL     1      32.664 -23.668 -14.343  0.00  0.00    +0.136 C 
ATOM     10  C   UNL     1      34.540 -23.761 -15.875  0.00  0.00    +0.318 C 
ATOM     11  C   UNL     1      30.764 -23.443 -13.428  0.00  0.00    +0.203 C 
ATOM     12  C   UNL     1      34.867 -24.335 -13.467  0.00  0.00    +0.123 C 
ATOM     13  C   UNL     1      29.363 -22.728 -15.375  0.00  0.00    +0.092 C 
ENDROOT
BRANCH   3  14
ATOM     14  C   UNL     1      34.128 -23.179 -18.238  0.00  0.00    +0.103 C 
BRANCH  14  15
ATOM     15  C   UNL     1      34.840 -21.844 -18.425  0.00  0.00    +0.022 C 
BRANCH  15  16
ATOM     16  C   UNL     1      35.120 -21.529 -19.900  0.00  0.00    +0.010 C 
BRANCH  16  17
ATOM     17  C   UNL     1      34.281 -20.361 -20.415  0.00  0.00    +0.065 C 
BRANCH  17  19
ATOM     18  O   UNL     1      36.049 -18.715 -20.558  0.00  0.00    -0.296 OA
ATOM     19  C   UNL     1      35.095 -19.273 -21.097  0.00  0.00    +0.151 C 
ATOM     20  C   UNL     1      34.693 -18.932 -22.508  0.00  0.00    +0.072 C 
ENDBRANCH  17  19
ENDBRANCH  16  17
ENDBRANCH  15  16
ENDBRANCH  14  15
ENDBRANCH   3  14
TORSDOF 5
ENDMDL
MODEL 7
REMARK VINA RESULT:      -7.8      3.935      5.744
REMARK  Name = 4740
REMARK  5 active torsions:
REMARK  status: ('A' for Active; 'I' for Inactive)
REMARK    1  A    between atoms: N_3  and  C_14
REMARK    2  A    between atoms: C_14  and  C_15
REMARK    3  A    between atoms: C_15  and  C_16
REMARK    4  A    between atoms: C_16  and  C_17
REMARK    5  A    between atoms: C_17  and  C_19
REMARK                            x       y       z     vdW  Elec       q    Type
REMARK                         _______ _______ _______ _____ _____    ______ ____
ROOT
ATOM      1  O   UNL     1      31.348 -10.351 -21.343  0.00  0.00    -0.272 OA
ATOM      2  O   UNL     1      33.852 -12.784 -24.478  0.00  0.00    -0.252 OA
ATOM      3  N   UNL     1      32.590 -11.591 -22.906  0.00  0.00    -0.212 N 
ATOM      4  N   UNL     1      34.210 -10.490 -24.331  0.00  0.00    -0.228 N 
ATOM      5  N   UNL     1      32.836  -7.956 -22.340  0.00  0.00    -0.239 NA
ATOM      6  N   UNL     1      34.373  -8.064 -23.952  0.00  0.00    -0.240 NA
ATOM      7  C   UNL     1      32.909  -9.267 -22.713  0.00  0.00    +0.192 C 
ATOM      8  C   UNL     1      32.194 -10.406 -22.231  0.00  0.00    +0.254 C 
ATOM      9  C   UNL     1      33.856  -9.306 -23.700  0.00  0.00    +0.136 C 
ATOM     10  C   UNL     1      33.578 -11.700 -23.952  0.00  0.00    +0.318 C 
ATOM     11  C   UNL     1      33.736  -7.270 -23.115  0.00  0.00    +0.203 C 
ATOM     12  C   UNL     1      35.225 -10.480 -25.377  0.00  0.00    +0.123 C 
ATOM     13  C   UNL     1      31.985  -7.374 -21.331  0.00  0.00    +0.092 C 
ENDROOT
BRANCH   3  14
ATOM     14  C   UNL     1      31.928 -12.827 -22.501  0.00  0.00    +0.103 C 
BRANCH  14  15
ATOM     15  C   UNL     1      32.553 -13.439 -21.251  0.00  0.00    +0.022 C 
BRANCH  15  16
ATOM     16  C   UNL     1      32.885 -14.926 -21.428  0.00  0.00    +0.010 C 
BRANCH  16  17
ATOM     17  C   UNL     1      34.154 -15.331 -20.679  0.00  0.00    +0.065 C 
BRANCH  17  19
ATOM     18  O   UNL     1      35.297 -17.462 -20.674  0.00  0.00    -0.296 OA
ATOM     19  C   UNL     1      34.899 -16.492 -21.316  0.00  0.00    +0.151 C 
ATOM     20  C   UNL     1      35.096 -16.415 -22.808  0.00  0.00    +0.072 C 
ENDBRANCH  17  19
ENDBRANCH  16  17
ENDBRANCH  15  16
ENDBRANCH  14  15
ENDBRANCH   3  14
TORSDOF 5
ENDMDL
MODEL 8
REMARK VINA RESULT:      -7.5      1.830      2.501
REMARK  Name = 4740
REMARK  5 active torsions:
REMARK  status: ('A' for Active; 'I' for Inactive)
REMARK    1  A    between atoms: N_3  and  C_14
REMARK    2  A    between atoms: C_14  and  C_15
REMARK    3  A    between atoms: C_15  and  C_16
REMARK    4  A    between atoms: C_16  and  C_17
REMARK    5  A    between atoms: C_17  and  C_19
REMARK                            x       y       z     vdW  Elec       q    Type
REMARK                         _______ _______ _______ _____ _____    ______ ____
ROOT
ATOM      1  O   UNL     1      32.431 -14.457 -19.850  0.00  0.00    -0.272 OA
ATOM      2  O   UNL     1      33.875 -15.833 -24.097  0.00  0.00    -0.252 OA
ATOM      3  N   UNL     1      33.160 -15.169 -21.967  0.00  0.00    -0.212 N 
ATOM      4  N   UNL     1      33.119 -13.646 -23.850  0.00  0.00    -0.228 N 
ATOM      5  N   UNL     1      31.891 -11.809 -21.132  0.00  0.00    -0.239 NA
ATOM      6  N   UNL     1      32.273 -11.404 -23.291  0.00  0.00    -0.240 NA
ATOM      7  C   UNL     1      32.384 -12.969 -21.658  0.00  0.00    +0.192 C 
ATOM      8  C   UNL     1      32.640 -14.229 -21.038  0.00  0.00    +0.254 C 
ATOM      9  C   UNL     1      32.609 -12.694 -22.979  0.00  0.00    +0.136 C 
ATOM     10  C   UNL     1      33.419 -14.945 -23.368  0.00  0.00    +0.318 C 
ATOM     11  C   UNL     1      31.843 -10.896 -22.154  0.00  0.00    +0.203 C 
ATOM     12  C   UNL     1      33.342 -13.305 -25.250  0.00  0.00    +0.123 C 
ATOM     13  C   UNL     1      31.490 -11.562 -19.768  0.00  0.00    +0.092 C 
ENDROOT
BRANCH   3  14
ATOM     14  C   UNL     1      33.462 -16.500 -21.452  0.00  0.00    +0.103 C 
BRANCH  14  15
ATOM     15  C   UNL     1      34.885 -16.607 -20.913  0.00  0.00    +0.022 C 
BRANCH  15  16
ATOM     16  C   UNL     1      35.539 -17.954 -21.243  0.00  0.00    +0.010 C 
BRANCH  16  17
ATOM     17  C   UNL     1      34.511 -19.027 -21.597  0.00  0.00    +0.065 C 
BRANCH  17  19
ATOM     18  O   UNL     1      35.442 -20.707 -20.126  0.00  0.00    -0.296 OA
ATOM     19  C   UNL     1      34.441 -20.166 -20.594  0.00  0.00    +0.151 C 
ATOM     20  C   UNL     1      33.060 -20.585 -20.162  0.00  0.00    +0.072 C 
ENDBRANCH  17  19
ENDBRANCH  16  17
ENDBRANCH  15  16
ENDBRANCH  14  15
ENDBRANCH   3  14
TORSDOF 5
ENDMDL
MODEL 9
REMARK VINA RESULT:      -7.4      3.820      6.172
REMARK  Name = 4740
REMARK  5 active torsions:
REMARK  status: ('A' for Active; 'I' for Inactive)
REMARK    1  A    between atoms: N_3  and  C_14
REMARK    2  A    between atoms: C_14  and  C_15
REMARK    3  A    between atoms: C_15  and  C_16
REMARK    4  A    between atoms: C_16  and  C_17
REMARK    5  A    between atoms: C_17  and  C_19
REMARK                            x       y       z     vdW  Elec       q    Type
REMARK                         _______ _______ _______ _____ _____    ______ ____
ROOT
ATOM      1  O   UNL     1      33.868 -12.416 -24.310  0.00  0.00    -0.272 OA
ATOM      2  O   UNL     1      30.989 -10.816 -20.969  0.00  0.00    -0.252 OA
ATOM      3  N   UNL     1      32.418 -11.638 -22.633  0.00  0.00    -0.212 N 
ATOM      4  N   UNL     1      32.362  -9.285 -22.059  0.00  0.00    -0.228 N 
ATOM      5  N   UNL     1      34.752  -9.574 -24.604  0.00  0.00    -0.239 NA
ATOM      6  N   UNL     1      33.920  -7.909 -23.375  0.00  0.00    -0.240 NA
ATOM      7  C   UNL     1      33.830 -10.137 -23.769  0.00  0.00    +0.192 C 
ATOM      8  C   UNL     1      33.414 -11.496 -23.636  0.00  0.00    +0.254 C 
ATOM      9  C   UNL     1      33.337  -9.098 -23.029  0.00  0.00    +0.136 C 
ATOM     10  C   UNL     1      31.857 -10.588 -21.819  0.00  0.00    +0.318 C 
ATOM     11  C   UNL     1      34.770  -8.230 -24.329  0.00  0.00    +0.203 C 
ATOM     12  C   UNL     1      31.868  -8.146 -21.295  0.00  0.00    +0.123 C 
ATOM     13  C   UNL     1      35.565 -10.238 -25.594  0.00  0.00    +0.092 C 
ENDROOT
BRANCH   3  14
ATOM     14  C   UNL     1      31.909 -12.986 -22.401  0.00  0.00    +0.103 C 
BRANCH  14  15
ATOM     15  C   UNL     1      32.555 -13.652 -21.190  0.00  0.00    +0.022 C 
BRANCH  15  16
ATOM     16  C   UNL     1      32.829 -15.144 -21.416  0.00  0.00    +0.010 C 
BRANCH  16  17
ATOM     17  C   UNL     1      34.133 -15.387 -22.173  0.00  0.00    +0.065 C 
BRANCH  17  19
ATOM     18  O   UNL     1      35.195 -16.674 -20.422  0.00  0.00    -0.296 OA
ATOM     19  C   UNL     1      34.958 -16.538 -21.621  0.00  0.00    +0.151 C 
ATOM     20  C   UNL     1      35.452 -17.544 -22.628  0.00  0.00    +0.072 C 
ENDBRANCH  17  19
ENDBRANCH  16  17
ENDBRANCH  15  16
ENDBRANCH  14  15
ENDBRANCH   3  14
TORSDOF 5
ENDMDL
