MODEL 1
REMARK VINA RESULT:      -2.3      0.000      0.000
REMARK  Name = 6337
REMARK  0 active torsions:
REMARK  status: ('A' for Active; 'I' for Inactive)
REMARK                            x       y       z     vdW  Elec       q    Type
REMARK                         _______ _______ _______ _____ _____    ______ ____
ROOT
ATOM      1 CL   UNL     1      33.393 -21.444 -19.450  0.00  0.00    -0.114 Cl
ATOM      2  C   UNL     1      32.896 -20.123 -20.531  0.00  0.00    +0.095 C 
ATOM      3  C   UNL     1      34.106 -19.365 -21.033  0.00  0.00    +0.019 C 
ENDROOT
TORSDOF 0
ENDMDL
MODEL 2
REMARK VINA RESULT:      -2.3      2.325      2.629
REMARK  Name = 6337
REMARK  0 active torsions:
REMARK  status: ('A' for Active; 'I' for Inactive)
REMARK                            x       y       z     vdW  Elec       q    Type
REMARK                         _______ _______ _______ _____ _____    ______ ____
ROOT
ATOM      1 CL   UNL     1      34.585 -19.355 -22.673  0.00  0.00    -0.114 Cl
ATOM      2  C   UNL     1      34.240 -19.388 -20.930  0.00  0.00    +0.095 C 
ATOM      3  C   UNL     1      32.923 -20.086 -20.663  0.00  0.00    +0.019 C 
ENDROOT
TORSDOF 0
ENDMDL
MODEL 3
REMARK VINA RESULT:      -2.3      2.176      2.184
REMARK  Name = 6337
REMARK  0 active torsions:
REMARK  status: ('A' for Active; 'I' for Inactive)
REMARK                            x       y       z     vdW  Elec       q    Type
REMARK                         _______ _______ _______ _____ _____    ______ ____
ROOT
ATOM      1 CL   UNL     1      32.861 -20.218 -20.290  0.00  0.00    -0.114 Cl
ATOM      2  C   UNL     1      33.591 -21.615 -19.469  0.00  0.00    +0.095 C 
ATOM      3  C   UNL     1      35.101 -21.508 -19.482  0.00  0.00    +0.019 C 
ENDROOT
TORSDOF 0
ENDMDL
MODEL 4
REMARK VINA RESULT:      -2.3      1.467      1.649
REMARK  Name = 6337
REMARK  0 active torsions:
REMARK  status: ('A' for Active; 'I' for Inactive)
REMARK                            x       y       z     vdW  Elec       q    Type
REMARK                         _______ _______ _______ _____ _____    ______ ____
ROOT
ATOM      1 CL   UNL     1      32.776 -20.076 -20.514  0.00  0.00    -0.114 Cl
ATOM      2  C   UNL     1      34.476 -19.704 -20.875  0.00  0.00    +0.095 C 
ATOM      3  C   UNL     1      34.641 -19.342 -22.336  0.00  0.00    +0.019 C 
ENDROOT
TORSDOF 0
ENDMDL
MODEL 5
REMARK VINA RESULT:      -2.3      1.549      1.973
REMARK  Name = 6337
REMARK  0 active torsions:
REMARK  status: ('A' for Active; 'I' for Inactive)
REMARK                            x       y       z     vdW  Elec       q    Type
REMARK                         _______ _______ _______ _____ _____    ______ ____
ROOT
ATOM      1 CL   UNL     1      35.728 -20.549 -20.244  0.00  0.00    -0.114 Cl
ATOM      2  C   UNL     1      34.301 -19.800 -20.993  0.00  0.00    +0.095 C 
ATOM      3  C   UNL     1      33.034 -20.285 -20.321  0.00  0.00    +0.019 C 
ENDROOT
TORSDOF 0
ENDMDL
MODEL 6
REMARK VINA RESULT:      -2.3      1.670      1.890
REMARK  Name = 6337
REMARK  0 active torsions:
REMARK  status: ('A' for Active; 'I' for Inactive)
REMARK                            x       y       z     vdW  Elec       q    Type
REMARK                         _______ _______ _______ _____ _____    ______ ____
ROOT
ATOM      1 CL   UNL     1      32.814 -20.077 -20.403  0.00  0.00    -0.114 Cl
ATOM      2  C   UNL     1      34.531 -19.842 -20.797  0.00  0.00    +0.095 C 
ATOM      3  C   UNL     1      35.389 -20.834 -20.041  0.00  0.00    +0.019 C 
ENDROOT
TORSDOF 0
ENDMDL
MODEL 7
REMARK VINA RESULT:      -2.2     10.238     10.414
REMARK  Name = 6337
REMARK  0 active torsions:
REMARK  status: ('A' for Active; 'I' for Inactive)
REMARK                            x       y       z     vdW  Elec       q    Type
REMARK                         _______ _______ _______ _____ _____    ______ ____
ROOT
ATOM      1 CL   UNL     1      41.109 -14.321 -17.933  0.00  0.00    -0.114 Cl
ATOM      2  C   UNL     1      41.267 -14.429 -16.167  0.00  0.00    +0.095 C 
ATOM      3  C   UNL     1      41.230 -15.874 -15.718  0.00  0.00    +0.019 C 
ENDROOT
TORSDOF 0
ENDMDL
MODEL 8
REMARK VINA RESULT:      -2.2      9.999     10.200
REMARK  Name = 6337
REMARK  0 active torsions:
REMARK  status: ('A' for Active; 'I' for Inactive)
REMARK                            x       y       z     vdW  Elec       q    Type
REMARK                         _______ _______ _______ _____ _____    ______ ____
ROOT
ATOM      1 CL   UNL     1      41.249 -16.009 -15.808  0.00  0.00    -0.114 Cl
ATOM      2  C   UNL     1      41.362 -14.346 -16.426  0.00  0.00    +0.095 C 
ATOM      3  C   UNL     1      41.229 -14.332 -17.934  0.00  0.00    +0.019 C 
ENDROOT
TORSDOF 0
ENDMDL
MODEL 9
REMARK VINA RESULT:      -2.2     11.170     11.475
REMARK  Name = 6337
REMARK  0 active torsions:
REMARK  status: ('A' for Active; 'I' for Inactive)
REMARK                            x       y       z     vdW  Elec       q    Type
REMARK                         _______ _______ _______ _____ _____    ______ ____
ROOT
ATOM      1 CL   UNL     1      41.105 -14.200 -18.088  0.00  0.00    -0.114 Cl
ATOM      2  C   UNL     1      41.985 -13.218 -16.895  0.00  0.00    +0.095 C 
ATOM      3  C   UNL     1      42.492 -11.941 -17.531  0.00  0.00    +0.019 C 
ENDROOT
TORSDOF 0
ENDMDL
