MODEL 1
REMARK VINA RESULT:      -8.1      0.000      0.000
REMARK  Name = 22379
REMARK  6 active torsions:
REMARK  status: ('A' for Active; 'I' for Inactive)
REMARK    1  A    between atoms: N_2  and  C_6
REMARK    2  A    between atoms: C_3  and  C_13
REMARK    3  A    between atoms: C_13  and  N_14
REMARK    4  A    between atoms: N_14  and  C_17
REMARK    5  A    between atoms: C_17  and  C_18
REMARK    6  A    between atoms: C_18  and  C_19
REMARK                            x       y       z     vdW  Elec       q    Type
REMARK                         _______ _______ _______ _____ _____    ______ ____
ROOT
ATOM      1  O   UNL     1      35.225 -16.654 -20.361  0.00  0.00    -0.277 OA
ATOM      2  N   UNL     1      34.746 -18.480 -21.756  0.00  0.00    -0.285 N 
ATOM      3  C   UNL     1      34.895 -17.131 -21.441  0.00  0.00    +0.205 C 
ATOM      4  H   UNL     1      34.468 -18.683 -22.678  0.00  0.00    +0.155 HD
ENDROOT
BRANCH   2   6
ATOM      5 CL   UNL     1      37.633 -19.198 -21.204  0.00  0.00    -0.081 Cl
ATOM      6  C   UNL     1      34.946 -19.593 -20.905  0.00  0.00    +0.057 C 
ATOM      7  C   UNL     1      33.838 -20.257 -20.399  0.00  0.00    -0.008 C 
ATOM      8  C   UNL     1      36.233 -20.003 -20.590  0.00  0.00    +0.071 C 
ATOM      9  C   UNL     1      34.021 -21.355 -19.560  0.00  0.00    -0.003 C 
ATOM     10  C   UNL     1      32.444 -19.829 -20.728  0.00  0.00    +0.032 C 
ATOM     11  C   UNL     1      36.416 -21.102 -19.751  0.00  0.00    +0.013 C 
ATOM     12  C   UNL     1      35.310 -21.779 -19.236  0.00  0.00    +0.001 C 
ENDBRANCH   2   6
BRANCH   3  13
ATOM     13  C   UNL     1      34.579 -16.271 -22.654  0.00  0.00    +0.006 C 
BRANCH  13  14
ATOM     14  N   UNL     1      35.346 -16.745 -23.796  0.00  0.00    +0.390 N 
ATOM     15  H   UNL     1      36.197 -16.187 -23.882  0.00  0.00    -0.084 HD
ATOM     16  H   UNL     1      35.578 -17.727 -23.650  0.00  0.00    -0.084 HD
BRANCH  14  17
ATOM     17  C   UNL     1      34.574 -16.627 -25.027  0.00  0.00    -0.081 C 
BRANCH  17  18
ATOM     18  C   UNL     1      33.680 -15.389 -24.978  0.00  0.00    -0.023 C 
BRANCH  18  19
ATOM     19  C   UNL     1      32.989 -15.153 -26.321  0.00  0.00    -0.002 C 
ATOM     20  C   UNL     1      33.130 -13.708 -26.774  0.00  0.00    -0.000 C 
ENDBRANCH  18  19
ENDBRANCH  17  18
ENDBRANCH  14  17
ENDBRANCH  13  14
ENDBRANCH   3  13
TORSDOF 6
ENDMDL
MODEL 2
REMARK VINA RESULT:      -7.8      2.021      2.737
REMARK  Name = 22379
REMARK  6 active torsions:
REMARK  status: ('A' for Active; 'I' for Inactive)
REMARK    1  A    between atoms: N_2  and  C_6
REMARK    2  A    between atoms: C_3  and  C_13
REMARK    3  A    between atoms: C_13  and  N_14
REMARK    4  A    between atoms: N_14  and  C_17
REMARK    5  A    between atoms: C_17  and  C_18
REMARK    6  A    between atoms: C_18  and  C_19
REMARK                            x       y       z     vdW  Elec       q    Type
REMARK                         _______ _______ _______ _____ _____    ______ ____
ROOT
ATOM      1  O   UNL     1      35.031 -19.591 -23.929  0.00  0.00    -0.277 OA
ATOM      2  N   UNL     1      34.753 -18.571 -21.832  0.00  0.00    -0.285 N 
ATOM      3  C   UNL     1      34.802 -18.613 -23.224  0.00  0.00    +0.205 C 
ATOM      4  H   UNL     1      34.559 -17.693 -21.430  0.00  0.00    +0.155 HD
ENDROOT
BRANCH   2   6
ATOM      5 CL   UNL     1      37.638 -19.214 -21.181  0.00  0.00    -0.081 Cl
ATOM      6  C   UNL     1      34.951 -19.642 -20.928  0.00  0.00    +0.057 C 
ATOM      7  C   UNL     1      33.842 -20.302 -20.419  0.00  0.00    -0.008 C 
ATOM      8  C   UNL     1      36.237 -20.015 -20.565  0.00  0.00    +0.071 C 
ATOM      9  C   UNL     1      34.023 -21.359 -19.528  0.00  0.00    -0.003 C 
ATOM     10  C   UNL     1      32.450 -19.914 -20.799  0.00  0.00    +0.032 C 
ATOM     11  C   UNL     1      36.417 -21.073 -19.674  0.00  0.00    +0.013 C 
ATOM     12  C   UNL     1      35.310 -21.745 -19.155  0.00  0.00    +0.001 C 
ENDBRANCH   2   6
BRANCH   3  13
ATOM     13  C   UNL     1      34.531 -17.233 -23.801  0.00  0.00    +0.006 C 
BRANCH  13  14
ATOM     14  N   UNL     1      35.348 -16.249 -23.106  0.00  0.00    +0.390 N 
ATOM     15  H   UNL     1      35.755 -16.679 -22.274  0.00  0.00    -0.084 HD
ATOM     16  H   UNL     1      36.082 -15.930 -23.737  0.00  0.00    -0.084 HD
BRANCH  14  17
ATOM     17  C   UNL     1      34.547 -15.099 -22.703  0.00  0.00    -0.081 C 
BRANCH  17  18
ATOM     18  C   UNL     1      34.548 -14.957 -21.182  0.00  0.00    -0.023 C 
BRANCH  18  19
ATOM     19  C   UNL     1      33.130 -14.752 -20.646  0.00  0.00    -0.002 C 
ATOM     20  C   UNL     1      32.298 -16.019 -20.771  0.00  0.00    -0.000 C 
ENDBRANCH  18  19
ENDBRANCH  17  18
ENDBRANCH  14  17
ENDBRANCH  13  14
ENDBRANCH   3  13
TORSDOF 6
ENDMDL
MODEL 3
REMARK VINA RESULT:      -7.8      2.303      2.799
REMARK  Name = 22379
REMARK  6 active torsions:
REMARK  status: ('A' for Active; 'I' for Inactive)
REMARK    1  A    between atoms: N_2  and  C_6
REMARK    2  A    between atoms: C_3  and  C_13
REMARK    3  A    between atoms: C_13  and  N_14
REMARK    4  A    between atoms: N_14  and  C_17
REMARK    5  A    between atoms: C_17  and  C_18
REMARK    6  A    between atoms: C_18  and  C_19
REMARK                            x       y       z     vdW  Elec       q    Type
REMARK                         _______ _______ _______ _____ _____    ______ ____
ROOT
ATOM      1  O   UNL     1      35.175 -16.644 -20.293  0.00  0.00    -0.277 OA
ATOM      2  N   UNL     1      34.726 -18.448 -21.726  0.00  0.00    -0.285 N 
ATOM      3  C   UNL     1      34.854 -17.104 -21.384  0.00  0.00    +0.205 C 
ATOM      4  H   UNL     1      34.453 -18.637 -22.653  0.00  0.00    +0.155 HD
ENDROOT
BRANCH   2   6
ATOM      5 CL   UNL     1      37.623 -19.171 -21.232  0.00  0.00    -0.081 Cl
ATOM      6  C   UNL     1      34.941 -19.576 -20.897  0.00  0.00    +0.057 C 
ATOM      7  C   UNL     1      33.843 -20.250 -20.385  0.00  0.00    -0.008 C 
ATOM      8  C   UNL     1      36.234 -19.989 -20.610  0.00  0.00    +0.071 C 
ATOM      9  C   UNL     1      34.041 -21.363 -19.568  0.00  0.00    -0.003 C 
ATOM     10  C   UNL     1      32.443 -19.820 -20.685  0.00  0.00    +0.032 C 
ATOM     11  C   UNL     1      36.433 -21.101 -19.793  0.00  0.00    +0.013 C 
ATOM     12  C   UNL     1      35.335 -21.789 -19.272  0.00  0.00    +0.001 C 
ENDBRANCH   2   6
BRANCH   3  13
ATOM     13  C   UNL     1      34.527 -16.225 -22.579  0.00  0.00    +0.006 C 
BRANCH  13  14
ATOM     14  N   UNL     1      34.319 -14.856 -22.130  0.00  0.00    +0.390 N 
ATOM     15  H   UNL     1      34.718 -14.746 -21.197  0.00  0.00    -0.084 HD
ATOM     16  H   UNL     1      34.775 -14.223 -22.787  0.00  0.00    -0.084 HD
BRANCH  14  17
ATOM     17  C   UNL     1      32.898 -14.534 -22.082  0.00  0.00    -0.081 C 
BRANCH  17  18
ATOM     18  C   UNL     1      32.580 -13.719 -20.829  0.00  0.00    -0.023 C 
BRANCH  18  19
ATOM     19  C   UNL     1      31.857 -12.419 -21.185  0.00  0.00    -0.002 C 
ATOM     20  C   UNL     1      31.562 -11.588 -19.946  0.00  0.00    -0.000 C 
ENDBRANCH  18  19
ENDBRANCH  17  18
ENDBRANCH  14  17
ENDBRANCH  13  14
ENDBRANCH   3  13
TORSDOF 6
ENDMDL
MODEL 4
REMARK VINA RESULT:      -7.8      1.373      2.153
REMARK  Name = 22379
REMARK  6 active torsions:
REMARK  status: ('A' for Active; 'I' for Inactive)
REMARK    1  A    between atoms: N_2  and  C_6
REMARK    2  A    between atoms: C_3  and  C_13
REMARK    3  A    between atoms: C_13  and  N_14
REMARK    4  A    between atoms: N_14  and  C_17
REMARK    5  A    between atoms: C_17  and  C_18
REMARK    6  A    between atoms: C_18  and  C_19
REMARK                            x       y       z     vdW  Elec       q    Type
REMARK                         _______ _______ _______ _____ _____    ______ ____
ROOT
ATOM      1  O   UNL     1      35.133 -16.552 -20.261  0.00  0.00    -0.277 OA
ATOM      2  N   UNL     1      34.819 -18.331 -21.761  0.00  0.00    -0.285 N 
ATOM      3  C   UNL     1      34.901 -16.993 -21.383  0.00  0.00    +0.205 C 
ATOM      4  H   UNL     1      34.620 -18.503 -22.710  0.00  0.00    +0.155 HD
ENDROOT
BRANCH   2   6
ATOM      5 CL   UNL     1      32.266 -19.607 -20.756  0.00  0.00    -0.081 Cl
ATOM      6  C   UNL     1      34.989 -19.473 -20.942  0.00  0.00    +0.057 C 
ATOM      7  C   UNL     1      36.275 -19.914 -20.665  0.00  0.00    -0.008 C 
ATOM      8  C   UNL     1      33.880 -20.131 -20.430  0.00  0.00    +0.071 C 
ATOM      9  C   UNL     1      36.455 -21.037 -19.858  0.00  0.00    -0.003 C 
ATOM     10  C   UNL     1      37.481 -19.218 -21.207  0.00  0.00    +0.032 C 
ATOM     11  C   UNL     1      34.060 -21.254 -19.623  0.00  0.00    +0.013 C 
ATOM     12  C   UNL     1      35.349 -21.707 -19.337  0.00  0.00    +0.001 C 
ENDBRANCH   2   6
BRANCH   3  13
ATOM     13  C   UNL     1      34.652 -16.092 -22.581  0.00  0.00    +0.006 C 
BRANCH  13  14
ATOM     14  N   UNL     1      35.411 -16.584 -23.721  0.00  0.00    +0.390 N 
ATOM     15  H   UNL     1      36.242 -16.004 -23.845  0.00  0.00    -0.084 HD
ATOM     16  H   UNL     1      35.677 -17.552 -23.545  0.00  0.00    -0.084 HD
BRANCH  14  17
ATOM     17  C   UNL     1      34.611 -16.535 -24.940  0.00  0.00    -0.081 C 
BRANCH  17  18
ATOM     18  C   UNL     1      33.641 -15.355 -24.891  0.00  0.00    -0.023 C 
BRANCH  18  19
ATOM     19  C   UNL     1      32.948 -15.154 -26.240  0.00  0.00    -0.002 C 
ATOM     20  C   UNL     1      33.207 -13.763 -26.797  0.00  0.00    -0.000 C 
ENDBRANCH  18  19
ENDBRANCH  17  18
ENDBRANCH  14  17
ENDBRANCH  13  14
ENDBRANCH   3  13
TORSDOF 6
ENDMDL
MODEL 5
REMARK VINA RESULT:      -7.8      3.528      4.998
REMARK  Name = 22379
REMARK  6 active torsions:
REMARK  status: ('A' for Active; 'I' for Inactive)
REMARK    1  A    between atoms: N_2  and  C_6
REMARK    2  A    between atoms: C_3  and  C_13
REMARK    3  A    between atoms: C_13  and  N_14
REMARK    4  A    between atoms: N_14  and  C_17
REMARK    5  A    between atoms: C_17  and  C_18
REMARK    6  A    between atoms: C_18  and  C_19
REMARK                            x       y       z     vdW  Elec       q    Type
REMARK                         _______ _______ _______ _____ _____    ______ ____
ROOT
ATOM      1  O   UNL     1      32.084 -14.541 -22.153  0.00  0.00    -0.277 OA
ATOM      2  N   UNL     1      34.210 -14.653 -23.141  0.00  0.00    -0.285 N 
ATOM      3  C   UNL     1      33.018 -14.037 -22.769  0.00  0.00    +0.205 C 
ATOM      4  H   UNL     1      34.851 -14.094 -23.638  0.00  0.00    +0.155 HD
ENDROOT
BRANCH   2   6
ATOM      5 CL   UNL     1      34.759 -15.328 -20.242  0.00  0.00    -0.081 Cl
ATOM      6  C   UNL     1      34.609 -15.988 -22.890  0.00  0.00    +0.057 C 
ATOM      7  C   UNL     1      34.718 -16.867 -23.958  0.00  0.00    -0.008 C 
ATOM      8  C   UNL     1      34.884 -16.398 -21.593  0.00  0.00    +0.071 C 
ATOM      9  C   UNL     1      35.110 -18.184 -23.724  0.00  0.00    -0.003 C 
ATOM     10  C   UNL     1      34.426 -16.442 -25.361  0.00  0.00    +0.032 C 
ATOM     11  C   UNL     1      35.277 -17.715 -21.360  0.00  0.00    +0.013 C 
ATOM     12  C   UNL     1      35.391 -18.609 -22.426  0.00  0.00    +0.001 C 
ENDBRANCH   2   6
BRANCH   3  13
ATOM     13  C   UNL     1      33.002 -12.593 -23.242  0.00  0.00    +0.006 C 
BRANCH  13  14
ATOM     14  N   UNL     1      34.241 -12.302 -23.949  0.00  0.00    +0.390 N 
ATOM     15  H   UNL     1      34.954 -12.024 -23.274  0.00  0.00    -0.084 HD
ATOM     16  H   UNL     1      34.534 -13.139 -24.452  0.00  0.00    -0.084 HD
BRANCH  14  17
ATOM     17  C   UNL     1      34.049 -11.223 -24.911  0.00  0.00    -0.081 C 
BRANCH  17  18
ATOM     18  C   UNL     1      34.892 -10.010 -24.522  0.00  0.00    -0.023 C 
BRANCH  18  19
ATOM     19  C   UNL     1      34.084  -9.024 -23.677  0.00  0.00    -0.002 C 
ATOM     20  C   UNL     1      34.754  -7.660 -23.620  0.00  0.00    -0.000 C 
ENDBRANCH  18  19
ENDBRANCH  17  18
ENDBRANCH  14  17
ENDBRANCH  13  14
ENDBRANCH   3  13
TORSDOF 6
ENDMDL
MODEL 6
REMARK VINA RESULT:      -7.5      4.247      5.748
REMARK  Name = 22379
REMARK  6 active torsions:
REMARK  status: ('A' for Active; 'I' for Inactive)
REMARK    1  A    between atoms: N_2  and  C_6
REMARK    2  A    between atoms: C_3  and  C_13
REMARK    3  A    between atoms: C_13  and  N_14
REMARK    4  A    between atoms: N_14  and  C_17
REMARK    5  A    between atoms: C_17  and  C_18
REMARK    6  A    between atoms: C_18  and  C_19
REMARK                            x       y       z     vdW  Elec       q    Type
REMARK                         _______ _______ _______ _____ _____    ______ ____
ROOT
ATOM      1  O   UNL     1      32.023 -14.930 -21.817  0.00  0.00    -0.277 OA
ATOM      2  N   UNL     1      33.904 -14.700 -23.203  0.00  0.00    -0.285 N 
ATOM      3  C   UNL     1      32.821 -14.248 -22.452  0.00  0.00    +0.205 C 
ATOM      4  H   UNL     1      34.439 -14.007 -23.654  0.00  0.00    +0.155 HD
ENDROOT
BRANCH   2   6
ATOM      5 CL   UNL     1      34.958 -16.102 -20.736  0.00  0.00    -0.081 Cl
ATOM      6  C   UNL     1      34.325 -16.038 -23.394  0.00  0.00    +0.057 C 
ATOM      7  C   UNL     1      34.228 -16.596 -24.661  0.00  0.00    -0.008 C 
ATOM      8  C   UNL     1      34.824 -16.768 -22.325  0.00  0.00    +0.071 C 
ATOM      9  C   UNL     1      34.641 -17.912 -24.863  0.00  0.00    -0.003 C 
ATOM     10  C   UNL     1      33.694 -15.824 -25.824  0.00  0.00    +0.032 C 
ATOM     11  C   UNL     1      35.237 -18.084 -22.528  0.00  0.00    +0.013 C 
ATOM     12  C   UNL     1      35.145 -18.657 -23.797  0.00  0.00    +0.001 C 
ENDBRANCH   2   6
BRANCH   3  13
ATOM     13  C   UNL     1      32.732 -12.733 -22.518  0.00  0.00    +0.006 C 
BRANCH  13  14
ATOM     14  N   UNL     1      31.355 -12.319 -22.290  0.00  0.00    +0.390 N 
ATOM     15  H   UNL     1      30.923 -12.083 -23.185  0.00  0.00    -0.084 HD
ATOM     16  H   UNL     1      30.852 -13.086 -21.845  0.00  0.00    -0.084 HD
BRANCH  14  17
ATOM     17  C   UNL     1      31.300 -11.155 -21.413  0.00  0.00    -0.081 C 
BRANCH  17  18
ATOM     18  C   UNL     1      31.527 -11.573 -19.961  0.00  0.00    -0.023 C 
BRANCH  18  19
ATOM     19  C   UNL     1      31.684 -10.352 -19.053  0.00  0.00    -0.002 C 
ATOM     20  C   UNL     1      32.090  -9.118 -19.843  0.00  0.00    -0.000 C 
ENDBRANCH  18  19
ENDBRANCH  17  18
ENDBRANCH  14  17
ENDBRANCH  13  14
ENDBRANCH   3  13
TORSDOF 6
ENDMDL
MODEL 7
REMARK VINA RESULT:      -7.5      2.670      3.526
REMARK  Name = 22379
REMARK  6 active torsions:
REMARK  status: ('A' for Active; 'I' for Inactive)
REMARK    1  A    between atoms: N_2  and  C_6
REMARK    2  A    between atoms: C_3  and  C_13
REMARK    3  A    between atoms: C_13  and  N_14
REMARK    4  A    between atoms: N_14  and  C_17
REMARK    5  A    between atoms: C_17  and  C_18
REMARK    6  A    between atoms: C_18  and  C_19
REMARK                            x       y       z     vdW  Elec       q    Type
REMARK                         _______ _______ _______ _____ _____    ______ ____
ROOT
ATOM      1  O   UNL     1      35.123 -16.594 -20.286  0.00  0.00    -0.277 OA
ATOM      2  N   UNL     1      34.811 -18.394 -21.760  0.00  0.00    -0.285 N 
ATOM      3  C   UNL     1      34.877 -17.051 -21.398  0.00  0.00    +0.205 C 
ATOM      4  H   UNL     1      34.596 -18.580 -22.703  0.00  0.00    +0.155 HD
ENDROOT
BRANCH   2   6
ATOM      5 CL   UNL     1      32.298 -19.725 -20.724  0.00  0.00    -0.081 Cl
ATOM      6  C   UNL     1      35.015 -19.524 -20.932  0.00  0.00    +0.057 C 
ATOM      7  C   UNL     1      36.314 -19.930 -20.660  0.00  0.00    -0.008 C 
ATOM      8  C   UNL     1      33.927 -20.205 -20.406  0.00  0.00    +0.071 C 
ATOM      9  C   UNL     1      36.529 -21.040 -19.845  0.00  0.00    -0.003 C 
ATOM     10  C   UNL     1      37.498 -19.208 -21.217  0.00  0.00    +0.032 C 
ATOM     11  C   UNL     1      34.142 -21.315 -19.590  0.00  0.00    +0.013 C 
ATOM     12  C   UNL     1      35.443 -21.733 -19.309  0.00  0.00    +0.001 C 
ENDBRANCH   2   6
BRANCH   3  13
ATOM     13  C   UNL     1      34.590 -16.168 -22.601  0.00  0.00    +0.006 C 
BRANCH  13  14
ATOM     14  N   UNL     1      34.372 -14.799 -22.155  0.00  0.00    +0.390 N 
ATOM     15  H   UNL     1      34.734 -14.695 -21.207  0.00  0.00    -0.084 HD
ATOM     16  H   UNL     1      34.856 -14.167 -22.792  0.00  0.00    -0.084 HD
BRANCH  14  17
ATOM     17  C   UNL     1      32.952 -14.470 -22.162  0.00  0.00    -0.081 C 
BRANCH  17  18
ATOM     18  C   UNL     1      32.568 -13.746 -20.873  0.00  0.00    -0.023 C 
BRANCH  18  19
ATOM     19  C   UNL     1      31.860 -12.423 -21.171  0.00  0.00    -0.002 C 
ATOM     20  C   UNL     1      31.635 -11.613 -19.905  0.00  0.00    -0.000 C 
ENDBRANCH  18  19
ENDBRANCH  17  18
ENDBRANCH  14  17
ENDBRANCH  13  14
ENDBRANCH   3  13
TORSDOF 6
ENDMDL
MODEL 8
REMARK VINA RESULT:      -7.5      4.801      6.501
REMARK  Name = 22379
REMARK  6 active torsions:
REMARK  status: ('A' for Active; 'I' for Inactive)
REMARK    1  A    between atoms: N_2  and  C_6
REMARK    2  A    between atoms: C_3  and  C_13
REMARK    3  A    between atoms: C_13  and  N_14
REMARK    4  A    between atoms: N_14  and  C_17
REMARK    5  A    between atoms: C_17  and  C_18
REMARK    6  A    between atoms: C_18  and  C_19
REMARK                            x       y       z     vdW  Elec       q    Type
REMARK                         _______ _______ _______ _____ _____    ______ ____
ROOT
ATOM      1  O   UNL     1      34.258 -12.277 -24.345  0.00  0.00    -0.277 OA
ATOM      2  N   UNL     1      33.033 -13.947 -23.239  0.00  0.00    -0.285 N 
ATOM      3  C   UNL     1      33.332 -12.644 -23.628  0.00  0.00    +0.205 C 
ATOM      4  H   UNL     1      32.250 -14.058 -22.653  0.00  0.00    +0.155 HD
ENDROOT
BRANCH   2   6
ATOM      5 CL   UNL     1      32.771 -14.812 -26.128  0.00  0.00    -0.081 Cl
ATOM      6  C   UNL     1      33.725 -15.133 -23.587  0.00  0.00    +0.057 C 
ATOM      7  C   UNL     1      34.452 -15.795 -22.609  0.00  0.00    -0.008 C 
ATOM      8  C   UNL     1      33.668 -15.614 -24.887  0.00  0.00    +0.071 C 
ATOM      9  C   UNL     1      35.137 -16.965 -22.937  0.00  0.00    -0.003 C 
ATOM     10  C   UNL     1      34.524 -15.293 -21.203  0.00  0.00    +0.032 C 
ATOM     11  C   UNL     1      34.353 -16.783 -25.216  0.00  0.00    +0.013 C 
ATOM     12  C   UNL     1      35.088 -17.459 -24.241  0.00  0.00    +0.001 C 
ENDBRANCH   2   6
BRANCH   3  13
ATOM     13  C   UNL     1      32.329 -11.673 -23.025  0.00  0.00    +0.006 C 
BRANCH  13  14
ATOM     14  N   UNL     1      31.545 -12.358 -22.008  0.00  0.00    +0.390 N 
ATOM     15  H   UNL     1      30.829 -12.925 -22.462  0.00  0.00    -0.084 HD
ATOM     16  H   UNL     1      32.168 -12.947 -21.457  0.00  0.00    -0.084 HD
BRANCH  14  17
ATOM     17  C   UNL     1      30.900 -11.401 -21.116  0.00  0.00    -0.081 C 
BRANCH  17  18
ATOM     18  C   UNL     1      31.542 -11.449 -19.731  0.00  0.00    -0.023 C 
BRANCH  18  19
ATOM     19  C   UNL     1      31.753 -10.042 -19.170  0.00  0.00    -0.002 C 
ATOM     20  C   UNL     1      32.135  -9.058 -20.264  0.00  0.00    -0.000 C 
ENDBRANCH  18  19
ENDBRANCH  17  18
ENDBRANCH  14  17
ENDBRANCH  13  14
ENDBRANCH   3  13
TORSDOF 6
ENDMDL
MODEL 9
REMARK VINA RESULT:      -7.4      6.803     10.633
REMARK  Name = 22379
REMARK  6 active torsions:
REMARK  status: ('A' for Active; 'I' for Inactive)
REMARK    1  A    between atoms: N_2  and  C_6
REMARK    2  A    between atoms: C_3  and  C_13
REMARK    3  A    between atoms: C_13  and  N_14
REMARK    4  A    between atoms: N_14  and  C_17
REMARK    5  A    between atoms: C_17  and  C_18
REMARK    6  A    between atoms: C_18  and  C_19
REMARK                            x       y       z     vdW  Elec       q    Type
REMARK                         _______ _______ _______ _____ _____    ______ ____
ROOT
ATOM      1  O   UNL     1      35.627 -25.373 -15.606  0.00  0.00    -0.277 OA
ATOM      2  N   UNL     1      35.105 -23.091 -15.427  0.00  0.00    -0.285 N 
ATOM      3  C   UNL     1      35.352 -24.375 -14.947  0.00  0.00    +0.205 C 
ATOM      4  H   UNL     1      34.894 -22.407 -14.751  0.00  0.00    +0.155 HD
ENDROOT
BRANCH   2   6
ATOM      5 CL   UNL     1      32.511 -23.447 -16.945  0.00  0.00    -0.081 Cl
ATOM      6  C   UNL     1      35.121 -22.653 -16.773  0.00  0.00    +0.057 C 
ATOM      7  C   UNL     1      36.288 -22.108 -17.287  0.00  0.00    -0.008 C 
ATOM      8  C   UNL     1      33.981 -22.773 -17.555  0.00  0.00    +0.071 C 
ATOM      9  C   UNL     1      36.317 -21.675 -18.612  0.00  0.00    -0.003 C 
ATOM     10  C   UNL     1      37.525 -21.972 -16.460  0.00  0.00    +0.032 C 
ATOM     11  C   UNL     1      34.010 -22.340 -18.880  0.00  0.00    +0.013 C 
ATOM     12  C   UNL     1      35.179 -21.790 -19.409  0.00  0.00    +0.001 C 
ENDBRANCH   2   6
BRANCH   3  13
ATOM     13  C   UNL     1      35.230 -24.402 -13.432  0.00  0.00    +0.006 C 
BRANCH  13  14
ATOM     14  N   UNL     1      36.092 -25.445 -12.897  0.00  0.00    +0.390 N 
ATOM     15  H   UNL     1      35.609 -25.918 -12.131  0.00  0.00    -0.084 HD
ATOM     16  H   UNL     1      36.307 -26.107 -13.642  0.00  0.00    -0.084 HD
BRANCH  14  17
ATOM     17  C   UNL     1      37.341 -24.884 -12.397  0.00  0.00    -0.081 C 
BRANCH  17  18
ATOM     18  C   UNL     1      38.533 -25.661 -12.953  0.00  0.00    -0.023 C 
BRANCH  18  19
ATOM     19  C   UNL     1      38.954 -25.123 -14.322  0.00  0.00    -0.002 C 
ATOM     20  C   UNL     1      40.308 -25.670 -14.744  0.00  0.00    -0.000 C 
ENDBRANCH  18  19
ENDBRANCH  17  18
ENDBRANCH  14  17
ENDBRANCH  13  14
ENDBRANCH   3  13
TORSDOF 6
ENDMDL
