MODEL 1
REMARK VINA RESULT:      -6.0      0.000      0.000
REMARK  Name = 15478
REMARK  4 active torsions:
REMARK  status: ('A' for Active; 'I' for Inactive)
REMARK    1  A    between atoms: C_1  and  O_26
REMARK    2  A    between atoms: C_6  and  O_28
REMARK    3  A    between atoms: C_9  and  C_22
REMARK    4  A    between atoms: C_19  and  O_30
REMARK                            x       y       z     vdW  Elec       q    Type
REMARK                         _______ _______ _______ _____ _____    ______ ____
ROOT
ATOM      1  C   UNL     1      32.278 -23.636 -15.663  0.00  0.00    +0.091 C 
ATOM      2  C   UNL     1      33.728 -23.383 -15.156  0.00  0.00    +0.025 C 
ATOM      3  C   UNL     1      31.267 -23.961 -14.526  0.00  0.00    +0.051 C 
ATOM      4  C   UNL     1      34.251 -24.495 -14.200  0.00  0.00    +0.005 C 
ATOM      5  C   UNL     1      35.719 -24.218 -13.690  0.00  0.00    +0.000 C 
ATOM      6  C   UNL     1      31.845 -25.072 -13.599  0.00  0.00    +0.113 C 
ATOM      7  C   UNL     1      36.665 -23.989 -14.913  0.00  0.00    +0.002 C 
ATOM      8  C   UNL     1      33.239 -24.738 -13.065  0.00  0.00    +0.029 C 
ATOM      9  C   UNL     1      30.042 -24.541 -15.310  0.00  0.00    +0.027 C 
ATOM     10  C   UNL     1      32.120 -24.822 -16.634  0.00  0.00    +0.027 C 
ATOM     11  C   UNL     1      34.708 -23.141 -16.320  0.00  0.00    +0.002 C 
ATOM     12  C   UNL     1      36.136 -22.891 -15.849  0.00  0.00    +0.000 C 
ATOM     13  C   UNL     1      30.671 -25.311 -16.487  0.00  0.00    +0.007 C 
ATOM     14  C   UNL     1      36.290 -25.397 -12.847  0.00  0.00    +0.002 C 
ATOM     15  C   UNL     1      30.884 -22.718 -13.689  0.00  0.00    +0.005 C 
ATOM     16  C   UNL     1      36.937 -25.286 -15.712  0.00  0.00    +0.029 C 
ATOM     17  C   UNL     1      35.764 -22.973 -12.766  0.00  0.00    +0.000 C 
ATOM     18  C   UNL     1      36.538 -26.675 -13.646  0.00  0.00    +0.029 C 
ATOM     19  C   UNL     1      37.457 -26.423 -14.835  0.00  0.00    +0.111 C 
ENDROOT
BRANCH   9  22
ATOM     20  O   UNL     1      27.665 -21.712 -15.831  0.00  0.00    -0.441 OA
ATOM     21  O   UNL     1      26.888 -22.014 -17.977  0.00  0.00    -0.245 OA
ATOM     22  C   UNL     1      29.047 -23.537 -15.820  0.00  0.00    +0.005 C 
ATOM     23  C   UNL     1      28.586 -22.409 -14.985  0.00  0.00    +0.231 C 
ATOM     24  C   UNL     1      28.470 -23.517 -17.018  0.00  0.00    +0.077 C 
ATOM     25  C   UNL     1      27.584 -22.352 -17.034  0.00  0.00    +0.341 C 
ENDBRANCH   9  22
BRANCH   1  26
ATOM     26  O   UNL     1      31.838 -22.452 -16.347  0.00  0.00    -0.387 OA
ATOM     27  H   UNL     1      31.499 -21.813 -15.701  0.00  0.00    +0.210 HD
ENDBRANCH   1  26
BRANCH   6  28
ATOM     28  O   UNL     1      30.967 -25.292 -12.494  0.00  0.00    -0.384 OA
ATOM     29  H   UNL     1      31.487 -25.517 -11.707  0.00  0.00    +0.210 HD
ENDBRANCH   6  28
BRANCH  19  30
ATOM     30  O   UNL     1      38.761 -26.105 -14.352  0.00  0.00    -0.384 OA
ATOM     31  H   UNL     1      39.021 -26.749 -13.676  0.00  0.00    +0.210 HD
ENDBRANCH  19  30
TORSDOF 4
ENDMDL
MODEL 2
REMARK VINA RESULT:      -5.3     14.822     16.766
REMARK  Name = 15478
REMARK  4 active torsions:
REMARK  status: ('A' for Active; 'I' for Inactive)
REMARK    1  A    between atoms: C_1  and  O_26
REMARK    2  A    between atoms: C_6  and  O_28
REMARK    3  A    between atoms: C_9  and  C_22
REMARK    4  A    between atoms: C_19  and  O_30
REMARK                            x       y       z     vdW  Elec       q    Type
REMARK                         _______ _______ _______ _____ _____    ______ ____
ROOT
ATOM      1  C   UNL     1      32.212  -9.279 -22.457  0.00  0.00    +0.091 C 
ATOM      2  C   UNL     1      31.911 -10.800 -22.597  0.00  0.00    +0.025 C 
ATOM      3  C   UNL     1      33.089  -8.708 -23.609  0.00  0.00    +0.051 C 
ATOM      4  C   UNL     1      33.183 -11.660 -22.853  0.00  0.00    +0.005 C 
ATOM      5  C   UNL     1      32.857 -13.198 -22.999  0.00  0.00    +0.000 C 
ATOM      6  C   UNL     1      34.340  -9.612 -23.824  0.00  0.00    +0.113 C 
ATOM      7  C   UNL     1      32.048 -13.684 -21.753  0.00  0.00    +0.002 C 
ATOM      8  C   UNL     1      33.984 -11.085 -24.035  0.00  0.00    +0.029 C 
ATOM      9  C   UNL     1      33.554  -7.327 -23.036  0.00  0.00    +0.027 C 
ATOM     10  C   UNL     1      32.982  -8.876 -21.185  0.00  0.00    +0.027 C 
ATOM     11  C   UNL     1      31.105 -11.336 -21.398  0.00  0.00    +0.002 C 
ATOM     12  C   UNL     1      30.798 -12.825 -21.511  0.00  0.00    +0.000 C 
ATOM     13  C   UNL     1      33.733  -7.580 -21.526  0.00  0.00    +0.007 C 
ATOM     14  C   UNL     1      34.142 -14.071 -23.116  0.00  0.00    +0.002 C 
ATOM     15  C   UNL     1      32.312  -8.553 -24.936  0.00  0.00    +0.005 C 
ATOM     16  C   UNL     1      32.908 -13.750 -20.468  0.00  0.00    +0.029 C 
ATOM     17  C   UNL     1      32.035 -13.475 -24.285  0.00  0.00    +0.000 C 
ATOM     18  C   UNL     1      34.988 -14.113 -21.845  0.00  0.00    +0.029 C 
ATOM     19  C   UNL     1      34.175 -14.583 -20.646  0.00  0.00    +0.111 C 
ENDROOT
BRANCH   9  22
ATOM     20  O   UNL     1      31.508  -4.505 -24.368  0.00  0.00    -0.441 OA
ATOM     21  O   UNL     1      30.329  -3.748 -22.542  0.00  0.00    -0.245 OA
ATOM     22  C   UNL     1      32.621  -6.170 -23.259  0.00  0.00    +0.005 C 
ATOM     23  C   UNL     1      32.468  -5.544 -24.588  0.00  0.00    +0.231 C 
ATOM     24  C   UNL     1      31.848  -5.576 -22.356  0.00  0.00    +0.077 C 
ATOM     25  C   UNL     1      31.132  -4.508 -23.056  0.00  0.00    +0.341 C 
ENDBRANCH   9  22
BRANCH   1  26
ATOM     26  O   UNL     1      30.957  -8.580 -22.445  0.00  0.00    -0.387 OA
ATOM     27  H   UNL     1      30.426  -8.856 -23.209  0.00  0.00    +0.210 HD
ENDBRANCH   1  26
BRANCH   6  28
ATOM     28  O   UNL     1      35.087  -9.151 -24.952  0.00  0.00    -0.384 OA
ATOM     29  H   UNL     1      35.662  -8.418 -24.681  0.00  0.00    +0.210 HD
ENDBRANCH   6  28
BRANCH  19  30
ATOM     30  O   UNL     1      33.830 -15.955 -20.831  0.00  0.00    -0.384 OA
ATOM     31  H   UNL     1      32.941 -16.114 -20.479  0.00  0.00    +0.210 HD
ENDBRANCH  19  30
TORSDOF 4
ENDMDL
MODEL 3
REMARK VINA RESULT:      -5.1      7.479      9.432
REMARK  Name = 15478
REMARK  4 active torsions:
REMARK  status: ('A' for Active; 'I' for Inactive)
REMARK    1  A    between atoms: C_1  and  O_26
REMARK    2  A    between atoms: C_6  and  O_28
REMARK    3  A    between atoms: C_9  and  C_22
REMARK    4  A    between atoms: C_19  and  O_30
REMARK                            x       y       z     vdW  Elec       q    Type
REMARK                         _______ _______ _______ _____ _____    ______ ____
ROOT
ATOM      1  C   UNL     1      34.247 -18.628 -21.586  0.00  0.00    +0.091 C 
ATOM      2  C   UNL     1      34.332 -20.102 -21.094  0.00  0.00    +0.025 C 
ATOM      3  C   UNL     1      35.507 -18.157 -22.367  0.00  0.00    +0.051 C 
ATOM      4  C   UNL     1      35.652 -20.426 -20.337  0.00  0.00    +0.005 C 
ATOM      5  C   UNL     1      35.723 -21.927 -19.853  0.00  0.00    +0.000 C 
ATOM      6  C   UNL     1      36.796 -18.514 -21.566  0.00  0.00    +0.113 C 
ATOM      7  C   UNL     1      34.452 -22.268 -19.010  0.00  0.00    +0.002 C 
ATOM      8  C   UNL     1      36.867 -19.991 -21.176  0.00  0.00    +0.029 C 
ATOM      9  C   UNL     1      35.338 -16.601 -22.389  0.00  0.00    +0.027 C 
ATOM     10  C   UNL     1      34.100 -17.573 -20.473  0.00  0.00    +0.027 C 
ATOM     11  C   UNL     1      33.097 -20.500 -20.262  0.00  0.00    +0.002 C 
ATOM     12  C   UNL     1      33.157 -21.942 -19.769  0.00  0.00    +0.000 C 
ATOM     13  C   UNL     1      34.686 -16.268 -21.033  0.00  0.00    +0.007 C 
ATOM     14  C   UNL     1      36.979 -22.213 -18.977  0.00  0.00    +0.002 C 
ATOM     15  C   UNL     1      35.587 -18.751 -23.792  0.00  0.00    +0.005 C 
ATOM     16  C   UNL     1      34.448 -21.578 -17.625  0.00  0.00    +0.029 C 
ATOM     17  C   UNL     1      35.815 -22.899 -21.059  0.00  0.00    +0.000 C 
ATOM     18  C   UNL     1      36.968 -21.512 -17.620  0.00  0.00    +0.029 C 
ATOM     19  C   UNL     1      35.717 -21.855 -16.822  0.00  0.00    +0.111 C 
ENDROOT
BRANCH   9  22
ATOM     20  O   UNL     1      32.952 -14.749 -24.580  0.00  0.00    -0.441 OA
ATOM     21  O   UNL     1      33.338 -15.599 -26.684  0.00  0.00    -0.245 OA
ATOM     22  C   UNL     1      34.511 -16.040 -23.512  0.00  0.00    +0.005 C 
ATOM     23  C   UNL     1      33.496 -14.993 -23.279  0.00  0.00    +0.231 C 
ATOM     24  C   UNL     1      34.565 -16.381 -24.796  0.00  0.00    +0.077 C 
ATOM     25  C   UNL     1      33.570 -15.559 -25.487  0.00  0.00    +0.341 C 
ENDBRANCH   9  22
BRANCH   1  26
ATOM     26  O   UNL     1      33.102 -18.514 -22.446  0.00  0.00    -0.387 OA
ATOM     27  H   UNL     1      32.489 -17.856 -22.084  0.00  0.00    +0.210 HD
ENDBRANCH   1  26
BRANCH   6  28
ATOM     28  O   UNL     1      37.955 -18.181 -22.333  0.00  0.00    -0.384 OA
ATOM     29  H   UNL     1      38.626 -18.872 -22.220  0.00  0.00    +0.210 HD
ENDBRANCH   6  28
BRANCH  19  30
ATOM     30  O   UNL     1      35.766 -23.233 -16.456  0.00  0.00    -0.384 OA
ATOM     31  H   UNL     1      35.989 -23.309 -15.515  0.00  0.00    +0.210 HD
ENDBRANCH  19  30
TORSDOF 4
ENDMDL
MODEL 4
REMARK VINA RESULT:      -5.0      1.837      7.611
REMARK  Name = 15478
REMARK  4 active torsions:
REMARK  status: ('A' for Active; 'I' for Inactive)
REMARK    1  A    between atoms: C_1  and  O_26
REMARK    2  A    between atoms: C_6  and  O_28
REMARK    3  A    between atoms: C_9  and  C_22
REMARK    4  A    between atoms: C_19  and  O_30
REMARK                            x       y       z     vdW  Elec       q    Type
REMARK                         _______ _______ _______ _____ _____    ______ ____
ROOT
ATOM      1  C   UNL     1      34.586 -24.802 -14.271  0.00  0.00    +0.091 C 
ATOM      2  C   UNL     1      33.210 -24.135 -13.977  0.00  0.00    +0.025 C 
ATOM      3  C   UNL     1      35.502 -23.957 -15.203  0.00  0.00    +0.051 C 
ATOM      4  C   UNL     1      32.469 -23.656 -15.259  0.00  0.00    +0.005 C 
ATOM      5  C   UNL     1      31.081 -22.976 -14.940  0.00  0.00    +0.000 C 
ATOM      6  C   UNL     1      34.706 -23.500 -16.463  0.00  0.00    +0.113 C 
ATOM      7  C   UNL     1      30.210 -23.941 -14.073  0.00  0.00    +0.002 C 
ATOM      8  C   UNL     1      33.402 -22.781 -16.116  0.00  0.00    +0.029 C 
ATOM      9  C   UNL     1      36.594 -24.990 -15.640  0.00  0.00    +0.027 C 
ATOM     10  C   UNL     1      34.514 -26.168 -14.980  0.00  0.00    +0.027 C 
ATOM     11  C   UNL     1      32.309 -25.039 -13.114  0.00  0.00    +0.002 C 
ATOM     12  C   UNL     1      30.954 -24.407 -12.812  0.00  0.00    +0.000 C 
ATOM     13  C   UNL     1      35.836 -26.327 -15.747  0.00  0.00    +0.007 C 
ATOM     14  C   UNL     1      30.279 -22.623 -16.229  0.00  0.00    +0.002 C 
ATOM     15  C   UNL     1      36.116 -22.730 -14.490  0.00  0.00    +0.005 C 
ATOM     16  C   UNL     1      29.692 -25.162 -14.870  0.00  0.00    +0.029 C 
ATOM     17  C   UNL     1      31.275 -21.637 -14.180  0.00  0.00    +0.000 C 
ATOM     18  C   UNL     1      29.789 -23.838 -17.013  0.00  0.00    +0.029 C 
ATOM     19  C   UNL     1      28.950 -24.766 -16.144  0.00  0.00    +0.111 C 
ENDROOT
BRANCH   9  22
ATOM     20  O   UNL     1      39.044 -25.910 -12.979  0.00  0.00    -0.441 OA
ATOM     21  O   UNL     1      40.880 -24.593 -13.421  0.00  0.00    -0.245 OA
ATOM     22  C   UNL     1      37.773 -25.136 -14.720  0.00  0.00    +0.005 C 
ATOM     23  C   UNL     1      37.757 -26.079 -13.583  0.00  0.00    +0.231 C 
ATOM     24  C   UNL     1      38.929 -24.483 -14.786  0.00  0.00    +0.077 C 
ATOM     25  C   UNL     1      39.749 -24.971 -13.675  0.00  0.00    +0.341 C 
ENDBRANCH   9  22
BRANCH   1  26
ATOM     26  O   UNL     1      35.258 -24.997 -13.018  0.00  0.00    -0.387 OA
ATOM     27  H   UNL     1      34.833 -25.721 -12.532  0.00  0.00    +0.210 HD
ENDBRANCH   1  26
BRANCH   6  28
ATOM     28  O   UNL     1      35.514 -22.634 -17.263  0.00  0.00    -0.384 OA
ATOM     29  H   UNL     1      35.563 -21.761 -16.845  0.00  0.00    +0.210 HD
ENDBRANCH   6  28
BRANCH  19  30
ATOM     30  O   UNL     1      27.731 -24.105 -15.808  0.00  0.00    -0.384 OA
ATOM     31  H   UNL     1      27.906 -23.427 -15.136  0.00  0.00    +0.210 HD
ENDBRANCH  19  30
TORSDOF 4
ENDMDL
MODEL 5
REMARK VINA RESULT:      -4.8      1.918      7.608
REMARK  Name = 15478
REMARK  4 active torsions:
REMARK  status: ('A' for Active; 'I' for Inactive)
REMARK    1  A    between atoms: C_1  and  O_26
REMARK    2  A    between atoms: C_6  and  O_28
REMARK    3  A    between atoms: C_9  and  C_22
REMARK    4  A    between atoms: C_19  and  O_30
REMARK                            x       y       z     vdW  Elec       q    Type
REMARK                         _______ _______ _______ _____ _____    ______ ____
ROOT
ATOM      1  C   UNL     1      35.427 -24.036 -15.056  0.00  0.00    +0.091 C 
ATOM      2  C   UNL     1      33.956 -24.323 -15.475  0.00  0.00    +0.025 C 
ATOM      3  C   UNL     1      35.833 -24.699 -13.707  0.00  0.00    +0.051 C 
ATOM      4  C   UNL     1      32.924 -24.040 -14.344  0.00  0.00    +0.005 C 
ATOM      5  C   UNL     1      31.440 -24.343 -14.785  0.00  0.00    +0.000 C 
ATOM      6  C   UNL     1      34.762 -24.388 -12.617  0.00  0.00    +0.113 C 
ATOM      7  C   UNL     1      31.113 -23.564 -16.100  0.00  0.00    +0.002 C 
ATOM      8  C   UNL     1      33.343 -24.762 -13.050  0.00  0.00    +0.029 C 
ATOM      9  C   UNL     1      37.159 -23.953 -13.342  0.00  0.00    +0.027 C 
ATOM     10  C   UNL     1      35.771 -22.550 -14.843  0.00  0.00    +0.027 C 
ATOM     11  C   UNL     1      33.577 -23.587 -16.775  0.00  0.00    +0.002 C 
ATOM     12  C   UNL     1      32.139 -23.852 -17.206  0.00  0.00    +0.000 C 
ATOM     13  C   UNL     1      36.942 -22.514 -13.849  0.00  0.00    +0.007 C 
ATOM     14  C   UNL     1      30.399 -23.929 -13.702  0.00  0.00    +0.002 C 
ATOM     15  C   UNL     1      36.040 -26.226 -13.826  0.00  0.00    +0.005 C 
ATOM     16  C   UNL     1      30.981 -22.039 -15.876  0.00  0.00    +0.029 C 
ATOM     17  C   UNL     1      31.226 -25.862 -15.022  0.00  0.00    +0.000 C 
ATOM     18  C   UNL     1      30.293 -22.421 -13.481  0.00  0.00    +0.029 C 
ATOM     19  C   UNL     1      29.980 -21.686 -14.779  0.00  0.00    +0.111 C 
ENDROOT
BRANCH   9  22
ATOM     20  O   UNL     1      40.165 -24.805 -15.384  0.00  0.00    -0.441 OA
ATOM     21  O   UNL     1      41.168 -26.522 -14.225  0.00  0.00    -0.245 OA
ATOM     22  C   UNL     1      38.421 -24.522 -13.927  0.00  0.00    +0.005 C 
ATOM     23  C   UNL     1      38.993 -24.007 -15.188  0.00  0.00    +0.231 C 
ATOM     24  C   UNL     1      39.162 -25.509 -13.431  0.00  0.00    +0.077 C 
ATOM     25  C   UNL     1      40.280 -25.697 -14.357  0.00  0.00    +0.341 C 
ENDBRANCH   9  22
BRANCH   1  26
ATOM     26  O   UNL     1      36.287 -24.538 -16.092  0.00  0.00    -0.387 OA
ATOM     27  H   UNL     1      37.182 -24.657 -15.739  0.00  0.00    +0.210 HD
ENDBRANCH   1  26
BRANCH   6  28
ATOM     28  O   UNL     1      35.077 -25.086 -11.411  0.00  0.00    -0.384 OA
ATOM     29  H   UNL     1      35.284 -26.011 -11.618  0.00  0.00    +0.210 HD
ENDBRANCH   6  28
BRANCH  19  30
ATOM     30  O   UNL     1      28.661 -22.029 -15.198  0.00  0.00    -0.384 OA
ATOM     31  H   UNL     1      28.155 -21.219 -15.366  0.00  0.00    +0.210 HD
ENDBRANCH  19  30
TORSDOF 4
ENDMDL
MODEL 6
REMARK VINA RESULT:      -4.7      1.310      1.648
REMARK  Name = 15478
REMARK  4 active torsions:
REMARK  status: ('A' for Active; 'I' for Inactive)
REMARK    1  A    between atoms: C_1  and  O_26
REMARK    2  A    between atoms: C_6  and  O_28
REMARK    3  A    between atoms: C_9  and  C_22
REMARK    4  A    between atoms: C_19  and  O_30
REMARK                            x       y       z     vdW  Elec       q    Type
REMARK                         _______ _______ _______ _____ _____    ______ ____
ROOT
ATOM      1  C   UNL     1      32.317 -24.140 -15.269  0.00  0.00    +0.091 C 
ATOM      2  C   UNL     1      33.854 -23.908 -15.189  0.00  0.00    +0.025 C 
ATOM      3  C   UNL     1      31.500 -23.254 -14.284  0.00  0.00    +0.051 C 
ATOM      4  C   UNL     1      34.414 -23.967 -13.738  0.00  0.00    +0.005 C 
ATOM      5  C   UNL     1      35.972 -23.723 -13.677  0.00  0.00    +0.000 C 
ATOM      6  C   UNL     1      32.110 -23.347 -12.852  0.00  0.00    +0.113 C 
ATOM      7  C   UNL     1      36.698 -24.718 -14.638  0.00  0.00    +0.002 C 
ATOM      8  C   UNL     1      33.606 -23.033 -12.818  0.00  0.00    +0.029 C 
ATOM      9  C   UNL     1      30.096 -23.944 -14.283  0.00  0.00    +0.027 C 
ATOM     10  C   UNL     1      31.851 -25.570 -14.936  0.00  0.00    +0.027 C 
ATOM     11  C   UNL     1      34.626 -24.858 -16.126  0.00  0.00    +0.002 C 
ATOM     12  C   UNL     1      36.135 -24.650 -16.066  0.00  0.00    +0.000 C 
ATOM     13  C   UNL     1      30.408 -25.447 -14.424  0.00  0.00    +0.007 C 
ATOM     14  C   UNL     1      36.552 -23.920 -12.244  0.00  0.00    +0.002 C 
ATOM     15  C   UNL     1      31.420 -21.776 -14.731  0.00  0.00    +0.005 C 
ATOM     16  C   UNL     1      36.672 -26.177 -14.122  0.00  0.00    +0.029 C 
ATOM     17  C   UNL     1      36.326 -22.267 -14.083  0.00  0.00    +0.000 C 
ATOM     18  C   UNL     1      36.503 -25.361 -11.742  0.00  0.00    +0.029 C 
ATOM     19  C   UNL     1      37.212 -26.312 -12.700  0.00  0.00    +0.111 C 
ENDROOT
BRANCH   9  22
ATOM     20  O   UNL     1      27.823 -23.641 -17.227  0.00  0.00    -0.441 OA
ATOM     21  O   UNL     1      27.082 -21.463 -17.148  0.00  0.00    -0.245 OA
ATOM     22  C   UNL     1      29.144 -23.510 -15.362  0.00  0.00    +0.005 C 
ATOM     23  C   UNL     1      28.704 -24.435 -16.426  0.00  0.00    +0.231 C 
ATOM     24  C   UNL     1      28.594 -22.309 -15.511  0.00  0.00    +0.077 C 
ATOM     25  C   UNL     1      27.747 -22.383 -16.703  0.00  0.00    +0.341 C 
ENDBRANCH   9  22
BRANCH   1  26
ATOM     26  O   UNL     1      31.896 -23.846 -16.610  0.00  0.00    -0.387 OA
ATOM     27  H   UNL     1      31.076 -24.327 -16.804  0.00  0.00    +0.210 HD
ENDBRANCH   1  26
BRANCH   6  28
ATOM     28  O   UNL     1      31.429 -22.450 -11.973  0.00  0.00    -0.384 OA
ATOM     29  H   UNL     1      30.981 -21.765 -12.493  0.00  0.00    +0.210 HD
ENDBRANCH   6  28
BRANCH  19  30
ATOM     30  O   UNL     1      38.609 -26.027 -12.683  0.00  0.00    -0.384 OA
ATOM     31  H   UNL     1      38.846 -25.528 -13.481  0.00  0.00    +0.210 HD
ENDBRANCH  19  30
TORSDOF 4
ENDMDL
MODEL 7
REMARK VINA RESULT:      -4.1     14.439     16.866
REMARK  Name = 15478
REMARK  4 active torsions:
REMARK  status: ('A' for Active; 'I' for Inactive)
REMARK    1  A    between atoms: C_1  and  O_26
REMARK    2  A    between atoms: C_6  and  O_28
REMARK    3  A    between atoms: C_9  and  C_22
REMARK    4  A    between atoms: C_19  and  O_30
REMARK                            x       y       z     vdW  Elec       q    Type
REMARK                         _______ _______ _______ _____ _____    ______ ____
ROOT
ATOM      1  C   UNL     1      32.440 -10.915 -21.870  0.00  0.00    +0.091 C 
ATOM      2  C   UNL     1      32.935  -9.439 -21.858  0.00  0.00    +0.025 C 
ATOM      3  C   UNL     1      32.999 -11.751 -23.057  0.00  0.00    +0.051 C 
ATOM      4  C   UNL     1      32.758  -8.717 -23.226  0.00  0.00    +0.005 C 
ATOM      5  C   UNL     1      33.272  -7.225 -23.196  0.00  0.00    +0.000 C 
ATOM      6  C   UNL     1      32.801 -10.977 -24.395  0.00  0.00    +0.113 C 
ATOM      7  C   UNL     1      32.586  -6.456 -22.021  0.00  0.00    +0.002 C 
ATOM      8  C   UNL     1      33.375  -9.560 -24.356  0.00  0.00    +0.029 C 
ATOM      9  C   UNL     1      32.071 -13.011 -23.058  0.00  0.00    +0.027 C 
ATOM     10  C   UNL     1      30.915 -11.094 -21.992  0.00  0.00    +0.027 C 
ATOM     11  C   UNL     1      32.298  -8.631 -20.711  0.00  0.00    +0.002 C 
ATOM     12  C   UNL     1      32.768  -7.180 -20.679  0.00  0.00    +0.000 C 
ATOM     13  C   UNL     1      30.691 -12.470 -22.636  0.00  0.00    +0.007 C 
ATOM     14  C   UNL     1      32.967  -6.462 -24.520  0.00  0.00    +0.002 C 
ATOM     15  C   UNL     1      34.488 -12.128 -22.878  0.00  0.00    +0.005 C 
ATOM     16  C   UNL     1      31.086  -6.179 -22.281  0.00  0.00    +0.029 C 
ATOM     17  C   UNL     1      34.812  -7.168 -23.017  0.00  0.00    +0.000 C 
ATOM     18  C   UNL     1      31.481  -6.212 -24.770  0.00  0.00    +0.029 C 
ATOM     19  C   UNL     1      30.835  -5.467 -23.608  0.00  0.00    +0.111 C 
ENDROOT
BRANCH   9  22
ATOM     20  O   UNL     1      32.651 -15.401 -20.251  0.00  0.00    -0.441 OA
ATOM     21  O   UNL     1      33.989 -17.035 -21.167  0.00  0.00    -0.245 OA
ATOM     22  C   UNL     1      32.483 -14.139 -22.154  0.00  0.00    +0.005 C 
ATOM     23  C   UNL     1      32.052 -14.197 -20.742  0.00  0.00    +0.231 C 
ATOM     24  C   UNL     1      33.247 -15.181 -22.467  0.00  0.00    +0.077 C 
ATOM     25  C   UNL     1      33.360 -15.994 -21.255  0.00  0.00    +0.341 C 
ENDBRANCH   9  22
BRANCH   1  26
ATOM     26  O   UNL     1      32.854 -11.529 -20.639  0.00  0.00    -0.387 OA
ATOM     27  H   UNL     1      33.708 -11.970 -20.769  0.00  0.00    +0.210 HD
ENDBRANCH   1  26
BRANCH   6  28
ATOM     28  O   UNL     1      33.412 -11.694 -25.470  0.00  0.00    -0.384 OA
ATOM     29  H   UNL     1      33.713 -11.068 -26.146  0.00  0.00    +0.210 HD
ENDBRANCH   6  28
BRANCH  19  30
ATOM     30  O   UNL     1      31.366  -4.144 -23.555  0.00  0.00    -0.384 OA
ATOM     31  H   UNL     1      30.672  -3.508 -23.788  0.00  0.00    +0.210 HD
ENDBRANCH  19  30
TORSDOF 4
ENDMDL
MODEL 8
REMARK VINA RESULT:      -4.0     19.240     21.570
REMARK  Name = 15478
REMARK  4 active torsions:
REMARK  status: ('A' for Active; 'I' for Inactive)
REMARK    1  A    between atoms: C_1  and  O_26
REMARK    2  A    between atoms: C_6  and  O_28
REMARK    3  A    between atoms: C_9  and  C_22
REMARK    4  A    between atoms: C_19  and  O_30
REMARK                            x       y       z     vdW  Elec       q    Type
REMARK                         _______ _______ _______ _____ _____    ______ ____
ROOT
ATOM      1  C   UNL     1      32.098  -5.745 -23.934  0.00  0.00    +0.091 C 
ATOM      2  C   UNL     1      32.578  -4.520 -24.765  0.00  0.00    +0.025 C 
ATOM      3  C   UNL     1      33.096  -6.940 -23.951  0.00  0.00    +0.051 C 
ATOM      4  C   UNL     1      33.031  -4.890 -26.208  0.00  0.00    +0.005 C 
ATOM      5  C   UNL     1      33.521  -3.637 -27.033  0.00  0.00    +0.000 C 
ATOM      6  C   UNL     1      33.519  -7.260 -25.417  0.00  0.00    +0.113 C 
ATOM      7  C   UNL     1      32.413  -2.534 -27.019  0.00  0.00    +0.002 C 
ATOM      8  C   UNL     1      34.056  -6.038 -26.164  0.00  0.00    +0.029 C 
ATOM      9  C   UNL     1      32.227  -8.121 -23.404  0.00  0.00    +0.027 C 
ATOM     10  C   UNL     1      30.774  -6.377 -24.401  0.00  0.00    +0.027 C 
ATOM     11  C   UNL     1      31.528  -3.392 -24.781  0.00  0.00    +0.002 C 
ATOM     12  C   UNL     1      31.974  -2.180 -25.590  0.00  0.00    +0.000 C 
ATOM     13  C   UNL     1      30.815  -7.848 -23.959  0.00  0.00    +0.007 C 
ATOM     14  C   UNL     1      33.841  -3.987 -28.517  0.00  0.00    +0.002 C 
ATOM     15  C   UNL     1      34.349  -6.690 -23.080  0.00  0.00    +0.005 C 
ATOM     16  C   UNL     1      31.182  -2.911 -27.879  0.00  0.00    +0.029 C 
ATOM     17  C   UNL     1      34.831  -3.055 -26.440  0.00  0.00    +0.000 C 
ATOM     18  C   UNL     1      32.619  -4.372 -29.346  0.00  0.00    +0.029 C 
ATOM     19  C   UNL     1      31.552  -3.285 -29.312  0.00  0.00    +0.111 C 
ENDROOT
BRANCH   9  22
ATOM     20  O   UNL     1      31.986  -7.672 -19.708  0.00  0.00    -0.441 OA
ATOM     21  O   UNL     1      32.246  -9.797 -18.861  0.00  0.00    -0.245 OA
ATOM     22  C   UNL     1      32.176  -8.269 -21.910  0.00  0.00    +0.005 C 
ATOM     23  C   UNL     1      31.970  -7.106 -21.022  0.00  0.00    +0.231 C 
ATOM     24  C   UNL     1      32.301  -9.392 -21.210  0.00  0.00    +0.077 C 
ATOM     25  C   UNL     1      32.182  -9.020 -19.799  0.00  0.00    +0.341 C 
ENDBRANCH   9  22
BRANCH   1  26
ATOM     26  O   UNL     1      31.920  -5.314 -22.576  0.00  0.00    -0.387 OA
ATOM     27  H   UNL     1      31.418  -4.484 -22.563  0.00  0.00    +0.210 HD
ENDBRANCH   1  26
BRANCH   6  28
ATOM     28  O   UNL     1      34.517  -8.283 -25.424  0.00  0.00    -0.384 OA
ATOM     29  H   UNL     1      34.375  -8.867 -26.185  0.00  0.00    +0.210 HD
ENDBRANCH   6  28
BRANCH  19  30
ATOM     30  O   UNL     1      32.042  -2.136 -30.000  0.00  0.00    -0.384 OA
ATOM     31  H   UNL     1      33.010  -2.118 -29.951  0.00  0.00    +0.210 HD
ENDBRANCH  19  30
TORSDOF 4
ENDMDL
MODEL 9
REMARK VINA RESULT:      -3.3     10.769     13.228
REMARK  Name = 15478
REMARK  4 active torsions:
REMARK  status: ('A' for Active; 'I' for Inactive)
REMARK    1  A    between atoms: C_1  and  O_26
REMARK    2  A    between atoms: C_6  and  O_28
REMARK    3  A    between atoms: C_9  and  C_22
REMARK    4  A    between atoms: C_19  and  O_30
REMARK                            x       y       z     vdW  Elec       q    Type
REMARK                         _______ _______ _______ _____ _____    ______ ____
ROOT
ATOM      1  C   UNL     1      34.085 -16.354 -23.149  0.00  0.00    +0.091 C 
ATOM      2  C   UNL     1      33.351 -15.146 -23.801  0.00  0.00    +0.025 C 
ATOM      3  C   UNL     1      34.199 -16.253 -21.600  0.00  0.00    +0.051 C 
ATOM      4  C   UNL     1      33.901 -13.765 -23.338  0.00  0.00    +0.005 C 
ATOM      5  C   UNL     1      33.140 -12.553 -24.003  0.00  0.00    +0.000 C 
ATOM      6  C   UNL     1      34.746 -14.851 -21.196  0.00  0.00    +0.113 C 
ATOM      7  C   UNL     1      33.158 -12.712 -25.558  0.00  0.00    +0.002 C 
ATOM      8  C   UNL     1      33.941 -13.698 -21.800  0.00  0.00    +0.029 C 
ATOM      9  C   UNL     1      35.278 -17.335 -21.263  0.00  0.00    +0.027 C 
ATOM     10  C   UNL     1      35.542 -16.559 -23.604  0.00  0.00    +0.027 C 
ATOM     11  C   UNL     1      33.328 -15.252 -25.338  0.00  0.00    +0.002 C 
ATOM     12  C   UNL     1      32.614 -14.078 -26.001  0.00  0.00    +0.000 C 
ATOM     13  C   UNL     1      36.257 -17.283 -22.453  0.00  0.00    +0.007 C 
ATOM     14  C   UNL     1      33.780 -11.178 -23.647  0.00  0.00    +0.002 C 
ATOM     15  C   UNL     1      32.859 -16.527 -20.880  0.00  0.00    +0.005 C 
ATOM     16  C   UNL     1      34.558 -12.469 -26.169  0.00  0.00    +0.029 C 
ATOM     17  C   UNL     1      31.670 -12.478 -23.512  0.00  0.00    +0.000 C 
ATOM     18  C   UNL     1      35.169 -10.961 -24.243  0.00  0.00    +0.029 C 
ATOM     19  C   UNL     1      35.160 -11.128 -25.758  0.00  0.00    +0.111 C 
ENDROOT
BRANCH   9  22
ATOM     20  O   UNL     1      34.803 -21.023 -20.955  0.00  0.00    -0.441 OA
ATOM     21  O   UNL     1      32.576 -21.265 -20.425  0.00  0.00    -0.245 OA
ATOM     22  C   UNL     1      34.773 -18.737 -21.070  0.00  0.00    +0.005 C 
ATOM     23  C   UNL     1      35.662 -19.908 -21.216  0.00  0.00    +0.231 C 
ATOM     24  C   UNL     1      33.534 -19.109 -20.762  0.00  0.00    +0.077 C 
ATOM     25  C   UNL     1      33.544 -20.571 -20.687  0.00  0.00    +0.341 C 
ENDBRANCH   9  22
BRANCH   1  26
ATOM     26  O   UNL     1      33.354 -17.545 -23.480  0.00  0.00    -0.387 OA
ATOM     27  H   UNL     1      33.413 -17.705 -24.435  0.00  0.00    +0.210 HD
ENDBRANCH   1  26
BRANCH   6  28
ATOM     28  O   UNL     1      34.747 -14.719 -19.773  0.00  0.00    -0.384 OA
ATOM     29  H   UNL     1      33.882 -14.984 -19.424  0.00  0.00    +0.210 HD
ENDBRANCH   6  28
BRANCH  19  30
ATOM     30  O   UNL     1      34.407 -10.063 -26.335  0.00  0.00    -0.384 OA
ATOM     31  H   UNL     1      34.868  -9.732 -27.122  0.00  0.00    +0.210 HD
ENDBRANCH  19  30
TORSDOF 4
ENDMDL
