MODEL 1
REMARK VINA RESULT:     -11.2      0.000      0.000
REMARK  Name = 445579
REMARK  10 active torsions:
REMARK  status: ('A' for Active; 'I' for Inactive)
REMARK    1  A    between atoms: C_1  and  O_18
REMARK    2  A    between atoms: C_4  and  C_9
REMARK    3  A    between atoms: N_8  and  C_11
REMARK    4  A    between atoms: C_11  and  C_12
REMARK    5  A    between atoms: O_18  and  C_24
REMARK    6  A    between atoms: C_20  and  O_27
REMARK    7  A    between atoms: C_21  and  O_25
REMARK    8  A    between atoms: C_22  and  C_31
REMARK    9  A    between atoms: C_23  and  O_29
REMARK   10  A    between atoms: C_31  and  O_32
REMARK                            x       y       z     vdW  Elec       q    Type
REMARK                         _______ _______ _______ _____ _____    ______ ____
ROOT
ATOM      1  C   UNL     1      34.311 -23.916 -15.256  0.00  0.00    +0.142 C 
ATOM      2  C   UNL     1      34.412 -23.537 -16.591  0.00  0.00    +0.042 C 
ATOM      3  C   UNL     1      33.078 -23.909 -14.611  0.00  0.00    +0.037 C 
ATOM      4  C   UNL     1      33.269 -23.146 -17.288  0.00  0.00    +0.056 C 
ATOM      5  C   UNL     1      31.935 -23.518 -15.308  0.00  0.00    +0.003 C 
ATOM      6  C   UNL     1      32.030 -23.137 -16.646  0.00  0.00    +0.005 C 
ENDROOT
BRANCH   4   9
ATOM      7  O   UNL     1      33.785 -23.523 -19.556  0.00  0.00    -0.270 OA
ATOM      8  N   UNL     1      32.936 -21.457 -18.987  0.00  0.00    -0.297 N 
ATOM      9  C   UNL     1      33.368 -22.749 -18.683  0.00  0.00    +0.246 C 
ATOM     10  H   UNL     1      32.612 -20.882 -18.255  0.00  0.00    +0.150 HD
BRANCH   8  11
ATOM     11  C   UNL     1      32.942 -20.927 -20.332  0.00  0.00    +0.117 C 
BRANCH  11  12
ATOM     12  C   UNL     1      34.197 -20.158 -20.627  0.00  0.00    -0.003 C 
ATOM     13  C   UNL     1      35.420 -20.634 -20.168  0.00  0.00    -0.003 C 
ATOM     14  C   UNL     1      34.124 -18.976 -21.357  0.00  0.00    -0.003 C 
ATOM     15  C   UNL     1      36.586 -19.919 -20.442  0.00  0.00    -0.000 C 
ATOM     16  C   UNL     1      35.291 -18.263 -21.631  0.00  0.00    -0.000 C 
ATOM     17  C   UNL     1      36.521 -18.734 -21.174  0.00  0.00    -0.000 C 
ENDBRANCH  11  12
ENDBRANCH   8  11
ENDBRANCH   4   9
BRANCH   1  18
ATOM     18  O   UNL     1      35.433 -24.300 -14.572  0.00  0.00    -0.451 OA
BRANCH  18  24
ATOM     19  O   UNL     1      36.057 -23.069 -12.650  0.00  0.00    -0.316 OA
ATOM     20  C   UNL     1      37.913 -24.545 -12.059  0.00  0.00    +0.169 C 
ATOM     21  C   UNL     1      38.215 -24.747 -13.547  0.00  0.00    +0.173 C 
ATOM     22  C   UNL     1      36.429 -24.209 -11.860  0.00  0.00    +0.177 C 
ATOM     23  C   UNL     1      37.727 -23.544 -14.353  0.00  0.00    +0.210 C 
ATOM     24  C   UNL     1      36.254 -23.255 -14.054  0.00  0.00    +0.318 C 
BRANCH  21  25
ATOM     25  O   UNL     1      39.617 -24.906 -13.742  0.00  0.00    -0.379 OA
ATOM     26  H   UNL     1      40.008 -24.056 -13.997  0.00  0.00    +0.211 HD
ENDBRANCH  21  25
BRANCH  20  27
ATOM     27  O   UNL     1      38.704 -23.467 -11.553  0.00  0.00    -0.379 OA
ATOM     28  H   UNL     1      38.177 -22.653 -11.551  0.00  0.00    +0.211 HD
ENDBRANCH  20  27
BRANCH  23  29
ATOM     29  O   UNL     1      37.885 -23.785 -15.748  0.00  0.00    -0.377 OA
ATOM     30  H   UNL     1      37.153 -23.372 -16.233  0.00  0.00    +0.211 HD
ENDBRANCH  23  29
BRANCH  22  31
ATOM     31  C   UNL     1      36.099 -23.879 -10.409  0.00  0.00    +0.169 C 
BRANCH  31  32
ATOM     32  O   UNL     1      35.315 -24.930  -9.873  0.00  0.00    -0.379 OA
ATOM     33  H   UNL     1      35.875 -25.706  -9.721  0.00  0.00    +0.211 HD
ENDBRANCH  31  32
ENDBRANCH  22  31
ENDBRANCH  18  24
ENDBRANCH   1  18
TORSDOF 10
ENDMDL
MODEL 2
REMARK VINA RESULT:     -11.2      1.156      2.502
REMARK  Name = 445579
REMARK  10 active torsions:
REMARK  status: ('A' for Active; 'I' for Inactive)
REMARK    1  A    between atoms: C_1  and  O_18
REMARK    2  A    between atoms: C_4  and  C_9
REMARK    3  A    between atoms: N_8  and  C_11
REMARK    4  A    between atoms: C_11  and  C_12
REMARK    5  A    between atoms: O_18  and  C_24
REMARK    6  A    between atoms: C_20  and  O_27
REMARK    7  A    between atoms: C_21  and  O_25
REMARK    8  A    between atoms: C_22  and  C_31
REMARK    9  A    between atoms: C_23  and  O_29
REMARK   10  A    between atoms: C_31  and  O_32
REMARK                            x       y       z     vdW  Elec       q    Type
REMARK                         _______ _______ _______ _____ _____    ______ ____
ROOT
ATOM      1  C   UNL     1      34.166 -23.351 -15.173  0.00  0.00    +0.142 C 
ATOM      2  C   UNL     1      34.319 -23.048 -16.522  0.00  0.00    +0.042 C 
ATOM      3  C   UNL     1      32.898 -23.541 -14.631  0.00  0.00    +0.037 C 
ATOM      4  C   UNL     1      33.193 -22.934 -17.338  0.00  0.00    +0.056 C 
ATOM      5  C   UNL     1      31.773 -23.427 -15.448  0.00  0.00    +0.003 C 
ATOM      6  C   UNL     1      31.920 -23.124 -16.801  0.00  0.00    +0.005 C 
ENDROOT
BRANCH   4   9
ATOM      7  O   UNL     1      33.769 -23.451 -19.564  0.00  0.00    -0.270 OA
ATOM      8  N   UNL     1      32.963 -21.334 -19.138  0.00  0.00    -0.297 N 
ATOM      9  C   UNL     1      33.348 -22.618 -18.750  0.00  0.00    +0.246 C 
ATOM     10  H   UNL     1      32.633 -20.711 -18.449  0.00  0.00    +0.150 HD
BRANCH   8  11
ATOM     11  C   UNL     1      33.026 -20.880 -20.508  0.00  0.00    +0.117 C 
BRANCH  11  12
ATOM     12  C   UNL     1      34.282 -20.107 -20.787  0.00  0.00    -0.003 C 
ATOM     13  C   UNL     1      34.227 -18.970 -21.586  0.00  0.00    -0.003 C 
ATOM     14  C   UNL     1      35.489 -20.535 -20.245  0.00  0.00    -0.003 C 
ATOM     15  C   UNL     1      35.395 -18.252 -21.846  0.00  0.00    -0.000 C 
ATOM     16  C   UNL     1      36.655 -19.816 -20.504  0.00  0.00    -0.000 C 
ATOM     17  C   UNL     1      36.608 -18.675 -21.304  0.00  0.00    -0.000 C 
ENDBRANCH  11  12
ENDBRANCH   8  11
ENDBRANCH   4   9
BRANCH   1  18
ATOM     18  O   UNL     1      35.270 -23.463 -14.372  0.00  0.00    -0.451 OA
BRANCH  18  24
ATOM     19  O   UNL     1      36.514 -25.459 -14.117  0.00  0.00    -0.316 OA
ATOM     20  C   UNL     1      38.050 -24.529 -12.460  0.00  0.00    +0.169 C 
ATOM     21  C   UNL     1      36.901 -23.707 -11.868  0.00  0.00    +0.173 C 
ATOM     22  C   UNL     1      37.787 -24.818 -13.943  0.00  0.00    +0.177 C 
ATOM     23  C   UNL     1      35.563 -24.390 -12.150  0.00  0.00    +0.210 C 
ATOM     24  C   UNL     1      35.411 -24.681 -13.645  0.00  0.00    +0.318 C 
BRANCH  21  25
ATOM     25  O   UNL     1      37.073 -23.572 -10.460  0.00  0.00    -0.379 OA
ATOM     26  H   UNL     1      38.019 -23.591 -10.246  0.00  0.00    +0.211 HD
ENDBRANCH  21  25
BRANCH  20  27
ATOM     27  O   UNL     1      38.160 -25.770 -11.759  0.00  0.00    -0.379 OA
ATOM     28  H   UNL     1      37.499 -25.800 -11.050  0.00  0.00    +0.211 HD
ENDBRANCH  20  27
BRANCH  23  29
ATOM     29  O   UNL     1      34.486 -23.564 -11.720  0.00  0.00    -0.377 OA
ATOM     30  H   UNL     1      33.854 -24.097 -11.210  0.00  0.00    +0.211 HD
ENDBRANCH  23  29
BRANCH  22  31
ATOM     31  C   UNL     1      38.841 -25.736 -14.552  0.00  0.00    +0.169 C 
BRANCH  31  32
ATOM     32  O   UNL     1      38.333 -27.058 -14.571  0.00  0.00    -0.379 OA
ATOM     33  H   UNL     1      38.054 -27.284 -15.471  0.00  0.00    +0.211 HD
ENDBRANCH  31  32
ENDBRANCH  22  31
ENDBRANCH  18  24
ENDBRANCH   1  18
TORSDOF 10
ENDMDL
MODEL 3
REMARK VINA RESULT:     -11.2      1.260      1.663
REMARK  Name = 445579
REMARK  10 active torsions:
REMARK  status: ('A' for Active; 'I' for Inactive)
REMARK    1  A    between atoms: C_1  and  O_18
REMARK    2  A    between atoms: C_4  and  C_9
REMARK    3  A    between atoms: N_8  and  C_11
REMARK    4  A    between atoms: C_11  and  C_12
REMARK    5  A    between atoms: O_18  and  C_24
REMARK    6  A    between atoms: C_20  and  O_27
REMARK    7  A    between atoms: C_21  and  O_25
REMARK    8  A    between atoms: C_22  and  C_31
REMARK    9  A    between atoms: C_23  and  O_29
REMARK   10  A    between atoms: C_31  and  O_32
REMARK                            x       y       z     vdW  Elec       q    Type
REMARK                         _______ _______ _______ _____ _____    ______ ____
ROOT
ATOM      1  C   UNL     1      33.702 -23.882 -15.165  0.00  0.00    +0.142 C 
ATOM      2  C   UNL     1      33.970 -23.535 -16.486  0.00  0.00    +0.042 C 
ATOM      3  C   UNL     1      32.429 -23.705 -14.633  0.00  0.00    +0.037 C 
ATOM      4  C   UNL     1      32.955 -23.004 -17.282  0.00  0.00    +0.056 C 
ATOM      5  C   UNL     1      31.414 -23.175 -15.429  0.00  0.00    +0.003 C 
ATOM      6  C   UNL     1      31.676 -22.825 -16.753  0.00  0.00    +0.005 C 
ENDROOT
BRANCH   4   9
ATOM      7  O   UNL     1      33.755 -23.432 -19.457  0.00  0.00    -0.270 OA
ATOM      8  N   UNL     1      32.835 -21.358 -19.050  0.00  0.00    -0.297 N 
ATOM      9  C   UNL     1      33.229 -22.640 -18.663  0.00  0.00    +0.246 C 
ATOM     10  H   UNL     1      32.420 -20.768 -18.378  0.00  0.00    +0.150 HD
BRANCH   8  11
ATOM     11  C   UNL     1      33.010 -20.860 -20.395  0.00  0.00    +0.117 C 
BRANCH  11  12
ATOM     12  C   UNL     1      34.348 -20.208 -20.584  0.00  0.00    -0.003 C 
ATOM     13  C   UNL     1      34.440 -19.021 -21.303  0.00  0.00    -0.003 C 
ATOM     14  C   UNL     1      35.484 -20.796 -20.038  0.00  0.00    -0.003 C 
ATOM     15  C   UNL     1      35.684 -18.415 -21.479  0.00  0.00    -0.000 C 
ATOM     16  C   UNL     1      36.727 -20.189 -20.214  0.00  0.00    -0.000 C 
ATOM     17  C   UNL     1      36.827 -18.999 -20.934  0.00  0.00    -0.000 C 
ENDBRANCH  11  12
ENDBRANCH   8  11
ENDBRANCH   4   9
BRANCH   1  18
ATOM     18  O   UNL     1      34.699 -24.402 -14.385  0.00  0.00    -0.451 OA
BRANCH  18  24
ATOM     19  O   UNL     1      36.546 -23.120 -13.647  0.00  0.00    -0.316 OA
ATOM     20  C   UNL     1      37.619 -24.973 -12.469  0.00  0.00    +0.169 C 
ATOM     21  C   UNL     1      37.142 -25.934 -13.562  0.00  0.00    +0.173 C 
ATOM     22  C   UNL     1      36.675 -23.768 -12.372  0.00  0.00    +0.177 C 
ATOM     23  C   UNL     1      36.942 -25.181 -14.877  0.00  0.00    +0.210 C 
ATOM     24  C   UNL     1      36.027 -23.971 -14.673  0.00  0.00    +0.318 C 
BRANCH  21  25
ATOM     25  O   UNL     1      38.101 -26.970 -13.754  0.00  0.00    -0.379 OA
ATOM     26  H   UNL     1      38.735 -26.702 -14.437  0.00  0.00    +0.211 HD
ENDBRANCH  21  25
BRANCH  20  27
ATOM     27  O   UNL     1      38.933 -24.507 -12.784  0.00  0.00    -0.379 OA
ATOM     28  H   UNL     1      38.926 -24.087 -13.658  0.00  0.00    +0.211 HD
ENDBRANCH  20  27
BRANCH  23  29
ATOM     29  O   UNL     1      36.372 -26.042 -15.858  0.00  0.00    -0.377 OA
ATOM     30  H   UNL     1      35.675 -25.568 -16.338  0.00  0.00    +0.211 HD
ENDBRANCH  23  29
BRANCH  22  31
ATOM     31  C   UNL     1      37.171 -22.720 -11.382  0.00  0.00    +0.169 C 
BRANCH  31  32
ATOM     32  O   UNL     1      38.181 -21.949 -12.007  0.00  0.00    -0.379 OA
ATOM     33  H   UNL     1      38.070 -21.016 -11.770  0.00  0.00    +0.211 HD
ENDBRANCH  31  32
ENDBRANCH  22  31
ENDBRANCH  18  24
ENDBRANCH   1  18
TORSDOF 10
ENDMDL
MODEL 4
REMARK VINA RESULT:     -10.9      2.150      3.761
REMARK  Name = 445579
REMARK  10 active torsions:
REMARK  status: ('A' for Active; 'I' for Inactive)
REMARK    1  A    between atoms: C_1  and  O_18
REMARK    2  A    between atoms: C_4  and  C_9
REMARK    3  A    between atoms: N_8  and  C_11
REMARK    4  A    between atoms: C_11  and  C_12
REMARK    5  A    between atoms: O_18  and  C_24
REMARK    6  A    between atoms: C_20  and  O_27
REMARK    7  A    between atoms: C_21  and  O_25
REMARK    8  A    between atoms: C_22  and  C_31
REMARK    9  A    between atoms: C_23  and  O_29
REMARK   10  A    between atoms: C_31  and  O_32
REMARK                            x       y       z     vdW  Elec       q    Type
REMARK                         _______ _______ _______ _____ _____    ______ ____
ROOT
ATOM      1  C   UNL     1      35.124 -22.630 -17.025  0.00  0.00    +0.142 C 
ATOM      2  C   UNL     1      35.938 -21.882 -17.870  0.00  0.00    +0.042 C 
ATOM      3  C   UNL     1      33.835 -22.982 -17.415  0.00  0.00    +0.037 C 
ATOM      4  C   UNL     1      35.459 -21.482 -19.118  0.00  0.00    +0.056 C 
ATOM      5  C   UNL     1      33.357 -22.582 -18.663  0.00  0.00    +0.003 C 
ATOM      6  C   UNL     1      34.168 -21.833 -19.514  0.00  0.00    +0.005 C 
ENDROOT
BRANCH   4   9
ATOM      7  O   UNL     1      37.445 -21.074 -20.319  0.00  0.00    -0.270 OA
ATOM      8  N   UNL     1      35.748 -19.525 -20.509  0.00  0.00    -0.297 N 
ATOM      9  C   UNL     1      36.306 -20.702 -20.006  0.00  0.00    +0.246 C 
ATOM     10  H   UNL     1      34.837 -19.275 -20.228  0.00  0.00    +0.150 HD
BRANCH   8  11
ATOM     11  C   UNL     1      36.451 -18.658 -21.427  0.00  0.00    +0.117 C 
BRANCH  11  12
ATOM     12  C   UNL     1      35.654 -18.390 -22.670  0.00  0.00    -0.003 C 
ATOM     13  C   UNL     1      35.387 -17.078 -23.046  0.00  0.00    -0.003 C 
ATOM     14  C   UNL     1      35.189 -19.455 -23.433  0.00  0.00    -0.003 C 
ATOM     15  C   UNL     1      34.645 -16.829 -24.202  0.00  0.00    -0.000 C 
ATOM     16  C   UNL     1      34.448 -19.205 -24.588  0.00  0.00    -0.000 C 
ATOM     17  C   UNL     1      34.176 -17.892 -24.972  0.00  0.00    -0.000 C 
ENDBRANCH  11  12
ENDBRANCH   8  11
ENDBRANCH   4   9
BRANCH   1  18
ATOM     18  O   UNL     1      35.594 -23.022 -15.801  0.00  0.00    -0.451 OA
BRANCH  18  24
ATOM     19  O   UNL     1      36.366 -25.217 -15.372  0.00  0.00    -0.316 OA
ATOM     20  C   UNL     1      36.861 -24.799 -13.016  0.00  0.00    +0.169 C 
ATOM     21  C   UNL     1      35.637 -23.882 -12.929  0.00  0.00    +0.173 C 
ATOM     22  C   UNL     1      37.400 -24.833 -14.452  0.00  0.00    +0.177 C 
ATOM     23  C   UNL     1      34.603 -24.282 -13.981  0.00  0.00    +0.210 C 
ATOM     24  C   UNL     1      35.240 -24.335 -15.371  0.00  0.00    +0.318 C 
BRANCH  21  25
ATOM     25  O   UNL     1      35.051 -23.974 -11.634  0.00  0.00    -0.379 OA
ATOM     26  H   UNL     1      34.789 -24.892 -11.461  0.00  0.00    +0.211 HD
ENDBRANCH  21  25
BRANCH  20  27
ATOM     27  O   UNL     1      36.494 -26.125 -12.628  0.00  0.00    -0.379 OA
ATOM     28  H   UNL     1      35.807 -26.458 -13.227  0.00  0.00    +0.211 HD
ENDBRANCH  20  27
BRANCH  23  29
ATOM     29  O   UNL     1      33.525 -23.352 -13.992  0.00  0.00    -0.377 OA
ATOM     30  H   UNL     1      32.757 -23.742 -13.545  0.00  0.00    +0.211 HD
ENDBRANCH  23  29
BRANCH  22  31
ATOM     31  C   UNL     1      38.545 -25.824 -14.621  0.00  0.00    +0.169 C 
BRANCH  31  32
ATOM     32  O   UNL     1      37.999 -27.109 -14.862  0.00  0.00    -0.379 OA
ATOM     33  H   UNL     1      37.899 -27.244 -15.816  0.00  0.00    +0.211 HD
ENDBRANCH  31  32
ENDBRANCH  22  31
ENDBRANCH  18  24
ENDBRANCH   1  18
TORSDOF 10
ENDMDL
MODEL 5
REMARK VINA RESULT:     -10.9      2.294      3.794
REMARK  Name = 445579
REMARK  10 active torsions:
REMARK  status: ('A' for Active; 'I' for Inactive)
REMARK    1  A    between atoms: C_1  and  O_18
REMARK    2  A    between atoms: C_4  and  C_9
REMARK    3  A    between atoms: N_8  and  C_11
REMARK    4  A    between atoms: C_11  and  C_12
REMARK    5  A    between atoms: O_18  and  C_24
REMARK    6  A    between atoms: C_20  and  O_27
REMARK    7  A    between atoms: C_21  and  O_25
REMARK    8  A    between atoms: C_22  and  C_31
REMARK    9  A    between atoms: C_23  and  O_29
REMARK   10  A    between atoms: C_31  and  O_32
REMARK                            x       y       z     vdW  Elec       q    Type
REMARK                         _______ _______ _______ _____ _____    ______ ____
ROOT
ATOM      1  C   UNL     1      35.121 -22.391 -18.100  0.00  0.00    +0.142 C 
ATOM      2  C   UNL     1      35.809 -21.475 -18.891  0.00  0.00    +0.042 C 
ATOM      3  C   UNL     1      33.749 -22.567 -18.253  0.00  0.00    +0.037 C 
ATOM      4  C   UNL     1      35.117 -20.727 -19.844  0.00  0.00    +0.056 C 
ATOM      5  C   UNL     1      33.059 -21.819 -19.207  0.00  0.00    +0.003 C 
ATOM      6  C   UNL     1      33.742 -20.900 -20.002  0.00  0.00    +0.005 C 
ENDROOT
BRANCH   4   9
ATOM      7  O   UNL     1      37.012 -19.467 -20.456  0.00  0.00    -0.270 OA
ATOM      8  N   UNL     1      35.117 -19.236 -21.748  0.00  0.00    -0.297 N 
ATOM      9  C   UNL     1      35.831 -19.770 -20.673  0.00  0.00    +0.246 C 
ATOM     10  H   UNL     1      34.180 -19.511 -21.876  0.00  0.00    +0.150 HD
BRANCH   8  11
ATOM     11  C   UNL     1      35.697 -18.297 -22.681  0.00  0.00    +0.117 C 
BRANCH  11  12
ATOM     12  C   UNL     1      35.154 -16.910 -22.495  0.00  0.00    -0.003 C 
ATOM     13  C   UNL     1      34.941 -16.100 -23.604  0.00  0.00    -0.003 C 
ATOM     14  C   UNL     1      34.868 -16.449 -21.214  0.00  0.00    -0.003 C 
ATOM     15  C   UNL     1      34.437 -14.810 -23.431  0.00  0.00    -0.000 C 
ATOM     16  C   UNL     1      34.363 -15.161 -21.042  0.00  0.00    -0.000 C 
ATOM     17  C   UNL     1      34.148 -14.342 -22.150  0.00  0.00    -0.000 C 
ENDBRANCH  11  12
ENDBRANCH   8  11
ENDBRANCH   4   9
BRANCH   1  18
ATOM     18  O   UNL     1      35.799 -23.124 -17.165  0.00  0.00    -0.451 OA
BRANCH  18  24
ATOM     19  O   UNL     1      34.825 -22.594 -15.074  0.00  0.00    -0.316 OA
ATOM     20  C   UNL     1      35.574 -24.645 -13.977  0.00  0.00    +0.169 C 
ATOM     21  C   UNL     1      36.877 -24.590 -14.781  0.00  0.00    +0.173 C 
ATOM     22  C   UNL     1      34.447 -23.939 -14.742  0.00  0.00    +0.177 C 
ATOM     23  C   UNL     1      37.191 -23.148 -15.178  0.00  0.00    +0.210 C 
ATOM     24  C   UNL     1      35.995 -22.512 -15.891  0.00  0.00    +0.318 C 
BRANCH  21  25
ATOM     25  O   UNL     1      37.951 -25.109 -14.003  0.00  0.00    -0.379 OA
ATOM     26  H   UNL     1      38.735 -25.217 -14.564  0.00  0.00    +0.211 HD
ENDBRANCH  21  25
BRANCH  20  27
ATOM     27  O   UNL     1      35.760 -23.990 -12.720  0.00  0.00    -0.379 OA
ATOM     28  H   UNL     1      34.910 -23.644 -12.407  0.00  0.00    +0.211 HD
ENDBRANCH  20  27
BRANCH  23  29
ATOM     29  O   UNL     1      38.326 -23.108 -16.036  0.00  0.00    -0.377 OA
ATOM     30  H   UNL     1      38.032 -23.057 -16.960  0.00  0.00    +0.211 HD
ENDBRANCH  23  29
BRANCH  22  31
ATOM     31  C   UNL     1      33.157 -23.859 -13.934  0.00  0.00    +0.169 C 
BRANCH  31  32
ATOM     32  O   UNL     1      33.106 -24.967 -13.052  0.00  0.00    -0.379 OA
ATOM     33  H   UNL     1      32.209 -25.333 -13.043  0.00  0.00    +0.211 HD
ENDBRANCH  31  32
ENDBRANCH  22  31
ENDBRANCH  18  24
ENDBRANCH   1  18
TORSDOF 10
ENDMDL
MODEL 6
REMARK VINA RESULT:     -10.8      1.667      3.183
REMARK  Name = 445579
REMARK  10 active torsions:
REMARK  status: ('A' for Active; 'I' for Inactive)
REMARK    1  A    between atoms: C_1  and  O_18
REMARK    2  A    between atoms: C_4  and  C_9
REMARK    3  A    between atoms: N_8  and  C_11
REMARK    4  A    between atoms: C_11  and  C_12
REMARK    5  A    between atoms: O_18  and  C_24
REMARK    6  A    between atoms: C_20  and  O_27
REMARK    7  A    between atoms: C_21  and  O_25
REMARK    8  A    between atoms: C_22  and  C_31
REMARK    9  A    between atoms: C_23  and  O_29
REMARK   10  A    between atoms: C_31  and  O_32
REMARK                            x       y       z     vdW  Elec       q    Type
REMARK                         _______ _______ _______ _____ _____    ______ ____
ROOT
ATOM      1  C   UNL     1      32.726 -24.106 -13.758  0.00  0.00    +0.142 C 
ATOM      2  C   UNL     1      32.585 -23.320 -14.898  0.00  0.00    +0.042 C 
ATOM      3  C   UNL     1      31.795 -25.097 -13.464  0.00  0.00    +0.037 C 
ATOM      4  C   UNL     1      31.500 -23.527 -15.751  0.00  0.00    +0.056 C 
ATOM      5  C   UNL     1      30.711 -25.304 -14.317  0.00  0.00    +0.003 C 
ATOM      6  C   UNL     1      30.564 -24.519 -15.460  0.00  0.00    +0.005 C 
ENDROOT
BRANCH   4   9
ATOM      7  O   UNL     1      30.285 -22.131 -17.210  0.00  0.00    -0.270 OA
ATOM      8  N   UNL     1      32.478 -22.586 -17.753  0.00  0.00    -0.297 N 
ATOM      9  C   UNL     1      31.347 -22.709 -16.943  0.00  0.00    +0.246 C 
ATOM     10  H   UNL     1      33.299 -23.066 -17.494  0.00  0.00    +0.150 HD
BRANCH   8  11
ATOM     11  C   UNL     1      32.495 -21.783 -18.954  0.00  0.00    +0.117 C 
BRANCH  11  12
ATOM     12  C   UNL     1      33.889 -21.391 -19.349  0.00  0.00    -0.003 C 
ATOM     13  C   UNL     1      34.080 -20.424 -20.330  0.00  0.00    -0.003 C 
ATOM     14  C   UNL     1      34.976 -21.999 -18.730  0.00  0.00    -0.003 C 
ATOM     15  C   UNL     1      35.376 -20.060 -20.697  0.00  0.00    -0.000 C 
ATOM     16  C   UNL     1      36.271 -21.634 -19.097  0.00  0.00    -0.000 C 
ATOM     17  C   UNL     1      36.471 -20.665 -20.081  0.00  0.00    -0.000 C 
ENDBRANCH  11  12
ENDBRANCH   8  11
ENDBRANCH   4   9
BRANCH   1  18
ATOM     18  O   UNL     1      33.789 -23.903 -12.921  0.00  0.00    -0.451 OA
BRANCH  18  24
ATOM     19  O   UNL     1      35.645 -24.434 -14.291  0.00  0.00    -0.316 OA
ATOM     20  C   UNL     1      37.199 -22.971 -13.100  0.00  0.00    +0.169 C 
ATOM     21  C   UNL     1      36.500 -23.315 -11.781  0.00  0.00    +0.173 C 
ATOM     22  C   UNL     1      36.221 -23.119 -14.274  0.00  0.00    +0.177 C 
ATOM     23  C   UNL     1      35.834 -24.688 -11.879  0.00  0.00    +0.210 C 
ATOM     24  C   UNL     1      34.918 -24.757 -13.103  0.00  0.00    +0.318 C 
BRANCH  21  25
ATOM     25  O   UNL     1      37.447 -23.326 -10.717  0.00  0.00    -0.379 OA
ATOM     26  H   UNL     1      37.471 -24.208 -10.314  0.00  0.00    +0.211 HD
ENDBRANCH  21  25
BRANCH  20  27
ATOM     27  O   UNL     1      38.302 -23.858 -13.302  0.00  0.00    -0.379 OA
ATOM     28  H   UNL     1      38.996 -23.401 -13.803  0.00  0.00    +0.211 HD
ENDBRANCH  20  27
BRANCH  23  29
ATOM     29  O   UNL     1      35.074 -24.953 -10.705  0.00  0.00    -0.377 OA
ATOM     30  H   UNL     1      34.191 -25.270 -10.956  0.00  0.00    +0.211 HD
ENDBRANCH  23  29
BRANCH  22  31
ATOM     31  C   UNL     1      36.897 -22.905 -15.623  0.00  0.00    +0.169 C 
BRANCH  31  32
ATOM     32  O   UNL     1      37.663 -24.056 -15.933  0.00  0.00    -0.379 OA
ATOM     33  H   UNL     1      37.581 -24.254 -16.879  0.00  0.00    +0.211 HD
ENDBRANCH  31  32
ENDBRANCH  22  31
ENDBRANCH  18  24
ENDBRANCH   1  18
TORSDOF 10
ENDMDL
MODEL 7
REMARK VINA RESULT:     -10.5      1.930      3.397
REMARK  Name = 445579
REMARK  10 active torsions:
REMARK  status: ('A' for Active; 'I' for Inactive)
REMARK    1  A    between atoms: C_1  and  O_18
REMARK    2  A    between atoms: C_4  and  C_9
REMARK    3  A    between atoms: N_8  and  C_11
REMARK    4  A    between atoms: C_11  and  C_12
REMARK    5  A    between atoms: O_18  and  C_24
REMARK    6  A    between atoms: C_20  and  O_27
REMARK    7  A    between atoms: C_21  and  O_25
REMARK    8  A    between atoms: C_22  and  C_31
REMARK    9  A    between atoms: C_23  and  O_29
REMARK   10  A    between atoms: C_31  and  O_32
REMARK                            x       y       z     vdW  Elec       q    Type
REMARK                         _______ _______ _______ _____ _____    ______ ____
ROOT
ATOM      1  C   UNL     1      35.961 -22.605 -15.682  0.00  0.00    +0.142 C 
ATOM      2  C   UNL     1      35.045 -22.450 -16.719  0.00  0.00    +0.042 C 
ATOM      3  C   UNL     1      37.310 -22.332 -15.885  0.00  0.00    +0.037 C 
ATOM      4  C   UNL     1      35.484 -22.018 -17.971  0.00  0.00    +0.056 C 
ATOM      5  C   UNL     1      37.748 -21.899 -17.136  0.00  0.00    +0.003 C 
ATOM      6  C   UNL     1      36.835 -21.742 -18.179  0.00  0.00    +0.005 C 
ENDROOT
BRANCH   4   9
ATOM      7  O   UNL     1      33.663 -22.702 -19.301  0.00  0.00    -0.270 OA
ATOM      8  N   UNL     1      34.633 -20.669 -19.789  0.00  0.00    -0.297 N 
ATOM      9  C   UNL     1      34.532 -21.854 -19.057  0.00  0.00    +0.246 C 
ATOM     10  H   UNL     1      35.343 -20.027 -19.553  0.00  0.00    +0.150 HD
BRANCH   8  11
ATOM     11  C   UNL     1      33.740 -20.345 -20.878  0.00  0.00    +0.117 C 
BRANCH  11  12
ATOM     12  C   UNL     1      34.240 -19.186 -21.689  0.00  0.00    -0.003 C 
ATOM     13  C   UNL     1      34.269 -17.914 -21.127  0.00  0.00    -0.003 C 
ATOM     14  C   UNL     1      34.670 -19.393 -22.995  0.00  0.00    -0.003 C 
ATOM     15  C   UNL     1      34.733 -16.836 -21.881  0.00  0.00    -0.000 C 
ATOM     16  C   UNL     1      35.135 -18.315 -23.748  0.00  0.00    -0.000 C 
ATOM     17  C   UNL     1      35.166 -17.037 -23.191  0.00  0.00    -0.000 C 
ENDBRANCH  11  12
ENDBRANCH   8  11
ENDBRANCH   4   9
BRANCH   1  18
ATOM     18  O   UNL     1      35.530 -23.029 -14.454  0.00  0.00    -0.451 OA
BRANCH  18  24
ATOM     19  O   UNL     1      36.465 -25.201 -14.560  0.00  0.00    -0.316 OA
ATOM     20  C   UNL     1      37.082 -25.270 -12.197  0.00  0.00    +0.169 C 
ATOM     21  C   UNL     1      35.811 -24.489 -11.850  0.00  0.00    +0.173 C 
ATOM     22  C   UNL     1      37.529 -24.949 -13.629  0.00  0.00    +0.177 C 
ATOM     23  C   UNL     1      34.739 -24.727 -12.913  0.00  0.00    +0.210 C 
ATOM     24  C   UNL     1      35.288 -24.428 -14.310  0.00  0.00    +0.318 C 
BRANCH  21  25
ATOM     25  O   UNL     1      35.315 -24.904 -10.580  0.00  0.00    -0.379 OA
ATOM     26  H   UNL     1      34.962 -24.137 -10.104  0.00  0.00    +0.211 HD
ENDBRANCH  21  25
BRANCH  20  27
ATOM     27  O   UNL     1      36.824 -26.672 -12.096  0.00  0.00    -0.379 OA
ATOM     28  H   UNL     1      37.039 -26.977 -11.200  0.00  0.00    +0.211 HD
ENDBRANCH  20  27
BRANCH  23  29
ATOM     29  O   UNL     1      33.606 -23.900 -12.666  0.00  0.00    -0.377 OA
ATOM     30  H   UNL     1      32.941 -24.048 -13.358  0.00  0.00    +0.211 HD
ENDBRANCH  23  29
BRANCH  22  31
ATOM     31  C   UNL     1      38.721 -25.791 -14.068  0.00  0.00    +0.169 C 
BRANCH  31  32
ATOM     32  O   UNL     1      38.240 -27.001 -14.626  0.00  0.00    -0.379 OA
ATOM     33  H   UNL     1      37.868 -27.556 -13.924  0.00  0.00    +0.211 HD
ENDBRANCH  31  32
ENDBRANCH  22  31
ENDBRANCH  18  24
ENDBRANCH   1  18
TORSDOF 10
ENDMDL
MODEL 8
REMARK VINA RESULT:     -10.5      4.864     10.685
REMARK  Name = 445579
REMARK  10 active torsions:
REMARK  status: ('A' for Active; 'I' for Inactive)
REMARK    1  A    between atoms: C_1  and  O_18
REMARK    2  A    between atoms: C_4  and  C_9
REMARK    3  A    between atoms: N_8  and  C_11
REMARK    4  A    between atoms: C_11  and  C_12
REMARK    5  A    between atoms: O_18  and  C_24
REMARK    6  A    between atoms: C_20  and  O_27
REMARK    7  A    between atoms: C_21  and  O_25
REMARK    8  A    between atoms: C_22  and  C_31
REMARK    9  A    between atoms: C_23  and  O_29
REMARK   10  A    between atoms: C_31  and  O_32
REMARK                            x       y       z     vdW  Elec       q    Type
REMARK                         _______ _______ _______ _____ _____    ______ ____
ROOT
ATOM      1  C   UNL     1      34.809 -18.472 -21.555  0.00  0.00    +0.142 C 
ATOM      2  C   UNL     1      34.025 -19.443 -20.939  0.00  0.00    +0.042 C 
ATOM      3  C   UNL     1      36.198 -18.534 -21.481  0.00  0.00    +0.037 C 
ATOM      4  C   UNL     1      34.636 -20.485 -20.241  0.00  0.00    +0.056 C 
ATOM      5  C   UNL     1      36.807 -19.576 -20.784  0.00  0.00    +0.003 C 
ATOM      6  C   UNL     1      36.027 -20.552 -20.164  0.00  0.00    +0.005 C 
ENDROOT
BRANCH   4   9
ATOM      7  O   UNL     1      32.705 -21.819 -20.027  0.00  0.00    -0.270 OA
ATOM      8  N   UNL     1      34.386 -22.124 -18.480  0.00  0.00    -0.297 N 
ATOM      9  C   UNL     1      33.822 -21.502 -19.595  0.00  0.00    +0.246 C 
ATOM     10  H   UNL     1      35.278 -21.835 -18.178  0.00  0.00    +0.150 HD
BRANCH   8  11
ATOM     11  C   UNL     1      33.715 -23.176 -17.749  0.00  0.00    +0.117 C 
BRANCH  11  12
ATOM     12  C   UNL     1      34.250 -23.320 -16.354  0.00  0.00    -0.003 C 
ATOM     13  C   UNL     1      35.568 -22.972 -16.084  0.00  0.00    -0.003 C 
ATOM     14  C   UNL     1      33.422 -23.801 -15.346  0.00  0.00    -0.003 C 
ATOM     15  C   UNL     1      36.066 -23.108 -14.787  0.00  0.00    -0.000 C 
ATOM     16  C   UNL     1      33.919 -23.935 -14.050  0.00  0.00    -0.000 C 
ATOM     17  C   UNL     1      35.241 -23.588 -13.770  0.00  0.00    -0.000 C 
ENDBRANCH  11  12
ENDBRANCH   8  11
ENDBRANCH   4   9
BRANCH   1  18
ATOM     18  O   UNL     1      34.211 -17.450 -22.239  0.00  0.00    -0.451 OA
BRANCH  18  24
ATOM     19  O   UNL     1      34.913 -15.929 -23.910  0.00  0.00    -0.316 OA
ATOM     20  C   UNL     1      33.163 -14.290 -23.440  0.00  0.00    +0.169 C 
ATOM     21  C   UNL     1      33.267 -14.618 -21.947  0.00  0.00    +0.173 C 
ATOM     22  C   UNL     1      33.594 -15.498 -24.281  0.00  0.00    +0.177 C 
ATOM     23  C   UNL     1      34.663 -15.148 -21.620  0.00  0.00    +0.210 C 
ATOM     24  C   UNL     1      35.025 -16.317 -22.539  0.00  0.00    +0.318 C 
BRANCH  21  25
ATOM     25  O   UNL     1      33.014 -13.450 -21.173  0.00  0.00    -0.379 OA
ATOM     26  H   UNL     1      32.062 -13.377 -20.998  0.00  0.00    +0.211 HD
ENDBRANCH  21  25
BRANCH  20  27
ATOM     27  O   UNL     1      34.015 -13.184 -23.747  0.00  0.00    -0.379 OA
ATOM     28  H   UNL     1      33.918 -12.951 -24.683  0.00  0.00    +0.211 HD
ENDBRANCH  20  27
BRANCH  23  29
ATOM     29  O   UNL     1      34.723 -15.579 -20.264  0.00  0.00    -0.377 OA
ATOM     30  H   UNL     1      33.854 -15.915 -19.993  0.00  0.00    +0.211 HD
ENDBRANCH  23  29
BRANCH  22  31
ATOM     31  C   UNL     1      33.625 -15.186 -25.773  0.00  0.00    +0.169 C 
BRANCH  31  32
ATOM     32  O   UNL     1      32.467 -14.439 -26.103  0.00  0.00    -0.379 OA
ATOM     33  H   UNL     1      31.816 -14.518 -25.389  0.00  0.00    +0.211 HD
ENDBRANCH  31  32
ENDBRANCH  22  31
ENDBRANCH  18  24
ENDBRANCH   1  18
TORSDOF 10
ENDMDL
MODEL 9
REMARK VINA RESULT:     -10.3     10.099     14.369
REMARK  Name = 445579
REMARK  10 active torsions:
REMARK  status: ('A' for Active; 'I' for Inactive)
REMARK    1  A    between atoms: C_1  and  O_18
REMARK    2  A    between atoms: C_4  and  C_9
REMARK    3  A    between atoms: N_8  and  C_11
REMARK    4  A    between atoms: C_11  and  C_12
REMARK    5  A    between atoms: O_18  and  C_24
REMARK    6  A    between atoms: C_20  and  O_27
REMARK    7  A    between atoms: C_21  and  O_25
REMARK    8  A    between atoms: C_22  and  C_31
REMARK    9  A    between atoms: C_23  and  O_29
REMARK   10  A    between atoms: C_31  and  O_32
REMARK                            x       y       z     vdW  Elec       q    Type
REMARK                         _______ _______ _______ _____ _____    ______ ____
ROOT
ATOM      1  C   UNL     1      32.128 -12.082 -22.100  0.00  0.00    +0.142 C 
ATOM      2  C   UNL     1      32.151 -10.717 -22.372  0.00  0.00    +0.042 C 
ATOM      3  C   UNL     1      31.789 -12.543 -20.832  0.00  0.00    +0.037 C 
ATOM      4  C   UNL     1      31.834  -9.805 -21.365  0.00  0.00    +0.056 C 
ATOM      5  C   UNL     1      31.471 -11.631 -19.826  0.00  0.00    +0.003 C 
ATOM      6  C   UNL     1      31.493 -10.262 -20.092  0.00  0.00    +0.005 C 
ENDROOT
BRANCH   4   9
ATOM      7  O   UNL     1      32.338  -7.562 -20.847  0.00  0.00    -0.270 OA
ATOM      8  N   UNL     1      31.332  -7.985 -22.877  0.00  0.00    -0.297 N 
ATOM      9  C   UNL     1      31.856  -8.378 -21.644  0.00  0.00    +0.246 C 
ATOM     10  H   UNL     1      30.962  -8.675 -23.475  0.00  0.00    +0.150 HD
BRANCH   8  11
ATOM     11  C   UNL     1      31.312  -6.607 -23.314  0.00  0.00    +0.117 C 
BRANCH  11  12
ATOM     12  C   UNL     1      32.429  -6.303 -24.269  0.00  0.00    -0.003 C 
ATOM     13  C   UNL     1      33.661  -6.928 -24.107  0.00  0.00    -0.003 C 
ATOM     14  C   UNL     1      32.222  -5.400 -25.305  0.00  0.00    -0.003 C 
ATOM     15  C   UNL     1      34.700  -6.645 -24.994  0.00  0.00    -0.000 C 
ATOM     16  C   UNL     1      33.261  -5.118 -26.192  0.00  0.00    -0.000 C 
ATOM     17  C   UNL     1      34.499  -5.741 -26.037  0.00  0.00    -0.000 C 
ENDBRANCH  11  12
ENDBRANCH   8  11
ENDBRANCH   4   9
BRANCH   1  18
ATOM     18  O   UNL     1      32.440 -12.976 -23.087  0.00  0.00    -0.451 OA
BRANCH  18  24
ATOM     19  O   UNL     1      34.452 -14.014 -22.399  0.00  0.00    -0.316 OA
ATOM     20  C   UNL     1      34.117 -16.021 -23.753  0.00  0.00    +0.169 C 
ATOM     21  C   UNL     1      33.484 -15.163 -24.853  0.00  0.00    +0.173 C 
ATOM     22  C   UNL     1      33.931 -15.352 -22.385  0.00  0.00    +0.177 C 
ATOM     23  C   UNL     1      34.010 -13.731 -24.774  0.00  0.00    +0.210 C 
ATOM     24  C   UNL     1      33.826 -13.164 -23.365  0.00  0.00    +0.318 C 
BRANCH  21  25
ATOM     25  O   UNL     1      33.792 -15.708 -26.133  0.00  0.00    -0.379 OA
ATOM     26  H   UNL     1      33.000 -15.687 -26.693  0.00  0.00    +0.211 HD
ENDBRANCH  21  25
BRANCH  20  27
ATOM     27  O   UNL     1      35.516 -16.169 -24.009  0.00  0.00    -0.379 OA
ATOM     28  H   UNL     1      35.888 -15.314 -24.275  0.00  0.00    +0.211 HD
ENDBRANCH  20  27
BRANCH  23  29
ATOM     29  O   UNL     1      33.327 -12.901 -25.708  0.00  0.00    -0.377 OA
ATOM     30  H   UNL     1      32.370 -13.040 -25.624  0.00  0.00    +0.211 HD
ENDBRANCH  23  29
BRANCH  22  31
ATOM     31  C   UNL     1      34.648 -16.103 -21.269  0.00  0.00    +0.169 C 
BRANCH  31  32
ATOM     32  O   UNL     1      34.957 -15.188 -20.233  0.00  0.00    -0.379 OA
ATOM     33  H   UNL     1      34.154 -14.986 -19.729  0.00  0.00    +0.211 HD
ENDBRANCH  31  32
ENDBRANCH  22  31
ENDBRANCH  18  24
ENDBRANCH   1  18
TORSDOF 10
ENDMDL
