MODEL 1
REMARK VINA RESULT:      -7.0      0.000      0.000
REMARK  Name = 42552846
REMARK  3 active torsions:
REMARK  status: ('A' for Active; 'I' for Inactive)
REMARK    1  A    between atoms: C_1  and  C_10
REMARK    2  A    between atoms: C_4  and  C_9
REMARK    3  A    between atoms: C_10  and  N_11
REMARK                            x       y       z     vdW  Elec       q    Type
REMARK                         _______ _______ _______ _____ _____    ______ ____
ROOT
ATOM      1  C   UNL     1      34.926 -19.044 -21.123  0.00  0.00    -0.044 C 
ATOM      2  C   UNL     1      35.832 -19.968 -20.601  0.00  0.00    -0.006 C 
ATOM      3  C   UNL     1      33.555 -19.250 -20.973  0.00  0.00    -0.006 C 
ATOM      4  C   UNL     1      33.994 -21.305 -19.780  0.00  0.00    +0.080 C 
ATOM      5  C   UNL     1      35.365 -21.098 -19.930  0.00  0.00    +0.006 C 
ATOM      6  C   UNL     1      33.089 -20.380 -20.302  0.00  0.00    +0.006 C 
ENDROOT
BRANCH   4   9
ATOM      7  O   UNL     1      34.069 -23.631 -19.299  0.00  0.00    -0.241 OA
ATOM      8  O   UNL     1      32.519 -22.368 -18.249  0.00  0.00    -0.241 OA
ATOM      9  C   UNL     1      33.502 -22.497 -19.072  0.00  0.00    +0.388 C 
ENDBRANCH   4   9
BRANCH   1  10
ATOM     10  C   UNL     1      35.426 -17.836 -21.842  0.00  0.00    -0.059 C 
BRANCH  10  11
ATOM     11  N   UNL     1      36.158 -18.158 -23.098  0.00  0.00    +0.383 N 
ATOM     12  H   UNL     1      35.865 -17.517 -23.835  0.00  0.00    -0.089 HD
ATOM     13  H   UNL     1      35.951 -19.117 -23.378  0.00  0.00    -0.089 HD
ATOM     14  H   UNL     1      37.161 -18.059 -22.941  0.00  0.00    -0.089 HD
ENDBRANCH  10  11
ENDBRANCH   1  10
TORSDOF 3
ENDMDL
MODEL 2
REMARK VINA RESULT:      -7.0      0.030      1.457
REMARK  Name = 42552846
REMARK  3 active torsions:
REMARK  status: ('A' for Active; 'I' for Inactive)
REMARK    1  A    between atoms: C_1  and  C_10
REMARK    2  A    between atoms: C_4  and  C_9
REMARK    3  A    between atoms: C_10  and  N_11
REMARK                            x       y       z     vdW  Elec       q    Type
REMARK                         _______ _______ _______ _____ _____    ______ ____
ROOT
ATOM      1  C   UNL     1      34.908 -19.049 -21.120  0.00  0.00    -0.044 C 
ATOM      2  C   UNL     1      33.536 -19.241 -20.957  0.00  0.00    -0.006 C 
ATOM      3  C   UNL     1      35.808 -19.985 -20.612  0.00  0.00    -0.006 C 
ATOM      4  C   UNL     1      33.965 -21.306 -19.778  0.00  0.00    +0.080 C 
ATOM      5  C   UNL     1      33.065 -20.369 -20.286  0.00  0.00    +0.006 C 
ATOM      6  C   UNL     1      35.337 -21.113 -19.941  0.00  0.00    +0.006 C 
ENDROOT
BRANCH   4   9
ATOM      7  O   UNL     1      34.028 -23.634 -19.299  0.00  0.00    -0.241 OA
ATOM      8  O   UNL     1      32.489 -22.362 -18.244  0.00  0.00    -0.241 OA
ATOM      9  C   UNL     1      33.468 -22.496 -19.070  0.00  0.00    +0.388 C 
ENDBRANCH   4   9
BRANCH   1  10
ATOM     10  C   UNL     1      35.411 -17.841 -21.836  0.00  0.00    -0.059 C 
BRANCH  10  11
ATOM     11  N   UNL     1      36.133 -18.160 -23.099  0.00  0.00    +0.383 N 
ATOM     12  H   UNL     1      36.087 -17.359 -23.728  0.00  0.00    -0.089 HD
ATOM     13  H   UNL     1      35.699 -18.969 -23.544  0.00  0.00    -0.089 HD
ATOM     14  H   UNL     1      37.108 -18.371 -22.887  0.00  0.00    -0.089 HD
ENDBRANCH  10  11
ENDBRANCH   1  10
TORSDOF 3
ENDMDL
MODEL 3
REMARK VINA RESULT:      -6.6      3.722      4.894
REMARK  Name = 42552846
REMARK  3 active torsions:
REMARK  status: ('A' for Active; 'I' for Inactive)
REMARK    1  A    between atoms: C_1  and  C_10
REMARK    2  A    between atoms: C_4  and  C_9
REMARK    3  A    between atoms: C_10  and  N_11
REMARK                            x       y       z     vdW  Elec       q    Type
REMARK                         _______ _______ _______ _____ _____    ______ ____
ROOT
ATOM      1  C   UNL     1      34.047 -21.511 -19.477  0.00  0.00    -0.044 C 
ATOM      2  C   UNL     1      32.995 -20.733 -19.961  0.00  0.00    -0.006 C 
ATOM      3  C   UNL     1      35.361 -21.206 -19.829  0.00  0.00    -0.006 C 
ATOM      4  C   UNL     1      34.573 -19.342 -21.151  0.00  0.00    +0.080 C 
ATOM      5  C   UNL     1      33.259 -19.649 -20.798  0.00  0.00    +0.006 C 
ATOM      6  C   UNL     1      35.624 -20.121 -20.666  0.00  0.00    +0.006 C 
ENDROOT
BRANCH   4   9
ATOM      7  O   UNL     1      34.705 -18.347 -23.305  0.00  0.00    -0.241 OA
ATOM      8  O   UNL     1      35.233 -17.087 -21.507  0.00  0.00    -0.241 OA
ATOM      9  C   UNL     1      34.851 -18.199 -22.034  0.00  0.00    +0.388 C 
ENDBRANCH   4   9
BRANCH   1  10
ATOM     10  C   UNL     1      33.764 -22.672 -18.583  0.00  0.00    -0.059 C 
BRANCH  10  11
ATOM     11  N   UNL     1      32.406 -22.630 -17.973  0.00  0.00    +0.383 N 
ATOM     12  H   UNL     1      32.355 -21.857 -17.309  0.00  0.00    -0.089 HD
ATOM     13  H   UNL     1      32.223 -23.509 -17.488  0.00  0.00    -0.089 HD
ATOM     14  H   UNL     1      31.709 -22.495 -18.705  0.00  0.00    -0.089 HD
ENDBRANCH  10  11
ENDBRANCH   1  10
TORSDOF 3
ENDMDL
MODEL 4
REMARK VINA RESULT:      -6.4      6.969      7.989
REMARK  Name = 42552846
REMARK  3 active torsions:
REMARK  status: ('A' for Active; 'I' for Inactive)
REMARK    1  A    between atoms: C_1  and  C_10
REMARK    2  A    between atoms: C_4  and  C_9
REMARK    3  A    between atoms: C_10  and  N_11
REMARK                            x       y       z     vdW  Elec       q    Type
REMARK                         _______ _______ _______ _____ _____    ______ ____
ROOT
ATOM      1  C   UNL     1      31.521 -24.243 -14.623  0.00  0.00    -0.044 C 
ATOM      2  C   UNL     1      31.666 -23.232 -15.573  0.00  0.00    -0.006 C 
ATOM      3  C   UNL     1      30.285 -24.863 -14.447  0.00  0.00    -0.006 C 
ATOM      4  C   UNL     1      29.337 -23.462 -16.173  0.00  0.00    +0.080 C 
ATOM      5  C   UNL     1      30.574 -22.842 -16.348  0.00  0.00    +0.006 C 
ATOM      6  C   UNL     1      29.192 -24.473 -15.222  0.00  0.00    +0.006 C 
ENDROOT
BRANCH   4   9
ATOM      7  O   UNL     1      27.547 -23.948 -17.661  0.00  0.00    -0.241 OA
ATOM      8  O   UNL     1      27.852 -21.807 -17.010  0.00  0.00    -0.241 OA
ATOM      9  C   UNL     1      28.185 -23.051 -16.990  0.00  0.00    +0.388 C 
ENDBRANCH   4   9
BRANCH   1  10
ATOM     10  C   UNL     1      32.689 -24.658 -13.793  0.00  0.00    -0.059 C 
BRANCH  10  11
ATOM     11  N   UNL     1      33.661 -23.556 -13.547  0.00  0.00    +0.383 N 
ATOM     12  H   UNL     1      33.501 -23.164 -12.619  0.00  0.00    -0.089 HD
ATOM     13  H   UNL     1      33.536 -22.828 -14.251  0.00  0.00    -0.089 HD
ATOM     14  H   UNL     1      34.611 -23.923 -13.602  0.00  0.00    -0.089 HD
ENDBRANCH  10  11
ENDBRANCH   1  10
TORSDOF 3
ENDMDL
MODEL 5
REMARK VINA RESULT:      -6.4      6.972      8.038
REMARK  Name = 42552846
REMARK  3 active torsions:
REMARK  status: ('A' for Active; 'I' for Inactive)
REMARK    1  A    between atoms: C_1  and  C_10
REMARK    2  A    between atoms: C_4  and  C_9
REMARK    3  A    between atoms: C_10  and  N_11
REMARK                            x       y       z     vdW  Elec       q    Type
REMARK                         _______ _______ _______ _____ _____    ______ ____
ROOT
ATOM      1  C   UNL     1      31.520 -24.227 -14.622  0.00  0.00    -0.044 C 
ATOM      2  C   UNL     1      30.268 -24.802 -14.405  0.00  0.00    -0.006 C 
ATOM      3  C   UNL     1      31.678 -23.251 -15.606  0.00  0.00    -0.006 C 
ATOM      4  C   UNL     1      29.332 -23.426 -16.156  0.00  0.00    +0.080 C 
ATOM      5  C   UNL     1      29.174 -24.402 -15.172  0.00  0.00    +0.006 C 
ATOM      6  C   UNL     1      30.584 -22.851 -16.373  0.00  0.00    +0.006 C 
ENDROOT
BRANCH   4   9
ATOM      7  O   UNL     1      27.574 -23.880 -17.691  0.00  0.00    -0.241 OA
ATOM      8  O   UNL     1      27.810 -21.770 -16.923  0.00  0.00    -0.241 OA
ATOM      9  C   UNL     1      28.178 -23.003 -16.965  0.00  0.00    +0.388 C 
ENDBRANCH   4   9
BRANCH   1  10
ATOM     10  C   UNL     1      32.690 -24.657 -13.802  0.00  0.00    -0.059 C 
BRANCH  10  11
ATOM     11  N   UNL     1      33.593 -23.534 -13.426  0.00  0.00    +0.383 N 
ATOM     12  H   UNL     1      33.617 -23.444 -12.411  0.00  0.00    -0.089 HD
ATOM     13  H   UNL     1      33.248 -22.667 -13.838  0.00  0.00    -0.089 HD
ATOM     14  H   UNL     1      34.534 -23.725 -13.773  0.00  0.00    -0.089 HD
ENDBRANCH  10  11
ENDBRANCH   1  10
TORSDOF 3
ENDMDL
MODEL 6
REMARK VINA RESULT:      -6.2      4.584      5.879
REMARK  Name = 42552846
REMARK  3 active torsions:
REMARK  status: ('A' for Active; 'I' for Inactive)
REMARK    1  A    between atoms: C_1  and  C_10
REMARK    2  A    between atoms: C_4  and  C_9
REMARK    3  A    between atoms: C_10  and  N_11
REMARK                            x       y       z     vdW  Elec       q    Type
REMARK                         _______ _______ _______ _____ _____    ______ ____
ROOT
ATOM      1  C   UNL     1      35.152 -19.050 -21.687  0.00  0.00    -0.044 C 
ATOM      2  C   UNL     1      34.919 -19.457 -23.001  0.00  0.00    -0.006 C 
ATOM      3  C   UNL     1      35.127 -17.695 -21.362  0.00  0.00    -0.006 C 
ATOM      4  C   UNL     1      34.635 -17.151 -23.665  0.00  0.00    +0.080 C 
ATOM      5  C   UNL     1      34.661 -18.508 -23.989  0.00  0.00    +0.006 C 
ATOM      6  C   UNL     1      34.868 -16.745 -22.350  0.00  0.00    +0.006 C 
ENDROOT
BRANCH   4   9
ATOM      7  O   UNL     1      33.897 -15.001 -24.358  0.00  0.00    -0.241 OA
ATOM      8  O   UNL     1      34.598 -16.455 -25.936  0.00  0.00    -0.241 OA
ATOM      9  C   UNL     1      34.363 -16.150 -24.707  0.00  0.00    +0.388 C 
ENDBRANCH   4   9
BRANCH   1  10
ATOM     10  C   UNL     1      35.430 -20.067 -20.631  0.00  0.00    -0.059 C 
BRANCH  10  11
ATOM     11  N   UNL     1      36.720 -19.843 -19.921  0.00  0.00    +0.383 N 
ATOM     12  H   UNL     1      36.796 -18.860 -19.657  0.00  0.00    -0.089 HD
ATOM     13  H   UNL     1      37.495 -20.092 -20.535  0.00  0.00    -0.089 HD
ATOM     14  H   UNL     1      36.751 -20.423 -19.082  0.00  0.00    -0.089 HD
ENDBRANCH  10  11
ENDBRANCH   1  10
TORSDOF 3
ENDMDL
MODEL 7
REMARK VINA RESULT:      -6.2      5.391      6.654
REMARK  Name = 42552846
REMARK  3 active torsions:
REMARK  status: ('A' for Active; 'I' for Inactive)
REMARK    1  A    between atoms: C_1  and  C_10
REMARK    2  A    between atoms: C_4  and  C_9
REMARK    3  A    between atoms: C_10  and  N_11
REMARK                            x       y       z     vdW  Elec       q    Type
REMARK                         _______ _______ _______ _____ _____    ______ ____
ROOT
ATOM      1  C   UNL     1      35.428 -17.688 -22.525  0.00  0.00    -0.044 C 
ATOM      2  C   UNL     1      34.973 -16.419 -22.166  0.00  0.00    -0.006 C 
ATOM      3  C   UNL     1      35.237 -18.156 -23.825  0.00  0.00    -0.006 C 
ATOM      4  C   UNL     1      34.137 -16.085 -24.408  0.00  0.00    +0.080 C 
ATOM      5  C   UNL     1      34.328 -15.618 -23.107  0.00  0.00    +0.006 C 
ATOM      6  C   UNL     1      34.592 -17.354 -24.766  0.00  0.00    +0.006 C 
ENDROOT
BRANCH   4   9
ATOM      7  O   UNL     1      33.455 -15.611 -26.635  0.00  0.00    -0.241 OA
ATOM      8  O   UNL     1      32.885 -14.156 -25.005  0.00  0.00    -0.241 OA
ATOM      9  C   UNL     1      33.456 -15.240 -25.401  0.00  0.00    +0.388 C 
ENDBRANCH   4   9
BRANCH   1  10
ATOM     10  C   UNL     1      36.117 -18.545 -21.516  0.00  0.00    -0.059 C 
BRANCH  10  11
ATOM     11  N   UNL     1      35.178 -19.344 -20.680  0.00  0.00    +0.383 N 
ATOM     12  H   UNL     1      35.281 -20.334 -20.906  0.00  0.00    -0.089 HD
ATOM     13  H   UNL     1      34.220 -19.049 -20.868  0.00  0.00    -0.089 HD
ATOM     14  H   UNL     1      35.393 -19.197 -19.694  0.00  0.00    -0.089 HD
ENDBRANCH  10  11
ENDBRANCH   1  10
TORSDOF 3
ENDMDL
MODEL 8
REMARK VINA RESULT:      -6.0      4.629      5.945
REMARK  Name = 42552846
REMARK  3 active torsions:
REMARK  status: ('A' for Active; 'I' for Inactive)
REMARK    1  A    between atoms: C_1  and  C_10
REMARK    2  A    between atoms: C_4  and  C_9
REMARK    3  A    between atoms: C_10  and  N_11
REMARK                            x       y       z     vdW  Elec       q    Type
REMARK                         _______ _______ _______ _____ _____    ______ ____
ROOT
ATOM      1  C   UNL     1      33.817 -15.702 -24.881  0.00  0.00    -0.044 C 
ATOM      2  C   UNL     1      33.541 -14.858 -23.805  0.00  0.00    -0.006 C 
ATOM      3  C   UNL     1      34.500 -16.900 -24.671  0.00  0.00    -0.006 C 
ATOM      4  C   UNL     1      34.630 -16.411 -22.308  0.00  0.00    +0.080 C 
ATOM      5  C   UNL     1      33.947 -15.213 -22.519  0.00  0.00    +0.006 C 
ATOM      6  C   UNL     1      34.906 -17.254 -23.385  0.00  0.00    +0.006 C 
ENDROOT
BRANCH   4   9
ATOM      7  O   UNL     1      34.953 -15.917 -20.006  0.00  0.00    -0.241 OA
ATOM      8  O   UNL     1      35.527 -17.968 -20.754  0.00  0.00    -0.241 OA
ATOM      9  C   UNL     1      35.059 -16.785 -20.951  0.00  0.00    +0.388 C 
ENDBRANCH   4   9
BRANCH   1  10
ATOM     10  C   UNL     1      33.383 -15.321 -26.257  0.00  0.00    -0.059 C 
BRANCH  10  11
ATOM     11  N   UNL     1      32.292 -14.307 -26.273  0.00  0.00    +0.383 N 
ATOM     12  H   UNL     1      32.697 -13.373 -26.320  0.00  0.00    -0.089 HD
ATOM     13  H   UNL     1      31.733 -14.395 -25.424  0.00  0.00    -0.089 HD
ATOM     14  H   UNL     1      31.698 -14.462 -27.088  0.00  0.00    -0.089 HD
ENDBRANCH  10  11
ENDBRANCH   1  10
TORSDOF 3
ENDMDL
MODEL 9
REMARK VINA RESULT:      -6.0      2.895      3.989
REMARK  Name = 42552846
REMARK  3 active torsions:
REMARK  status: ('A' for Active; 'I' for Inactive)
REMARK    1  A    between atoms: C_1  and  C_10
REMARK    2  A    between atoms: C_4  and  C_9
REMARK    3  A    between atoms: C_10  and  N_11
REMARK                            x       y       z     vdW  Elec       q    Type
REMARK                         _______ _______ _______ _____ _____    ______ ____
ROOT
ATOM      1  C   UNL     1      34.670 -17.204 -24.117  0.00  0.00    -0.044 C 
ATOM      2  C   UNL     1      34.934 -16.600 -22.887  0.00  0.00    -0.006 C 
ATOM      3  C   UNL     1      34.690 -18.594 -24.230  0.00  0.00    -0.006 C 
ATOM      4  C   UNL     1      35.238 -18.777 -21.884  0.00  0.00    +0.080 C 
ATOM      5  C   UNL     1      35.218 -17.387 -21.771  0.00  0.00    +0.006 C 
ATOM      6  C   UNL     1      34.974 -19.380 -23.114  0.00  0.00    +0.006 C 
ENDROOT
BRANCH   4   9
ATOM      7  O   UNL     1      34.623 -20.392 -20.251  0.00  0.00    -0.241 OA
ATOM      8  O   UNL     1      36.704 -19.520 -20.168  0.00  0.00    -0.241 OA
ATOM      9  C   UNL     1      35.538 -19.607 -20.706  0.00  0.00    +0.388 C 
ENDBRANCH   4   9
BRANCH   1  10
ATOM     10  C   UNL     1      34.368 -16.362 -25.311  0.00  0.00    -0.059 C 
BRANCH  10  11
ATOM     11  N   UNL     1      33.537 -15.167 -24.996  0.00  0.00    +0.383 N 
ATOM     12  H   UNL     1      33.239 -14.723 -25.864  0.00  0.00    -0.089 HD
ATOM     13  H   UNL     1      34.085 -14.506 -24.445  0.00  0.00    -0.089 HD
ATOM     14  H   UNL     1      32.716 -15.456 -24.463  0.00  0.00    -0.089 HD
ENDBRANCH  10  11
ENDBRANCH   1  10
TORSDOF 3
ENDMDL
