MODEL 1
REMARK VINA RESULT:      -7.6      0.000      0.000
REMARK  Name = 56494
REMARK  7 active torsions:
REMARK  status: ('A' for Active; 'I' for Inactive)
REMARK    1  A    between atoms: C_2  and  C_12
REMARK    2  A    between atoms: C_5  and  O_8
REMARK    3  A    between atoms: C_7  and  O_10
REMARK    4  A    between atoms: C_12  and  CA_13
REMARK    5  A    between atoms: CA_13  and  N_14
REMARK    6  A    between atoms: CA_13  and  C_19
REMARK    7  A    between atoms: C_19  and  O_20
REMARK                            x       y       z     vdW  Elec       q    Type
REMARK                         _______ _______ _______ _____ _____    ______ ____
ROOT
ATOM      1  F   UNL     1      37.546 -19.319 -20.944  0.00  0.00    -0.204 F 
ATOM      2  C   UNL     1      35.176 -19.289 -21.083  0.00  0.00    +0.007 C 
ATOM      3  C   UNL     1      33.945 -19.831 -20.756  0.00  0.00    +0.038 C 
ATOM      4  C   UNL     1      36.357 -19.848 -20.622  0.00  0.00    +0.139 C 
ATOM      5  C   UNL     1      33.892 -20.963 -19.944  0.00  0.00    +0.167 C 
ATOM      6  C   UNL     1      36.304 -20.981 -19.810  0.00  0.00    +0.069 C 
ATOM      7  C   UNL     1      35.072 -21.539 -19.471  0.00  0.00    +0.170 C 
ENDROOT
BRANCH   5   8
ATOM      8  O   UNL     1      32.682 -21.500 -19.620  0.00  0.00    -0.503 OA
ATOM      9  H   UNL     1      32.582 -22.430 -19.566  0.00  0.00    +0.292 HD
ENDBRANCH   5   8
BRANCH   7  10
ATOM     10  O   UNL     1      35.033 -22.646 -18.678  0.00  0.00    -0.503 OA
ATOM     11  H   UNL     1      35.056 -23.500 -19.065  0.00  0.00    +0.292 HD
ENDBRANCH   7  10
BRANCH   2  12
ATOM     12  C   UNL     1      35.232 -18.061 -21.964  0.00  0.00    +0.018 C 
BRANCH  12  13
ATOM     13  CA  UNL     1      34.589 -18.286 -23.341  0.00  0.00    +0.040 C 
BRANCH  13  14
ATOM     14  N   UNL     1      35.102 -19.522 -23.929  0.00  0.00    +0.389 N 
ATOM     15  H1  UNL     1      34.610 -20.320 -23.527  0.00  0.00    -0.088 HD
ATOM     16  H2  UNL     1      36.100 -19.603 -23.733  0.00  0.00    -0.088 HD
ATOM     17  H3  UNL     1      34.954 -19.505 -24.939  0.00  0.00    -0.088 HD
ENDBRANCH  13  14
BRANCH  13  19
ATOM     18  OXT UNL     1      34.616 -17.162 -25.501  0.00  0.00    -0.253 OA
ATOM     19  C   UNL     1      34.923 -17.170 -24.316  0.00  0.00    +0.293 C 
BRANCH  19  20
ATOM     20  O   UNL     1      35.583 -16.144 -23.719  0.00  0.00    -0.482 OA
ATOM     21  H   UNL     1      35.660 -15.319 -24.157  0.00  0.00    +0.295 HD
ENDBRANCH  19  20
ENDBRANCH  13  19
ENDBRANCH  12  13
ENDBRANCH   2  12
TORSDOF 7
ENDMDL
MODEL 2
REMARK VINA RESULT:      -7.4      1.522      1.799
REMARK  Name = 56494
REMARK  7 active torsions:
REMARK  status: ('A' for Active; 'I' for Inactive)
REMARK    1  A    between atoms: C_2  and  C_12
REMARK    2  A    between atoms: C_5  and  O_8
REMARK    3  A    between atoms: C_7  and  O_10
REMARK    4  A    between atoms: C_12  and  CA_13
REMARK    5  A    between atoms: CA_13  and  N_14
REMARK    6  A    between atoms: CA_13  and  C_19
REMARK    7  A    between atoms: C_19  and  O_20
REMARK                            x       y       z     vdW  Elec       q    Type
REMARK                         _______ _______ _______ _____ _____    ______ ____
ROOT
ATOM      1  F   UNL     1      37.100 -19.033 -21.275  0.00  0.00    -0.204 F 
ATOM      2  C   UNL     1      34.753 -19.382 -21.213  0.00  0.00    +0.007 C 
ATOM      3  C   UNL     1      33.650 -20.069 -20.733  0.00  0.00    +0.038 C 
ATOM      4  C   UNL     1      36.038 -19.701 -20.805  0.00  0.00    +0.139 C 
ATOM      5  C   UNL     1      33.838 -21.104 -19.818  0.00  0.00    +0.167 C 
ATOM      6  C   UNL     1      36.224 -20.736 -19.889  0.00  0.00    +0.069 C 
ATOM      7  C   UNL     1      35.125 -21.438 -19.395  0.00  0.00    +0.170 C 
ENDROOT
BRANCH   5   8
ATOM      8  O   UNL     1      32.756 -21.783 -19.343  0.00  0.00    -0.503 OA
ATOM      9  H   UNL     1      32.624 -22.679 -19.582  0.00  0.00    +0.292 HD
ENDBRANCH   5   8
BRANCH   7  10
ATOM     10  O   UNL     1      35.321 -22.447 -18.501  0.00  0.00    -0.503 OA
ATOM     11  H   UNL     1      36.179 -22.614 -18.163  0.00  0.00    +0.292 HD
ENDBRANCH   7  10
BRANCH   2  12
ATOM     12  C   UNL     1      34.548 -18.261 -22.207  0.00  0.00    +0.018 C 
BRANCH  12  13
ATOM     13  CA  UNL     1      34.618 -16.869 -21.560  0.00  0.00    +0.040 C 
BRANCH  13  14
ATOM     14  N   UNL     1      33.320 -16.529 -20.980  0.00  0.00    +0.389 N 
ATOM     15  H1  UNL     1      33.341 -15.568 -20.639  0.00  0.00    -0.088 HD
ATOM     16  H2  UNL     1      33.118 -17.161 -20.205  0.00  0.00    -0.088 HD
ATOM     17  H3  UNL     1      32.595 -16.621 -21.692  0.00  0.00    -0.088 HD
ENDBRANCH  13  14
BRANCH  13  19
ATOM     18  OXT UNL     1      34.581 -14.616 -22.483  0.00  0.00    -0.253 OA
ATOM     19  C   UNL     1      34.939 -15.784 -22.572  0.00  0.00    +0.293 C 
BRANCH  19  20
ATOM     20  O   UNL     1      35.710 -16.241 -23.592  0.00  0.00    -0.482 OA
ATOM     21  H   UNL     1      36.579 -15.911 -23.707  0.00  0.00    +0.295 HD
ENDBRANCH  19  20
ENDBRANCH  13  19
ENDBRANCH  12  13
ENDBRANCH   2  12
TORSDOF 7
ENDMDL
MODEL 3
REMARK VINA RESULT:      -7.2      2.110      2.732
REMARK  Name = 56494
REMARK  7 active torsions:
REMARK  status: ('A' for Active; 'I' for Inactive)
REMARK    1  A    between atoms: C_2  and  C_12
REMARK    2  A    between atoms: C_5  and  O_8
REMARK    3  A    between atoms: C_7  and  O_10
REMARK    4  A    between atoms: C_12  and  CA_13
REMARK    5  A    between atoms: CA_13  and  N_14
REMARK    6  A    between atoms: CA_13  and  C_19
REMARK    7  A    between atoms: C_19  and  O_20
REMARK                            x       y       z     vdW  Elec       q    Type
REMARK                         _______ _______ _______ _____ _____    ______ ____
ROOT
ATOM      1  F   UNL     1      32.097 -19.997 -21.011  0.00  0.00    -0.204 F 
ATOM      2  C   UNL     1      34.467 -19.873 -21.056  0.00  0.00    +0.007 C 
ATOM      3  C   UNL     1      35.702 -20.283 -20.584  0.00  0.00    +0.038 C 
ATOM      4  C   UNL     1      33.289 -20.399 -20.550  0.00  0.00    +0.139 C 
ATOM      5  C   UNL     1      35.763 -21.246 -19.578  0.00  0.00    +0.167 C 
ATOM      6  C   UNL     1      33.350 -21.364 -19.544  0.00  0.00    +0.069 C 
ATOM      7  C   UNL     1      34.586 -21.787 -19.058  0.00  0.00    +0.170 C 
ENDROOT
BRANCH   5   8
ATOM      8  O   UNL     1      36.976 -21.652 -19.110  0.00  0.00    -0.503 OA
ATOM      9  H   UNL     1      37.517 -22.210 -19.634  0.00  0.00    +0.292 HD
ENDBRANCH   5   8
BRANCH   7  10
ATOM     10  O   UNL     1      34.632 -22.729 -18.075  0.00  0.00    -0.503 OA
ATOM     11  H   UNL     1      34.953 -23.590 -18.265  0.00  0.00    +0.292 HD
ENDBRANCH   7  10
BRANCH   2  12
ATOM     12  C   UNL     1      34.403 -18.827 -22.146  0.00  0.00    +0.018 C 
BRANCH  12  13
ATOM     13  CA  UNL     1      35.347 -17.641 -21.891  0.00  0.00    +0.040 C 
BRANCH  13  14
ATOM     14  N   UNL     1      34.943 -16.943 -20.672  0.00  0.00    +0.389 N 
ATOM     15  H1  UNL     1      33.926 -16.953 -20.595  0.00  0.00    -0.088 HD
ATOM     16  H2  UNL     1      35.271 -15.978 -20.708  0.00  0.00    -0.088 HD
ATOM     17  H3  UNL     1      35.350 -17.411 -19.861  0.00  0.00    -0.088 HD
ENDBRANCH  13  14
BRANCH  13  19
ATOM     18  OXT UNL     1      35.152 -15.414 -22.856  0.00  0.00    -0.253 OA
ATOM     19  C   UNL     1      35.297 -16.619 -23.013  0.00  0.00    +0.293 C 
BRANCH  19  20
ATOM     20  O   UNL     1      35.469 -17.187 -24.235  0.00  0.00    -0.482 OA
ATOM     21  H   UNL     1      36.113 -16.846 -24.824  0.00  0.00    +0.295 HD
ENDBRANCH  19  20
ENDBRANCH  13  19
ENDBRANCH  12  13
ENDBRANCH   2  12
TORSDOF 7
ENDMDL
MODEL 4
REMARK VINA RESULT:      -7.2      2.231      5.422
REMARK  Name = 56494
REMARK  7 active torsions:
REMARK  status: ('A' for Active; 'I' for Inactive)
REMARK    1  A    between atoms: C_2  and  C_12
REMARK    2  A    between atoms: C_5  and  O_8
REMARK    3  A    between atoms: C_7  and  O_10
REMARK    4  A    between atoms: C_12  and  CA_13
REMARK    5  A    between atoms: CA_13  and  N_14
REMARK    6  A    between atoms: CA_13  and  C_19
REMARK    7  A    between atoms: C_19  and  O_20
REMARK                            x       y       z     vdW  Elec       q    Type
REMARK                         _______ _______ _______ _____ _____    ______ ____
ROOT
ATOM      1  F   UNL     1      34.944 -18.966 -24.460  0.00  0.00    -0.204 F 
ATOM      2  C   UNL     1      34.952 -18.481 -22.136  0.00  0.00    +0.007 C 
ATOM      3  C   UNL     1      34.933 -17.565 -21.098  0.00  0.00    +0.038 C 
ATOM      4  C   UNL     1      34.924 -18.074 -23.460  0.00  0.00    +0.139 C 
ATOM      5  C   UNL     1      34.884 -16.203 -21.391  0.00  0.00    +0.167 C 
ATOM      6  C   UNL     1      34.875 -16.711 -23.753  0.00  0.00    +0.069 C 
ATOM      7  C   UNL     1      34.855 -15.776 -22.719  0.00  0.00    +0.170 C 
ENDROOT
BRANCH   5   8
ATOM      8  O   UNL     1      34.866 -15.298 -20.373  0.00  0.00    -0.503 OA
ATOM      9  H   UNL     1      34.630 -14.407 -20.542  0.00  0.00    +0.292 HD
ENDBRANCH   5   8
BRANCH   7  10
ATOM     10  O   UNL     1      34.808 -14.447 -23.019  0.00  0.00    -0.503 OA
ATOM     11  H   UNL     1      34.676 -13.818 -22.337  0.00  0.00    +0.292 HD
ENDBRANCH   7  10
BRANCH   2  12
ATOM     12  C   UNL     1      35.006 -19.958 -21.816  0.00  0.00    +0.018 C 
BRANCH  12  13
ATOM     13  CA  UNL     1      34.703 -20.260 -20.340  0.00  0.00    +0.040 C 
BRANCH  13  14
ATOM     14  N   UNL     1      35.660 -21.240 -19.831  0.00  0.00    +0.389 N 
ATOM     15  H1  UNL     1      35.263 -21.714 -19.019  0.00  0.00    -0.088 HD
ATOM     16  H2  UNL     1      36.520 -20.765 -19.559  0.00  0.00    -0.088 HD
ATOM     17  H3  UNL     1      35.865 -21.925 -20.559  0.00  0.00    -0.088 HD
ENDBRANCH  13  14
BRANCH  13  19
ATOM     18  OXT UNL     1      33.103 -21.987 -19.715  0.00  0.00    -0.253 OA
ATOM     19  C   UNL     1      33.322 -20.864 -20.152  0.00  0.00    +0.293 C 
BRANCH  19  20
ATOM     20  O   UNL     1      32.330 -20.002 -20.495  0.00  0.00    -0.482 OA
ATOM     21  H   UNL     1      31.452 -20.159 -20.209  0.00  0.00    +0.295 HD
ENDBRANCH  19  20
ENDBRANCH  13  19
ENDBRANCH  12  13
ENDBRANCH   2  12
TORSDOF 7
ENDMDL
MODEL 5
REMARK VINA RESULT:      -7.1      8.314      9.311
REMARK  Name = 56494
REMARK  7 active torsions:
REMARK  status: ('A' for Active; 'I' for Inactive)
REMARK    1  A    between atoms: C_2  and  C_12
REMARK    2  A    between atoms: C_5  and  O_8
REMARK    3  A    between atoms: C_7  and  O_10
REMARK    4  A    between atoms: C_12  and  CA_13
REMARK    5  A    between atoms: CA_13  and  N_14
REMARK    6  A    between atoms: CA_13  and  C_19
REMARK    7  A    between atoms: C_19  and  O_20
REMARK                            x       y       z     vdW  Elec       q    Type
REMARK                         _______ _______ _______ _____ _____    ______ ____
ROOT
ATOM      1  F   UNL     1      32.003 -22.517 -17.205  0.00  0.00    -0.204 F 
ATOM      2  C   UNL     1      30.314 -23.050 -15.624  0.00  0.00    +0.007 C 
ATOM      3  C   UNL     1      29.922 -23.637 -14.433  0.00  0.00    +0.038 C 
ATOM      4  C   UNL     1      31.632 -23.087 -16.050  0.00  0.00    +0.139 C 
ATOM      5  C   UNL     1      30.876 -24.280 -13.644  0.00  0.00    +0.167 C 
ATOM      6  C   UNL     1      32.585 -23.730 -15.260  0.00  0.00    +0.069 C 
ATOM      7  C   UNL     1      32.208 -24.326 -14.058  0.00  0.00    +0.170 C 
ENDROOT
BRANCH   5   8
ATOM      8  O   UNL     1      30.495 -24.860 -12.472  0.00  0.00    -0.503 OA
ATOM      9  H   UNL     1      29.585 -24.940 -12.262  0.00  0.00    +0.292 HD
ENDBRANCH   5   8
BRANCH   7  10
ATOM     10  O   UNL     1      33.148 -24.951 -13.296  0.00  0.00    -0.503 OA
ATOM     11  H   UNL     1      32.900 -25.367 -12.493  0.00  0.00    +0.292 HD
ENDBRANCH   7  10
BRANCH   2  12
ATOM     12  C   UNL     1      29.278 -22.354 -16.479  0.00  0.00    +0.018 C 
BRANCH  12  13
ATOM     13  CA  UNL     1      27.879 -22.975 -16.345  0.00  0.00    +0.040 C 
BRANCH  13  14
ATOM     14  N   UNL     1      27.740 -24.085 -17.286  0.00  0.00    +0.389 N 
ATOM     15  H1  UNL     1      27.568 -24.949 -16.771  0.00  0.00    -0.088 HD
ATOM     16  H2  UNL     1      28.597 -24.179 -17.830  0.00  0.00    -0.088 HD
ATOM     17  H3  UNL     1      26.957 -23.902 -17.914  0.00  0.00    -0.088 HD
ENDBRANCH  13  14
BRANCH  13  19
ATOM     18  OXT UNL     1      26.822 -21.172 -17.595  0.00  0.00    -0.253 OA
ATOM     19  C   UNL     1      26.779 -21.983 -16.679  0.00  0.00    +0.293 C 
BRANCH  19  20
ATOM     20  O   UNL     1      25.702 -22.112 -15.861  0.00  0.00    -0.482 OA
ATOM     21  H   UNL     1      24.913 -21.644 -16.047  0.00  0.00    +0.295 HD
ENDBRANCH  19  20
ENDBRANCH  13  19
ENDBRANCH  12  13
ENDBRANCH   2  12
TORSDOF 7
ENDMDL
MODEL 6
REMARK VINA RESULT:      -7.0      1.881      5.601
REMARK  Name = 56494
REMARK  7 active torsions:
REMARK  status: ('A' for Active; 'I' for Inactive)
REMARK    1  A    between atoms: C_2  and  C_12
REMARK    2  A    between atoms: C_5  and  O_8
REMARK    3  A    between atoms: C_7  and  O_10
REMARK    4  A    between atoms: C_12  and  CA_13
REMARK    5  A    between atoms: CA_13  and  N_14
REMARK    6  A    between atoms: CA_13  and  C_19
REMARK    7  A    between atoms: C_19  and  O_20
REMARK                            x       y       z     vdW  Elec       q    Type
REMARK                         _______ _______ _______ _____ _____    ______ ____
ROOT
ATOM      1  F   UNL     1      35.087 -16.393 -20.324  0.00  0.00    -0.204 F 
ATOM      2  C   UNL     1      35.407 -17.980 -22.059  0.00  0.00    +0.007 C 
ATOM      3  C   UNL     1      35.301 -18.345 -23.390  0.00  0.00    +0.038 C 
ATOM      4  C   UNL     1      34.983 -16.738 -21.614  0.00  0.00    +0.139 C 
ATOM      5  C   UNL     1      34.756 -17.443 -24.304  0.00  0.00    +0.167 C 
ATOM      6  C   UNL     1      34.438 -15.836 -22.529  0.00  0.00    +0.069 C 
ATOM      7  C   UNL     1      34.325 -16.188 -23.873  0.00  0.00    +0.170 C 
ENDROOT
BRANCH   5   8
ATOM      8  O   UNL     1      34.650 -17.799 -25.615  0.00  0.00    -0.503 OA
ATOM      9  H   UNL     1      35.106 -18.553 -25.934  0.00  0.00    +0.292 HD
ENDBRANCH   5   8
BRANCH   7  10
ATOM     10  O   UNL     1      33.790 -15.299 -24.755  0.00  0.00    -0.503 OA
ATOM     11  H   UNL     1      34.321 -14.611 -25.107  0.00  0.00    +0.292 HD
ENDBRANCH   7  10
BRANCH   2  12
ATOM     12  C   UNL     1      35.997 -18.960 -21.070  0.00  0.00    +0.018 C 
BRANCH  12  13
ATOM     13  CA  UNL     1      35.159 -20.240 -20.926  0.00  0.00    +0.040 C 
BRANCH  13  14
ATOM     14  N   UNL     1      33.787 -19.893 -20.564  0.00  0.00    +0.389 N 
ATOM     15  H1  UNL     1      33.504 -20.431 -19.745  0.00  0.00    -0.088 HD
ATOM     16  H2  UNL     1      33.165 -20.108 -21.343  0.00  0.00    -0.088 HD
ATOM     17  H3  UNL     1      33.733 -18.896 -20.351  0.00  0.00    -0.088 HD
ENDBRANCH  13  14
BRANCH  13  19
ATOM     18  OXT UNL     1      35.325 -22.301 -19.639  0.00  0.00    -0.253 OA
ATOM     19  C   UNL     1      35.683 -21.145 -19.824  0.00  0.00    +0.293 C 
BRANCH  19  20
ATOM     20  O   UNL     1      36.636 -20.539 -19.069  0.00  0.00    -0.482 OA
ATOM     21  H   UNL     1      36.657 -19.605 -19.002  0.00  0.00    +0.295 HD
ENDBRANCH  19  20
ENDBRANCH  13  19
ENDBRANCH  12  13
ENDBRANCH   2  12
TORSDOF 7
ENDMDL
MODEL 7
REMARK VINA RESULT:      -7.0      7.867      8.917
REMARK  Name = 56494
REMARK  7 active torsions:
REMARK  status: ('A' for Active; 'I' for Inactive)
REMARK    1  A    between atoms: C_2  and  C_12
REMARK    2  A    between atoms: C_5  and  O_8
REMARK    3  A    between atoms: C_7  and  O_10
REMARK    4  A    between atoms: C_12  and  CA_13
REMARK    5  A    between atoms: CA_13  and  N_14
REMARK    6  A    between atoms: CA_13  and  C_19
REMARK    7  A    between atoms: C_19  and  O_20
REMARK                            x       y       z     vdW  Elec       q    Type
REMARK                         _______ _______ _______ _____ _____    ______ ____
ROOT
ATOM      1  F   UNL     1      31.583 -22.531 -17.256  0.00  0.00    -0.204 F 
ATOM      2  C   UNL     1      31.387 -23.199 -14.986  0.00  0.00    +0.007 C 
ATOM      3  C   UNL     1      31.940 -23.748 -13.842  0.00  0.00    +0.038 C 
ATOM      4  C   UNL     1      32.125 -23.062 -16.151  0.00  0.00    +0.139 C 
ATOM      5  C   UNL     1      33.268 -24.171 -13.861  0.00  0.00    +0.167 C 
ATOM      6  C   UNL     1      33.454 -23.485 -16.170  0.00  0.00    +0.069 C 
ATOM      7  C   UNL     1      34.026 -24.039 -15.025  0.00  0.00    +0.170 C 
ENDROOT
BRANCH   5   8
ATOM      8  O   UNL     1      33.816 -24.712 -12.737  0.00  0.00    -0.503 OA
ATOM      9  H   UNL     1      34.732 -24.907 -12.710  0.00  0.00    +0.292 HD
ENDBRANCH   5   8
BRANCH   7  10
ATOM     10  O   UNL     1      35.325 -24.449 -15.057  0.00  0.00    -0.503 OA
ATOM     11  H   UNL     1      35.956 -24.051 -14.489  0.00  0.00    +0.292 HD
ENDBRANCH   7  10
BRANCH   2  12
ATOM     12  C   UNL     1      29.946 -22.743 -14.964  0.00  0.00    +0.018 C 
BRANCH  12  13
ATOM     13  CA  UNL     1      28.976 -23.798 -15.517  0.00  0.00    +0.040 C 
BRANCH  13  14
ATOM     14  N   UNL     1      29.705 -25.031 -15.810  0.00  0.00    +0.389 N 
ATOM     15  H1  UNL     1      29.241 -25.528 -16.571  0.00  0.00    -0.088 HD
ATOM     16  H2  UNL     1      29.721 -25.622 -14.979  0.00  0.00    -0.088 HD
ATOM     17  H3  UNL     1      30.661 -24.804 -16.085  0.00  0.00    -0.088 HD
ENDBRANCH  13  14
BRANCH  13  19
ATOM     18  OXT UNL     1      27.702 -24.087 -17.572  0.00  0.00    -0.253 OA
ATOM     19  C   UNL     1      28.332 -23.356 -16.819  0.00  0.00    +0.293 C 
BRANCH  19  20
ATOM     20  O   UNL     1      28.499 -22.028 -17.052  0.00  0.00    -0.482 OA
ATOM     21  H   UNL     1      29.054 -21.520 -16.494  0.00  0.00    +0.295 HD
ENDBRANCH  19  20
ENDBRANCH  13  19
ENDBRANCH  12  13
ENDBRANCH   2  12
TORSDOF 7
ENDMDL
MODEL 8
REMARK VINA RESULT:      -7.0      1.972      5.797
REMARK  Name = 56494
REMARK  7 active torsions:
REMARK  status: ('A' for Active; 'I' for Inactive)
REMARK    1  A    between atoms: C_2  and  C_12
REMARK    2  A    between atoms: C_5  and  O_8
REMARK    3  A    between atoms: C_7  and  O_10
REMARK    4  A    between atoms: C_12  and  CA_13
REMARK    5  A    between atoms: CA_13  and  N_14
REMARK    6  A    between atoms: CA_13  and  C_19
REMARK    7  A    between atoms: C_19  and  O_20
REMARK                            x       y       z     vdW  Elec       q    Type
REMARK                         _______ _______ _______ _____ _____    ______ ____
ROOT
ATOM      1  F   UNL     1      35.143 -19.953 -24.222  0.00  0.00    -0.204 F 
ATOM      2  C   UNL     1      35.218 -17.985 -22.897  0.00  0.00    +0.007 C 
ATOM      3  C   UNL     1      35.033 -16.620 -22.758  0.00  0.00    +0.038 C 
ATOM      4  C   UNL     1      34.960 -18.632 -24.094  0.00  0.00    +0.139 C 
ATOM      5  C   UNL     1      34.574 -15.880 -23.847  0.00  0.00    +0.167 C 
ATOM      6  C   UNL     1      34.501 -17.890 -25.184  0.00  0.00    +0.069 C 
ATOM      7  C   UNL     1      34.308 -16.515 -25.061  0.00  0.00    +0.170 C 
ENDROOT
BRANCH   5   8
ATOM      8  O   UNL     1      34.390 -14.537 -23.715  0.00  0.00    -0.503 OA
ATOM      9  H   UNL     1      35.012 -13.940 -24.084  0.00  0.00    +0.292 HD
ENDBRANCH   5   8
BRANCH   7  10
ATOM     10  O   UNL     1      33.861 -15.803 -26.132  0.00  0.00    -0.503 OA
ATOM     11  H   UNL     1      34.434 -15.201 -26.567  0.00  0.00    +0.292 HD
ENDBRANCH   7  10
BRANCH   2  12
ATOM     12  C   UNL     1      35.716 -18.786 -21.715  0.00  0.00    +0.018 C 
BRANCH  12  13
ATOM     13  CA  UNL     1      34.730 -19.879 -21.276  0.00  0.00    +0.040 C 
BRANCH  13  14
ATOM     14  N   UNL     1      33.470 -19.268 -20.858  0.00  0.00    +0.389 N 
ATOM     15  H1  UNL     1      32.863 -19.148 -21.670  0.00  0.00    -0.088 HD
ATOM     16  H2  UNL     1      33.657 -18.358 -20.436  0.00  0.00    -0.088 HD
ATOM     17  H3  UNL     1      33.009 -19.871 -20.176  0.00  0.00    -0.088 HD
ENDBRANCH  13  14
BRANCH  13  19
ATOM     18  OXT UNL     1      34.662 -21.615 -19.569  0.00  0.00    -0.253 OA
ATOM     19  C   UNL     1      35.245 -20.670 -20.086  0.00  0.00    +0.293 C 
BRANCH  19  20
ATOM     20  O   UNL     1      36.461 -20.235 -19.665  0.00  0.00    -0.482 OA
ATOM     21  H   UNL     1      36.959 -19.648 -20.199  0.00  0.00    +0.295 HD
ENDBRANCH  19  20
ENDBRANCH  13  19
ENDBRANCH  12  13
ENDBRANCH   2  12
TORSDOF 7
ENDMDL
MODEL 9
REMARK VINA RESULT:      -6.9      7.757      9.479
REMARK  Name = 56494
REMARK  7 active torsions:
REMARK  status: ('A' for Active; 'I' for Inactive)
REMARK    1  A    between atoms: C_2  and  C_12
REMARK    2  A    between atoms: C_5  and  O_8
REMARK    3  A    between atoms: C_7  and  O_10
REMARK    4  A    between atoms: C_12  and  CA_13
REMARK    5  A    between atoms: CA_13  and  N_14
REMARK    6  A    between atoms: CA_13  and  C_19
REMARK    7  A    between atoms: C_19  and  O_20
REMARK                            x       y       z     vdW  Elec       q    Type
REMARK                         _______ _______ _______ _____ _____    ______ ____
ROOT
ATOM      1  F   UNL     1      37.034 -22.799 -16.525  0.00  0.00    -0.204 F 
ATOM      2  C   UNL     1      36.395 -23.971 -14.563  0.00  0.00    +0.007 C 
ATOM      3  C   UNL     1      35.411 -24.477 -13.730  0.00  0.00    +0.038 C 
ATOM      4  C   UNL     1      36.077 -23.288 -15.725  0.00  0.00    +0.139 C 
ATOM      5  C   UNL     1      34.071 -24.297 -14.070  0.00  0.00    +0.167 C 
ATOM      6  C   UNL     1      34.735 -23.108 -16.065  0.00  0.00    +0.069 C 
ATOM      7  C   UNL     1      33.733 -23.612 -15.238  0.00  0.00    +0.170 C 
ENDROOT
BRANCH   5   8
ATOM      8  O   UNL     1      33.100 -24.793 -13.253  0.00  0.00    -0.503 OA
ATOM      9  H   UNL     1      33.277 -25.538 -12.713  0.00  0.00    +0.292 HD
ENDBRANCH   5   8
BRANCH   7  10
ATOM     10  O   UNL     1      32.427 -23.429 -15.580  0.00  0.00    -0.503 OA
ATOM     11  H   UNL     1      32.062 -23.899 -16.305  0.00  0.00    +0.292 HD
ENDBRANCH   7  10
BRANCH   2  12
ATOM     12  C   UNL     1      37.847 -24.167 -14.192  0.00  0.00    +0.018 C 
BRANCH  12  13
ATOM     13  CA  UNL     1      38.460 -25.426 -14.823  0.00  0.00    +0.040 C 
BRANCH  13  14
ATOM     14  N   UNL     1      38.207 -26.581 -13.964  0.00  0.00    +0.389 N 
ATOM     15  H1  UNL     1      37.214 -26.817 -13.994  0.00  0.00    -0.088 HD
ATOM     16  H2  UNL     1      38.474 -26.358 -13.006  0.00  0.00    -0.088 HD
ATOM     17  H3  UNL     1      38.755 -27.377 -14.294  0.00  0.00    -0.088 HD
ENDBRANCH  13  14
BRANCH  13  19
ATOM     18  OXT UNL     1      40.713 -24.783 -14.158  0.00  0.00    -0.253 OA
ATOM     19  C   UNL     1      39.968 -25.317 -14.970  0.00  0.00    +0.293 C 
BRANCH  19  20
ATOM     20  O   UNL     1      40.421 -25.916 -16.102  0.00  0.00    -0.482 OA
ATOM     21  H   UNL     1      41.036 -26.620 -16.045  0.00  0.00    +0.295 HD
ENDBRANCH  19  20
ENDBRANCH  13  19
ENDBRANCH  12  13
ENDBRANCH   2  12
TORSDOF 7
ENDMDL
