MODEL 1
REMARK VINA RESULT:      -3.8      0.000      0.000
REMARK  Name = 7902
REMARK  3 active torsions:
REMARK  status: ('A' for Active; 'I' for Inactive)
REMARK    1  A    between atoms: N_1  and  C_5
REMARK    2  A    between atoms: C_5  and  C_6
REMARK    3  A    between atoms: C_6  and  O_7
REMARK                            x       y       z     vdW  Elec       q    Type
REMARK                         _______ _______ _______ _____ _____    ______ ____
ROOT
ATOM      1  N   UNL     1      37.927 -25.539 -15.227  0.00  0.00    +0.386 N 
ATOM      2  C   UNL     1      37.297 -24.230 -15.056  0.00  0.00    -0.101 C 
ATOM      3  C   UNL     1      36.919 -26.598 -15.198  0.00  0.00    -0.101 C 
ATOM      4  H   UNL     1      38.388 -25.558 -16.136  0.00  0.00    -0.080 HD
ENDROOT
BRANCH   1   5
ATOM      5  C   UNL     1      38.933 -25.763 -14.191  0.00  0.00    -0.045 C 
BRANCH   5   6
ATOM      6  C   UNL     1      40.329 -25.488 -14.730  0.00  0.00    +0.115 C 
BRANCH   6   7
ATOM      7  O   UNL     1      40.394 -25.937 -16.077  0.00  0.00    -0.384 OA
ATOM      8  H   UNL     1      39.922 -25.311 -16.649  0.00  0.00    +0.210 HD
ENDBRANCH   6   7
ENDBRANCH   5   6
ENDBRANCH   1   5
TORSDOF 3
ENDMDL
MODEL 2
REMARK VINA RESULT:      -3.6     11.241     11.889
REMARK  Name = 7902
REMARK  3 active torsions:
REMARK  status: ('A' for Active; 'I' for Inactive)
REMARK    1  A    between atoms: N_1  and  C_5
REMARK    2  A    between atoms: C_5  and  C_6
REMARK    3  A    between atoms: C_6  and  O_7
REMARK                            x       y       z     vdW  Elec       q    Type
REMARK                         _______ _______ _______ _____ _____    ______ ____
ROOT
ATOM      1  N   UNL     1      41.866 -14.654 -16.350  0.00  0.00    +0.386 N 
ATOM      2  C   UNL     1      41.290 -14.415 -17.674  0.00  0.00    -0.101 C 
ATOM      3  C   UNL     1      41.347 -15.900 -15.786  0.00  0.00    -0.101 C 
ATOM      4  H   UNL     1      42.877 -14.741 -16.449  0.00  0.00    -0.080 HD
ENDROOT
BRANCH   1   5
ATOM      5  C   UNL     1      41.581 -13.532 -15.458  0.00  0.00    -0.045 C 
BRANCH   5   6
ATOM      6  C   UNL     1      40.562 -13.930 -14.402  0.00  0.00    +0.115 C 
BRANCH   6   7
ATOM      7  O   UNL     1      40.939 -13.346 -13.162  0.00  0.00    -0.384 OA
ATOM      8  H   UNL     1      41.275 -12.449 -13.316  0.00  0.00    +0.210 HD
ENDBRANCH   6   7
ENDBRANCH   5   6
ENDBRANCH   1   5
TORSDOF 3
ENDMDL
MODEL 3
REMARK VINA RESULT:      -3.5      1.874      2.937
REMARK  Name = 7902
REMARK  3 active torsions:
REMARK  status: ('A' for Active; 'I' for Inactive)
REMARK    1  A    between atoms: N_1  and  C_5
REMARK    2  A    between atoms: C_5  and  C_6
REMARK    3  A    between atoms: C_6  and  O_7
REMARK                            x       y       z     vdW  Elec       q    Type
REMARK                         _______ _______ _______ _____ _____    ______ ____
ROOT
ATOM      1  N   UNL     1      37.601 -24.563 -15.388  0.00  0.00    +0.386 N 
ATOM      2  C   UNL     1      38.823 -24.924 -14.668  0.00  0.00    -0.101 C 
ATOM      3  C   UNL     1      37.272 -23.156 -15.161  0.00  0.00    -0.101 C 
ATOM      4  H   UNL     1      37.762 -24.700 -16.386  0.00  0.00    -0.080 HD
ENDROOT
BRANCH   1   5
ATOM      5  C   UNL     1      36.492 -25.421 -14.976  0.00  0.00    -0.045 C 
BRANCH   5   6
ATOM      6  C   UNL     1      36.890 -26.887 -15.051  0.00  0.00    +0.115 C 
BRANCH   6   7
ATOM      7  O   UNL     1      36.768 -27.324 -16.398  0.00  0.00    -0.384 OA
ATOM      8  H   UNL     1      36.622 -26.556 -16.974  0.00  0.00    +0.210 HD
ENDBRANCH   6   7
ENDBRANCH   5   6
ENDBRANCH   1   5
TORSDOF 3
ENDMDL
MODEL 4
REMARK VINA RESULT:      -3.5      1.766      2.708
REMARK  Name = 7902
REMARK  3 active torsions:
REMARK  status: ('A' for Active; 'I' for Inactive)
REMARK    1  A    between atoms: N_1  and  C_5
REMARK    2  A    between atoms: C_5  and  C_6
REMARK    3  A    between atoms: C_6  and  O_7
REMARK                            x       y       z     vdW  Elec       q    Type
REMARK                         _______ _______ _______ _____ _____    ______ ____
ROOT
ATOM      1  N   UNL     1      38.546 -25.286 -14.250  0.00  0.00    +0.386 N 
ATOM      2  C   UNL     1      37.771 -24.232 -14.904  0.00  0.00    -0.101 C 
ATOM      3  C   UNL     1      39.886 -25.369 -14.830  0.00  0.00    -0.101 C 
ATOM      4  H   UNL     1      38.636 -25.055 -13.262  0.00  0.00    -0.080 HD
ENDROOT
BRANCH   1   5
ATOM      5  C   UNL     1      37.859 -26.572 -14.365  0.00  0.00    -0.045 C 
BRANCH   5   6
ATOM      6  C   UNL     1      36.622 -26.444 -15.240  0.00  0.00    +0.115 C 
BRANCH   6   7
ATOM      7  O   UNL     1      36.764 -27.311 -16.358  0.00  0.00    -0.384 OA
ATOM      8  H   UNL     1      37.707 -27.453 -16.539  0.00  0.00    +0.210 HD
ENDBRANCH   6   7
ENDBRANCH   5   6
ENDBRANCH   1   5
TORSDOF 3
ENDMDL
MODEL 5
REMARK VINA RESULT:      -3.4     11.106     11.791
REMARK  Name = 7902
REMARK  3 active torsions:
REMARK  status: ('A' for Active; 'I' for Inactive)
REMARK    1  A    between atoms: N_1  and  C_5
REMARK    2  A    between atoms: C_5  and  C_6
REMARK    3  A    between atoms: C_6  and  O_7
REMARK                            x       y       z     vdW  Elec       q    Type
REMARK                         _______ _______ _______ _____ _____    ______ ____
ROOT
ATOM      1  N   UNL     1      41.728 -13.517 -16.616  0.00  0.00    +0.386 N 
ATOM      2  C   UNL     1      41.280 -14.247 -17.802  0.00  0.00    -0.101 C 
ATOM      3  C   UNL     1      43.187 -13.413 -16.603  0.00  0.00    -0.101 C 
ATOM      4  H   UNL     1      41.338 -12.576 -16.650  0.00  0.00    -0.080 HD
ENDROOT
BRANCH   1   5
ATOM      5  C   UNL     1      41.251 -14.173 -15.400  0.00  0.00    -0.045 C 
BRANCH   5   6
ATOM      6  C   UNL     1      41.236 -15.684 -15.575  0.00  0.00    +0.115 C 
BRANCH   6   7
ATOM      7  O   UNL     1      39.967 -16.177 -15.168  0.00  0.00    -0.384 OA
ATOM      8  H   UNL     1      39.978 -16.351 -14.213  0.00  0.00    +0.210 HD
ENDBRANCH   6   7
ENDBRANCH   5   6
ENDBRANCH   1   5
TORSDOF 3
ENDMDL
MODEL 6
REMARK VINA RESULT:      -3.4     10.625     10.991
REMARK  Name = 7902
REMARK  3 active torsions:
REMARK  status: ('A' for Active; 'I' for Inactive)
REMARK    1  A    between atoms: N_1  and  C_5
REMARK    2  A    between atoms: C_5  and  C_6
REMARK    3  A    between atoms: C_6  and  O_7
REMARK                            x       y       z     vdW  Elec       q    Type
REMARK                         _______ _______ _______ _____ _____    ______ ____
ROOT
ATOM      1  N   UNL     1      41.625 -15.655 -17.681  0.00  0.00    +0.386 N 
ATOM      2  C   UNL     1      42.629 -16.184 -18.605  0.00  0.00    -0.101 C 
ATOM      3  C   UNL     1      41.271 -14.283 -18.045  0.00  0.00    -0.101 C 
ATOM      4  H   UNL     1      40.788 -16.233 -17.749  0.00  0.00    -0.080 HD
ENDROOT
BRANCH   1   5
ATOM      5  C   UNL     1      42.116 -15.708 -16.306  0.00  0.00    -0.045 C 
BRANCH   5   6
ATOM      6  C   UNL     1      41.094 -15.118 -15.347  0.00  0.00    +0.115 C 
BRANCH   6   7
ATOM      7  O   UNL     1      40.035 -16.051 -15.177  0.00  0.00    -0.384 OA
ATOM      8  H   UNL     1      40.372 -16.950 -15.317  0.00  0.00    +0.210 HD
ENDBRANCH   6   7
ENDBRANCH   5   6
ENDBRANCH   1   5
TORSDOF 3
ENDMDL
MODEL 7
REMARK VINA RESULT:      -3.4      4.001      4.511
REMARK  Name = 7902
REMARK  3 active torsions:
REMARK  status: ('A' for Active; 'I' for Inactive)
REMARK    1  A    between atoms: N_1  and  C_5
REMARK    2  A    between atoms: C_5  and  C_6
REMARK    3  A    between atoms: C_6  and  O_7
REMARK                            x       y       z     vdW  Elec       q    Type
REMARK                         _______ _______ _______ _____ _____    ______ ____
ROOT
ATOM      1  N   UNL     1      36.389 -25.749 -13.237  0.00  0.00    +0.386 N 
ATOM      2  C   UNL     1      37.735 -25.760 -12.664  0.00  0.00    -0.101 C 
ATOM      3  C   UNL     1      36.456 -25.643 -14.694  0.00  0.00    -0.101 C 
ATOM      4  H   UNL     1      35.929 -26.627 -12.999  0.00  0.00    -0.080 HD
ENDROOT
BRANCH   1   5
ATOM      5  C   UNL     1      35.605 -24.648 -12.680  0.00  0.00    -0.045 C 
BRANCH   5   6
ATOM      6  C   UNL     1      36.062 -24.325 -11.266  0.00  0.00    +0.115 C 
BRANCH   6   7
ATOM      7  O   UNL     1      35.260 -25.057 -10.349  0.00  0.00    -0.384 OA
ATOM      8  H   UNL     1      35.087 -24.512  -9.565  0.00  0.00    +0.210 HD
ENDBRANCH   6   7
ENDBRANCH   5   6
ENDBRANCH   1   5
TORSDOF 3
ENDMDL
MODEL 8
REMARK VINA RESULT:      -3.4     12.890     13.841
REMARK  Name = 7902
REMARK  3 active torsions:
REMARK  status: ('A' for Active; 'I' for Inactive)
REMARK    1  A    between atoms: N_1  and  C_5
REMARK    2  A    between atoms: C_5  and  C_6
REMARK    3  A    between atoms: C_6  and  O_7
REMARK                            x       y       z     vdW  Elec       q    Type
REMARK                         _______ _______ _______ _____ _____    ______ ____
ROOT
ATOM      1  N   UNL     1      35.446 -17.304 -23.980  0.00  0.00    +0.386 N 
ATOM      2  C   UNL     1      35.235 -18.632 -23.404  0.00  0.00    -0.101 C 
ATOM      3  C   UNL     1      35.070 -16.266 -23.021  0.00  0.00    -0.101 C 
ATOM      4  H   UNL     1      36.438 -17.200 -24.195  0.00  0.00    -0.080 HD
ENDROOT
BRANCH   1   5
ATOM      5  C   UNL     1      34.685 -17.156 -25.219  0.00  0.00    -0.045 C 
BRANCH   5   6
ATOM      6  C   UNL     1      33.859 -15.880 -25.193  0.00  0.00    +0.115 C 
BRANCH   6   7
ATOM      7  O   UNL     1      33.512 -15.534 -26.527  0.00  0.00    -0.384 OA
ATOM      8  H   UNL     1      32.569 -15.304 -26.566  0.00  0.00    +0.210 HD
ENDBRANCH   6   7
ENDBRANCH   5   6
ENDBRANCH   1   5
TORSDOF 3
ENDMDL
MODEL 9
REMARK VINA RESULT:      -3.3     11.746     12.407
REMARK  Name = 7902
REMARK  3 active torsions:
REMARK  status: ('A' for Active; 'I' for Inactive)
REMARK    1  A    between atoms: N_1  and  C_5
REMARK    2  A    between atoms: C_5  and  C_6
REMARK    3  A    between atoms: C_6  and  O_7
REMARK                            x       y       z     vdW  Elec       q    Type
REMARK                         _______ _______ _______ _____ _____    ______ ____
ROOT
ATOM      1  N   UNL     1      35.497 -17.008 -23.686  0.00  0.00    +0.386 N 
ATOM      2  C   UNL     1      34.765 -16.963 -24.953  0.00  0.00    -0.101 C 
ATOM      3  C   UNL     1      35.556 -18.379 -23.181  0.00  0.00    -0.101 C 
ATOM      4  H   UNL     1      36.449 -16.683 -23.852  0.00  0.00    -0.080 HD
ENDROOT
BRANCH   1   5
ATOM      5  C   UNL     1      34.871 -16.127 -22.702  0.00  0.00    -0.045 C 
BRANCH   5   6
ATOM      6  C   UNL     1      34.895 -16.762 -21.320  0.00  0.00    +0.115 C 
BRANCH   6   7
ATOM      7  O   UNL     1      34.944 -15.729 -20.345  0.00  0.00    -0.384 OA
ATOM      8  H   UNL     1      34.851 -16.116 -19.460  0.00  0.00    +0.210 HD
ENDBRANCH   6   7
ENDBRANCH   5   6
ENDBRANCH   1   5
TORSDOF 3
ENDMDL
