MODEL 1
REMARK VINA RESULT:      -9.0      0.000      0.000
REMARK  Name = 5858
REMARK  2 active torsions:
REMARK  status: ('A' for Active; 'I' for Inactive)
REMARK    1  A    between atoms: C_6  and  O_20
REMARK    2  A    between atoms: C_6  and  C_22
REMARK                            x       y       z     vdW  Elec       q    Type
REMARK                         _______ _______ _______ _____ _____    ______ ____
ROOT
ATOM      1  O   UNL     1      33.320 -19.335 -20.978  0.00  0.00    -0.291 OA
ATOM      2  C   UNL     1      35.718 -24.426 -14.668  0.00  0.00    +0.023 C 
ATOM      3  C   UNL     1      36.572 -23.281 -15.257  0.00  0.00    +0.002 C 
ATOM      4  C   UNL     1      36.296 -23.038 -16.744  0.00  0.00    +0.001 C 
ATOM      5  C   UNL     1      34.795 -22.670 -16.930  0.00  0.00    +0.004 C 
ATOM      6  C   UNL     1      36.302 -24.505 -13.224  0.00  0.00    +0.088 C 
ATOM      7  C   UNL     1      34.240 -24.024 -14.802  0.00  0.00    +0.002 C 
ATOM      8  C   UNL     1      37.991 -23.639 -14.828  0.00  0.00    +0.002 C 
ATOM      9  C   UNL     1      33.859 -23.706 -16.260  0.00  0.00    +0.000 C 
ATOM     10  C   UNL     1      37.825 -24.298 -13.446  0.00  0.00    +0.027 C 
ATOM     11  C   UNL     1      34.455 -22.442 -18.434  0.00  0.00    +0.019 C 
ATOM     12  C   UNL     1      37.180 -21.920 -17.315  0.00  0.00    +0.004 C 
ATOM     13  C   UNL     1      35.928 -25.791 -15.386  0.00  0.00    +0.002 C 
ATOM     14  C   UNL     1      36.898 -21.715 -18.799  0.00  0.00    +0.022 C 
ATOM     15  C   UNL     1      35.436 -21.470 -19.079  0.00  0.00    -0.042 C 
ATOM     16  C   UNL     1      32.995 -21.968 -18.590  0.00  0.00    +0.012 C 
ATOM     17  C   UNL     1      32.702 -21.425 -19.978  0.00  0.00    +0.069 C 
ATOM     18  C   UNL     1      35.070 -20.465 -19.890  0.00  0.00    +0.029 C 
ATOM     19  C   UNL     1      33.659 -20.309 -20.310  0.00  0.00    +0.173 C 
ENDROOT
BRANCH   6  20
ATOM     20  O   UNL     1      36.089 -25.785 -12.635  0.00  0.00    -0.387 OA
ATOM     21  H   UNL     1      35.582 -26.343 -13.245  0.00  0.00    +0.210 HD
ENDBRANCH   6  20
BRANCH   6  22
ATOM     22  C   UNL     1      35.762 -23.469 -12.230  0.00  0.00    +0.027 C 
ATOM     23  C   UNL     1      36.856 -22.975 -11.307  0.00  0.00    +0.002 C 
ENDBRANCH   6  22
TORSDOF 2
ENDMDL
MODEL 2
REMARK VINA RESULT:      -8.7      2.955      6.556
REMARK  Name = 5858
REMARK  2 active torsions:
REMARK  status: ('A' for Active; 'I' for Inactive)
REMARK    1  A    between atoms: C_6  and  O_20
REMARK    2  A    between atoms: C_6  and  C_22
REMARK                            x       y       z     vdW  Elec       q    Type
REMARK                         _______ _______ _______ _____ _____    ______ ____
ROOT
ATOM      1  O   UNL     1      39.783 -26.050 -13.703  0.00  0.00    -0.291 OA
ATOM      2  C   UNL     1      31.788 -23.464 -14.631  0.00  0.00    +0.023 C 
ATOM      3  C   UNL     1      32.825 -23.565 -15.772  0.00  0.00    +0.002 C 
ATOM      4  C   UNL     1      34.260 -23.320 -15.294  0.00  0.00    +0.001 C 
ATOM      5  C   UNL     1      34.623 -24.378 -14.211  0.00  0.00    +0.004 C 
ATOM      6  C   UNL     1      30.461 -23.632 -15.435  0.00  0.00    +0.088 C 
ATOM      7  C   UNL     1      32.121 -24.553 -13.598  0.00  0.00    +0.002 C 
ATOM      8  C   UNL     1      32.253 -22.657 -16.854  0.00  0.00    +0.002 C 
ATOM      9  C   UNL     1      33.566 -24.433 -13.080  0.00  0.00    +0.000 C 
ATOM     10  C   UNL     1      30.726 -22.817 -16.729  0.00  0.00    +0.027 C 
ATOM     11  C   UNL     1      36.068 -24.153 -13.669  0.00  0.00    +0.019 C 
ATOM     12  C   UNL     1      35.268 -23.392 -16.449  0.00  0.00    +0.004 C 
ATOM     13  C   UNL     1      31.786 -22.082 -13.913  0.00  0.00    +0.002 C 
ATOM     14  C   UNL     1      36.682 -23.124 -15.948  0.00  0.00    +0.022 C 
ATOM     15  C   UNL     1      37.071 -24.035 -14.809  0.00  0.00    -0.042 C 
ATOM     16  C   UNL     1      36.453 -25.274 -12.682  0.00  0.00    +0.012 C 
ATOM     17  C   UNL     1      37.939 -25.294 -12.371  0.00  0.00    +0.069 C 
ATOM     18  C   UNL     1      38.263 -24.653 -14.825  0.00  0.00    +0.029 C 
ATOM     19  C   UNL     1      38.734 -25.414 -13.646  0.00  0.00    +0.173 C 
ENDROOT
BRANCH   6  20
ATOM     20  O   UNL     1      29.349 -23.064 -14.748  0.00  0.00    -0.387 OA
ATOM     21  H   UNL     1      28.702 -22.737 -15.392  0.00  0.00    +0.210 HD
ENDBRANCH   6  20
BRANCH   6  22
ATOM     22  C   UNL     1      30.073 -25.075 -15.783  0.00  0.00    +0.027 C 
ATOM     23  C   UNL     1      28.949 -25.567 -14.896  0.00  0.00    +0.002 C 
ENDBRANCH   6  22
TORSDOF 2
ENDMDL
MODEL 3
REMARK VINA RESULT:      -8.5      2.861      4.059
REMARK  Name = 5858
REMARK  2 active torsions:
REMARK  status: ('A' for Active; 'I' for Inactive)
REMARK    1  A    between atoms: C_6  and  O_20
REMARK    2  A    between atoms: C_6  and  C_22
REMARK                            x       y       z     vdW  Elec       q    Type
REMARK                         _______ _______ _______ _____ _____    ______ ____
ROOT
ATOM      1  O   UNL     1      27.819 -22.139 -15.812  0.00  0.00    -0.291 OA
ATOM      2  C   UNL     1      35.807 -24.454 -14.292  0.00  0.00    +0.023 C 
ATOM      3  C   UNL     1      35.379 -23.339 -15.272  0.00  0.00    +0.002 C 
ATOM      4  C   UNL     1      34.011 -23.603 -15.911  0.00  0.00    +0.001 C 
ATOM      5  C   UNL     1      32.937 -23.704 -14.789  0.00  0.00    +0.004 C 
ATOM      6  C   UNL     1      37.243 -23.971 -13.919  0.00  0.00    +0.088 C 
ATOM      7  C   UNL     1      34.771 -24.503 -13.157  0.00  0.00    +0.002 C 
ATOM      8  C   UNL     1      36.590 -23.182 -16.183  0.00  0.00    +0.002 C 
ATOM      9  C   UNL     1      33.343 -24.717 -13.690  0.00  0.00    +0.000 C 
ATOM     10  C   UNL     1      37.802 -23.446 -15.269  0.00  0.00    +0.027 C 
ATOM     11  C   UNL     1      31.528 -24.003 -15.387  0.00  0.00    +0.019 C 
ATOM     12  C   UNL     1      33.622 -22.500 -16.904  0.00  0.00    +0.004 C 
ATOM     13  C   UNL     1      35.891 -25.862 -14.950  0.00  0.00    +0.002 C 
ATOM     14  C   UNL     1      32.269 -22.799 -17.539  0.00  0.00    +0.022 C 
ATOM     15  C   UNL     1      31.190 -23.031 -16.510  0.00  0.00    -0.042 C 
ATOM     16  C   UNL     1      30.457 -23.988 -14.276  0.00  0.00    +0.012 C 
ATOM     17  C   UNL     1      29.043 -23.950 -14.828  0.00  0.00    +0.069 C 
ATOM     18  C   UNL     1      30.000 -22.424 -16.642  0.00  0.00    +0.029 C 
ATOM     19  C   UNL     1      28.875 -22.764 -15.742  0.00  0.00    +0.173 C 
ENDROOT
BRANCH   6  20
ATOM     20  O   UNL     1      38.063 -25.045 -13.463  0.00  0.00    -0.387 OA
ATOM     21  H   UNL     1      38.878 -24.689 -13.078  0.00  0.00    +0.210 HD
ENDBRANCH   6  20
BRANCH   6  22
ATOM     22  C   UNL     1      37.320 -22.875 -12.848  0.00  0.00    +0.027 C 
ATOM     23  C   UNL     1      37.901 -23.412 -11.558  0.00  0.00    +0.002 C 
ENDBRANCH   6  22
TORSDOF 2
ENDMDL
MODEL 4
REMARK VINA RESULT:      -8.1      6.026      9.851
REMARK  Name = 5858
REMARK  2 active torsions:
REMARK  status: ('A' for Active; 'I' for Inactive)
REMARK    1  A    between atoms: C_6  and  O_20
REMARK    2  A    between atoms: C_6  and  C_22
REMARK                            x       y       z     vdW  Elec       q    Type
REMARK                         _______ _______ _______ _____ _____    ______ ____
ROOT
ATOM      1  O   UNL     1      34.120 -10.523 -25.538  0.00  0.00    -0.291 OA
ATOM      2  C   UNL     1      34.418 -17.974 -21.554  0.00  0.00    +0.023 C 
ATOM      3  C   UNL     1      34.757 -17.752 -23.044  0.00  0.00    +0.002 C 
ATOM      4  C   UNL     1      33.958 -16.604 -23.671  0.00  0.00    +0.001 C 
ATOM      5  C   UNL     1      34.268 -15.288 -22.900  0.00  0.00    +0.004 C 
ATOM      6  C   UNL     1      35.273 -19.244 -21.252  0.00  0.00    +0.088 C 
ATOM      7  C   UNL     1      34.786 -16.688 -20.794  0.00  0.00    +0.002 C 
ATOM      8  C   UNL     1      34.627 -19.145 -23.650  0.00  0.00    +0.002 C 
ATOM      9  C   UNL     1      34.073 -15.453 -21.373  0.00  0.00    +0.000 C 
ATOM     10  C   UNL     1      35.102 -20.098 -22.537  0.00  0.00    +0.027 C 
ATOM     11  C   UNL     1      33.454 -14.092 -23.482  0.00  0.00    +0.019 C 
ATOM     12  C   UNL     1      34.285 -16.425 -25.159  0.00  0.00    +0.004 C 
ATOM     13  C   UNL     1      32.915 -18.289 -21.297  0.00  0.00    +0.002 C 
ATOM     14  C   UNL     1      33.462 -15.291 -25.760  0.00  0.00    +0.022 C 
ATOM     15  C   UNL     1      33.615 -14.000 -24.993  0.00  0.00    -0.042 C 
ATOM     16  C   UNL     1      33.857 -12.776 -22.783  0.00  0.00    +0.012 C 
ATOM     17  C   UNL     1      33.346 -11.547 -23.513  0.00  0.00    +0.069 C 
ATOM     18  C   UNL     1      33.838 -12.853 -25.655  0.00  0.00    +0.029 C 
ATOM     19  C   UNL     1      33.825 -11.556 -24.942  0.00  0.00    +0.173 C 
ENDROOT
BRANCH   6  20
ATOM     20  O   UNL     1      34.764 -19.974 -20.138  0.00  0.00    -0.387 OA
ATOM     21  H   UNL     1      33.924 -20.392 -20.382  0.00  0.00    +0.210 HD
ENDBRANCH   6  20
BRANCH   6  22
ATOM     22  C   UNL     1      36.760 -18.994 -20.971  0.00  0.00    +0.027 C 
ATOM     23  C   UNL     1      37.329 -20.055 -20.054  0.00  0.00    +0.002 C 
ENDBRANCH   6  22
TORSDOF 2
ENDMDL
MODEL 5
REMARK VINA RESULT:      -7.9      8.941     13.299
REMARK  Name = 5858
REMARK  2 active torsions:
REMARK  status: ('A' for Active; 'I' for Inactive)
REMARK    1  A    between atoms: C_6  and  O_20
REMARK    2  A    between atoms: C_6  and  C_22
REMARK                            x       y       z     vdW  Elec       q    Type
REMARK                         _______ _______ _______ _____ _____    ______ ____
ROOT
ATOM      1  O   UNL     1      35.648 -18.097 -22.906  0.00  0.00    -0.291 OA
ATOM      2  C   UNL     1      31.964 -10.523 -22.169  0.00  0.00    +0.023 C 
ATOM      3  C   UNL     1      32.391 -11.420 -20.986  0.00  0.00    +0.002 C 
ATOM      4  C   UNL     1      32.315 -12.914 -21.316  0.00  0.00    +0.001 C 
ATOM      5  C   UNL     1      33.255 -13.218 -22.519  0.00  0.00    +0.004 C 
ATOM      6  C   UNL     1      32.029  -9.116 -21.498  0.00  0.00    +0.088 C 
ATOM      7  C   UNL     1      32.937 -10.787 -23.330  0.00  0.00    +0.002 C 
ATOM      8  C   UNL     1      31.563 -10.889 -19.821  0.00  0.00    +0.002 C 
ATOM      9  C   UNL     1      32.980 -12.276 -23.718  0.00  0.00    +0.000 C 
ATOM     10  C   UNL     1      31.456  -9.374 -20.078  0.00  0.00    +0.027 C 
ATOM     11  C   UNL     1      33.191 -14.725 -22.915  0.00  0.00    +0.019 C 
ATOM     12  C   UNL     1      32.710 -13.786 -20.116  0.00  0.00    +0.004 C 
ATOM     13  C   UNL     1      30.514 -10.794 -22.664  0.00  0.00    +0.002 C 
ATOM     14  C   UNL     1      32.606 -15.266 -20.467  0.00  0.00    +0.022 C 
ATOM     15  C   UNL     1      33.398 -15.621 -21.701  0.00  0.00    -0.042 C 
ATOM     16  C   UNL     1      34.210 -15.031 -24.033  0.00  0.00    +0.012 C 
ATOM     17  C   UNL     1      34.425 -16.521 -24.235  0.00  0.00    +0.069 C 
ATOM     18  C   UNL     1      34.196 -16.701 -21.695  0.00  0.00    +0.029 C 
ATOM     19  C   UNL     1      34.850 -17.164 -22.940  0.00  0.00    +0.173 C 
ENDROOT
BRANCH   6  20
ATOM     20  O   UNL     1      31.198  -8.170 -22.168  0.00  0.00    -0.387 OA
ATOM     21  H   UNL     1      31.458  -7.272 -21.912  0.00  0.00    +0.210 HD
ENDBRANCH   6  20
BRANCH   6  22
ATOM     22  C   UNL     1      33.424  -8.486 -21.404  0.00  0.00    +0.027 C 
ATOM     23  C   UNL     1      33.611  -7.414 -22.457  0.00  0.00    +0.002 C 
ENDBRANCH   6  22
TORSDOF 2
ENDMDL
MODEL 6
REMARK VINA RESULT:      -7.8     10.864     15.651
REMARK  Name = 5858
REMARK  2 active torsions:
REMARK  status: ('A' for Active; 'I' for Inactive)
REMARK    1  A    between atoms: C_6  and  O_20
REMARK    2  A    between atoms: C_6  and  C_22
REMARK                            x       y       z     vdW  Elec       q    Type
REMARK                         _______ _______ _______ _____ _____    ______ ____
ROOT
ATOM      1  O   UNL     1      33.518 -15.934 -20.349  0.00  0.00    -0.291 OA
ATOM      2  C   UNL     1      32.144  -8.237 -23.565  0.00  0.00    +0.023 C 
ATOM      3  C   UNL     1      32.404  -8.541 -22.073  0.00  0.00    +0.002 C 
ATOM      4  C   UNL     1      31.892  -9.921 -21.649  0.00  0.00    +0.001 C 
ATOM      5  C   UNL     1      32.606 -11.012 -22.499  0.00  0.00    +0.004 C 
ATOM      6  C   UNL     1      32.651  -6.763 -23.649  0.00  0.00    +0.088 C 
ATOM      7  C   UNL     1      32.905  -9.285 -24.395  0.00  0.00    +0.002 C 
ATOM      8  C   UNL     1      31.857  -7.310 -21.359  0.00  0.00    +0.002 C 
ATOM      9  C   UNL     1      32.502 -10.722 -24.017  0.00  0.00    +0.000 C 
ATOM     10  C   UNL     1      32.151  -6.141 -22.318  0.00  0.00    +0.027 C 
ATOM     11  C   UNL     1      32.096 -12.438 -22.126  0.00  0.00    +0.019 C 
ATOM     12  C   UNL     1      32.130 -10.187 -20.157  0.00  0.00    +0.004 C 
ATOM     13  C   UNL     1      30.639  -8.290 -23.957  0.00  0.00    +0.002 C 
ATOM     14  C   UNL     1      31.593 -11.557 -19.760  0.00  0.00    +0.022 C 
ATOM     15  C   UNL     1      32.148 -12.664 -20.621  0.00  0.00    -0.042 C 
ATOM     16  C   UNL     1      32.893 -13.513 -22.895  0.00  0.00    +0.012 C 
ATOM     17  C   UNL     1      32.670 -14.910 -22.344  0.00  0.00    +0.069 C 
ATOM     18  C   UNL     1      32.615 -13.786 -20.049  0.00  0.00    +0.029 C 
ATOM     19  C   UNL     1      33.008 -14.948 -20.876  0.00  0.00    +0.173 C 
ENDROOT
BRANCH   6  20
ATOM     20  O   UNL     1      32.060  -6.061 -24.740  0.00  0.00    -0.387 OA
ATOM     21  H   UNL     1      31.370  -6.610 -25.143  0.00  0.00    +0.210 HD
ENDBRANCH   6  20
BRANCH   6  22
ATOM     22  C   UNL     1      34.169  -6.588 -23.784  0.00  0.00    +0.027 C 
ATOM     23  C   UNL     1      34.561  -6.308 -25.219  0.00  0.00    +0.002 C 
ENDBRANCH   6  22
TORSDOF 2
ENDMDL
MODEL 7
REMARK VINA RESULT:      -7.7      1.666      7.355
REMARK  Name = 5858
REMARK  2 active torsions:
REMARK  status: ('A' for Active; 'I' for Inactive)
REMARK    1  A    between atoms: C_6  and  O_20
REMARK    2  A    between atoms: C_6  and  C_22
REMARK                            x       y       z     vdW  Elec       q    Type
REMARK                         _______ _______ _______ _____ _____    ______ ____
ROOT
ATOM      1  O   UNL     1      34.912 -24.120 -13.075  0.00  0.00    -0.291 OA
ATOM      2  C   UNL     1      35.526 -20.394 -20.639  0.00  0.00    +0.023 C 
ATOM      3  C   UNL     1      34.214 -20.577 -19.845  0.00  0.00    +0.002 C 
ATOM      4  C   UNL     1      34.217 -21.838 -18.974  0.00  0.00    +0.001 C 
ATOM      5  C   UNL     1      35.393 -21.750 -17.957  0.00  0.00    +0.004 C 
ATOM      6  C   UNL     1      35.172 -19.136 -21.492  0.00  0.00    +0.088 C 
ATOM      7  C   UNL     1      36.671 -20.248 -19.623  0.00  0.00    +0.002 C 
ATOM      8  C   UNL     1      33.132 -20.430 -20.909  0.00  0.00    +0.002 C 
ATOM      9  C   UNL     1      36.740 -21.444 -18.657  0.00  0.00    +0.000 C 
ATOM     10  C   UNL     1      33.693 -19.387 -21.893  0.00  0.00    +0.027 C 
ATOM     11  C   UNL     1      35.458 -23.027 -17.064  0.00  0.00    +0.019 C 
ATOM     12  C   UNL     1      32.892 -22.017 -18.222  0.00  0.00    +0.004 C 
ATOM     13  C   UNL     1      35.852 -21.586 -21.586  0.00  0.00    +0.002 C 
ATOM     14  C   UNL     1      32.917 -23.288 -17.381  0.00  0.00    +0.022 C 
ATOM     15  C   UNL     1      34.101 -23.337 -16.447  0.00  0.00    -0.042 C 
ATOM     16  C   UNL     1      36.555 -22.876 -15.989  0.00  0.00    +0.012 C 
ATOM     17  C   UNL     1      36.455 -23.930 -14.901  0.00  0.00    +0.069 C 
ATOM     18  C   UNL     1      33.924 -23.679 -15.161  0.00  0.00    +0.029 C 
ATOM     19  C   UNL     1      35.086 -23.896 -14.270  0.00  0.00    +0.173 C 
ENDROOT
BRANCH   6  20
ATOM     20  O   UNL     1      35.966 -19.055 -22.673  0.00  0.00    -0.387 OA
ATOM     21  H   UNL     1      35.889 -18.167 -23.054  0.00  0.00    +0.210 HD
ENDBRANCH   6  20
BRANCH   6  22
ATOM     22  C   UNL     1      35.309 -17.787 -20.776  0.00  0.00    +0.027 C 
ATOM     23  C   UNL     1      34.293 -16.789 -21.289  0.00  0.00    +0.002 C 
ENDBRANCH   6  22
TORSDOF 2
ENDMDL
MODEL 8
REMARK VINA RESULT:      -7.6      6.589     10.090
REMARK  Name = 5858
REMARK  2 active torsions:
REMARK  status: ('A' for Active; 'I' for Inactive)
REMARK    1  A    between atoms: C_6  and  O_20
REMARK    2  A    between atoms: C_6  and  C_22
REMARK                            x       y       z     vdW  Elec       q    Type
REMARK                         _______ _______ _______ _____ _____    ______ ____
ROOT
ATOM      1  O   UNL     1      32.123  -9.718 -21.918  0.00  0.00    -0.291 OA
ATOM      2  C   UNL     1      34.322 -17.882 -21.948  0.00  0.00    +0.023 C 
ATOM      3  C   UNL     1      34.592 -16.887 -23.098  0.00  0.00    +0.002 C 
ATOM      4  C   UNL     1      33.526 -15.791 -23.199  0.00  0.00    +0.001 C 
ATOM      5  C   UNL     1      33.488 -14.992 -21.864  0.00  0.00    +0.004 C 
ATOM      6  C   UNL     1      35.474 -18.908 -22.180  0.00  0.00    +0.088 C 
ATOM      7  C   UNL     1      34.348 -17.091 -20.629  0.00  0.00    +0.002 C 
ATOM      8  C   UNL     1      34.825 -17.791 -24.303  0.00  0.00    +0.002 C 
ATOM      9  C   UNL     1      33.341 -15.925 -20.636  0.00  0.00    +0.000 C 
ATOM     10  C   UNL     1      35.528 -19.034 -23.726  0.00  0.00    +0.027 C 
ATOM     11  C   UNL     1      32.395 -13.881 -21.905  0.00  0.00    +0.019 C 
ATOM     12  C   UNL     1      33.797 -14.835 -24.369  0.00  0.00    +0.004 C 
ATOM     13  C   UNL     1      32.950 -18.609 -22.064  0.00  0.00    +0.002 C 
ATOM     14  C   UNL     1      32.710 -13.770 -24.458  0.00  0.00    +0.022 C 
ATOM     15  C   UNL     1      32.526 -13.026 -23.158  0.00  0.00    -0.042 C 
ATOM     16  C   UNL     1      32.446 -13.027 -20.621  0.00  0.00    +0.012 C 
ATOM     17  C   UNL     1      31.637 -11.748 -20.738  0.00  0.00    +0.069 C 
ATOM     18  C   UNL     1      32.449 -11.686 -23.161  0.00  0.00    +0.029 C 
ATOM     19  C   UNL     1      32.103 -10.946 -21.926  0.00  0.00    +0.173 C 
ENDROOT
BRANCH   6  20
ATOM     20  O   UNL     1      35.169 -20.183 -21.621  0.00  0.00    -0.387 OA
ATOM     21  H   UNL     1      35.905 -20.476 -21.061  0.00  0.00    +0.210 HD
ENDBRANCH   6  20
BRANCH   6  22
ATOM     22  C   UNL     1      36.847 -18.503 -21.629  0.00  0.00    +0.027 C 
ATOM     23  C   UNL     1      37.301 -19.452 -20.541  0.00  0.00    +0.002 C 
ENDBRANCH   6  22
TORSDOF 2
ENDMDL
MODEL 9
REMARK VINA RESULT:      -7.4      2.937      4.572
REMARK  Name = 5858
REMARK  2 active torsions:
REMARK  status: ('A' for Active; 'I' for Inactive)
REMARK    1  A    between atoms: C_6  and  O_20
REMARK    2  A    between atoms: C_6  and  C_22
REMARK                            x       y       z     vdW  Elec       q    Type
REMARK                         _______ _______ _______ _____ _____    ______ ____
ROOT
ATOM      1  O   UNL     1      28.702 -23.555 -16.981  0.00  0.00    -0.291 OA
ATOM      2  C   UNL     1      36.636 -24.006 -14.096  0.00  0.00    +0.023 C 
ATOM      3  C   UNL     1      35.422 -24.721 -13.464  0.00  0.00    +0.002 C 
ATOM      4  C   UNL     1      34.112 -23.949 -13.654  0.00  0.00    +0.001 C 
ATOM      5  C   UNL     1      33.838 -23.777 -15.177  0.00  0.00    +0.004 C 
ATOM      6  C   UNL     1      37.793 -24.948 -13.639  0.00  0.00    +0.088 C 
ATOM      7  C   UNL     1      36.381 -23.897 -15.608  0.00  0.00    +0.002 C 
ATOM      8  C   UNL     1      35.887 -25.028 -12.046  0.00  0.00    +0.002 C 
ATOM      9  C   UNL     1      35.057 -23.175 -15.918  0.00  0.00    +0.000 C 
ATOM     10  C   UNL     1      37.393 -25.319 -12.185  0.00  0.00    +0.027 C 
ATOM     11  C   UNL     1      32.528 -22.968 -15.423  0.00  0.00    +0.019 C 
ATOM     12  C   UNL     1      32.926 -24.661 -12.990  0.00  0.00    +0.004 C 
ATOM     13  C   UNL     1      36.880 -22.576 -13.529  0.00  0.00    +0.002 C 
ATOM     14  C   UNL     1      31.643 -23.860 -13.176  0.00  0.00    +0.022 C 
ATOM     15  C   UNL     1      31.366 -23.547 -14.626  0.00  0.00    -0.042 C 
ATOM     16  C   UNL     1      32.211 -22.905 -16.932  0.00  0.00    +0.012 C 
ATOM     17  C   UNL     1      30.800 -22.418 -17.213  0.00  0.00    +0.069 C 
ATOM     18  C   UNL     1      30.137 -23.745 -15.130  0.00  0.00    +0.029 C 
ATOM     19  C   UNL     1      29.800 -23.289 -16.497  0.00  0.00    +0.173 C 
ENDROOT
BRANCH   6  20
ATOM     20  O   UNL     1      39.049 -24.275 -13.618  0.00  0.00    -0.387 OA
ATOM     21  H   UNL     1      39.328 -24.081 -14.526  0.00  0.00    +0.210 HD
ENDBRANCH   6  20
BRANCH   6  22
ATOM     22  C   UNL     1      37.988 -26.217 -14.479  0.00  0.00    +0.027 C 
ATOM     23  C   UNL     1      39.429 -26.363 -14.921  0.00  0.00    +0.002 C 
ENDBRANCH   6  22
TORSDOF 2
ENDMDL
