MODEL 1
REMARK VINA RESULT:     -10.1      0.000      0.000
REMARK  Name = 9818878
REMARK  6 active torsions:
REMARK  status: ('A' for Active; 'I' for Inactive)
REMARK    1  A    between atoms: C_5  and  O_20
REMARK    2  A    between atoms: C_6  and  O_24
REMARK    3  A    between atoms: C_7  and  C_12
REMARK    4  A    between atoms: C_9  and  O_22
REMARK    5  A    between atoms: C_10  and  O_26
REMARK    6  A    between atoms: C_13  and  O_18
REMARK                            x       y       z     vdW  Elec       q    Type
REMARK                         _______ _______ _______ _____ _____    ______ ____
ROOT
ATOM      1  O   UNL     1      34.396 -17.190 -21.819  0.00  0.00    -0.450 OA
ATOM      2  O   UNL     1      34.619 -17.898 -25.825  0.00  0.00    -0.286 OA
ATOM      3  C   UNL     1      34.133 -16.369 -24.091  0.00  0.00    +0.113 A 
ATOM      4  C   UNL     1      34.077 -16.196 -22.708  0.00  0.00    +0.188 A 
ATOM      5  C   UNL     1      33.680 -14.968 -22.176  0.00  0.00    +0.210 A 
ATOM      6  C   UNL     1      33.795 -15.320 -24.949  0.00  0.00    +0.177 A 
ATOM      7  C   UNL     1      34.799 -18.418 -22.319  0.00  0.00    +0.151 C 
ATOM      8  C   UNL     1      34.552 -17.674 -24.625  0.00  0.00    +0.205 C 
ATOM      9  C   UNL     1      33.400 -14.094 -24.413  0.00  0.00    +0.209 A 
ATOM     10  C   UNL     1      33.343 -13.918 -23.030  0.00  0.00    +0.209 A 
ATOM     11  C   UNL     1      34.888 -18.709 -23.627  0.00  0.00    +0.080 C 
ENDROOT
BRANCH   7  12
ATOM     12  C   UNL     1      35.114 -19.417 -21.277  0.00  0.00    +0.068 C 
ATOM     13  C   UNL     1      34.108 -20.177 -20.673  0.00  0.00    +0.137 C 
ATOM     14  C   UNL     1      36.445 -19.602 -20.891  0.00  0.00    +0.006 C 
ATOM     15  C   UNL     1      34.431 -21.115 -19.692  0.00  0.00    +0.037 C 
ATOM     16  C   UNL     1      36.767 -20.539 -19.909  0.00  0.00    +0.000 C 
ATOM     17  C   UNL     1      35.760 -21.295 -19.310  0.00  0.00    +0.003 C 
BRANCH  13  18
ATOM     18  O   UNL     1      32.801 -20.021 -21.028  0.00  0.00    -0.505 OA
ATOM     19  H   UNL     1      32.448 -20.510 -21.745  0.00  0.00    +0.292 HD
ENDBRANCH  13  18
ENDBRANCH   7  12
BRANCH   5  20
ATOM     20  O   UNL     1      33.623 -14.791 -20.825  0.00  0.00    -0.465 OA
ATOM     21  C   UNL     1      32.387 -15.098 -20.184  0.00  0.00    +0.253 C 
ENDBRANCH   5  20
BRANCH   9  22
ATOM     22  O   UNL     1      33.068 -13.062 -25.242  0.00  0.00    -0.465 OA
ATOM     23  C   UNL     1      34.030 -12.023 -25.397  0.00  0.00    +0.253 C 
ENDBRANCH   9  22
BRANCH   6  24
ATOM     24  O   UNL     1      33.839 -15.454 -26.304  0.00  0.00    -0.503 OA
ATOM     25  H   UNL     1      34.066 -16.279 -26.687  0.00  0.00    +0.292 HD
ENDBRANCH   6  24
BRANCH  10  26
ATOM     26  O   UNL     1      32.956 -12.717 -22.512  0.00  0.00    -0.501 OA
ATOM     27  H   UNL     1      33.000 -11.944 -23.040  0.00  0.00    +0.292 HD
ENDBRANCH  10  26
TORSDOF 6
ENDMDL
MODEL 2
REMARK VINA RESULT:      -9.9      9.316     12.239
REMARK  Name = 9818878
REMARK  6 active torsions:
REMARK  status: ('A' for Active; 'I' for Inactive)
REMARK    1  A    between atoms: C_5  and  O_20
REMARK    2  A    between atoms: C_6  and  O_24
REMARK    3  A    between atoms: C_7  and  C_12
REMARK    4  A    between atoms: C_9  and  O_22
REMARK    5  A    between atoms: C_10  and  O_26
REMARK    6  A    between atoms: C_13  and  O_18
REMARK                            x       y       z     vdW  Elec       q    Type
REMARK                         _______ _______ _______ _____ _____    ______ ____
ROOT
ATOM      1  O   UNL     1      34.454 -24.008 -14.143  0.00  0.00    -0.450 OA
ATOM      2  O   UNL     1      36.800 -22.615 -17.169  0.00  0.00    -0.286 OA
ATOM      3  C   UNL     1      36.674 -23.740 -15.095  0.00  0.00    +0.113 A 
ATOM      4  C   UNL     1      35.813 -24.189 -14.094  0.00  0.00    +0.188 A 
ATOM      5  C   UNL     1      36.326 -24.854 -12.980  0.00  0.00    +0.210 A 
ATOM      6  C   UNL     1      38.050 -23.952 -14.990  0.00  0.00    +0.177 A 
ATOM      7  C   UNL     1      33.914 -23.357 -15.241  0.00  0.00    +0.151 C 
ATOM      8  C   UNL     1      36.105 -23.041 -16.257  0.00  0.00    +0.205 C 
ATOM      9  C   UNL     1      38.560 -24.618 -13.876  0.00  0.00    +0.209 A 
ATOM     10  C   UNL     1      37.701 -25.068 -12.873  0.00  0.00    +0.209 A 
ATOM     11  C   UNL     1      34.638 -22.874 -16.265  0.00  0.00    +0.080 C 
ENDROOT
BRANCH   7  12
ATOM     12  C   UNL     1      32.445 -23.211 -15.191  0.00  0.00    +0.068 C 
ATOM     13  C   UNL     1      31.769 -23.085 -13.974  0.00  0.00    +0.137 C 
ATOM     14  C   UNL     1      31.720 -23.200 -16.387  0.00  0.00    +0.006 C 
ATOM     15  C   UNL     1      30.381 -22.948 -13.953  0.00  0.00    +0.037 C 
ATOM     16  C   UNL     1      30.333 -23.063 -16.365  0.00  0.00    +0.000 C 
ATOM     17  C   UNL     1      29.663 -22.938 -15.149  0.00  0.00    +0.003 C 
BRANCH  13  18
ATOM     18  O   UNL     1      32.447 -23.093 -12.791  0.00  0.00    -0.505 OA
ATOM     19  H   UNL     1      32.346 -22.382 -12.188  0.00  0.00    +0.292 HD
ENDBRANCH  13  18
ENDBRANCH   7  12
BRANCH   5  20
ATOM     20  O   UNL     1      35.491 -25.296 -11.997  0.00  0.00    -0.465 OA
ATOM     21  C   UNL     1      35.360 -24.473 -10.840  0.00  0.00    +0.253 C 
ENDBRANCH   5  20
BRANCH   9  22
ATOM     22  O   UNL     1      39.904 -24.830 -13.764  0.00  0.00    -0.465 OA
ATOM     23  C   UNL     1      40.426 -26.001 -14.385  0.00  0.00    +0.253 C 
ENDBRANCH   9  22
BRANCH   6  24
ATOM     24  O   UNL     1      38.920 -23.527 -15.949  0.00  0.00    -0.503 OA
ATOM     25  H   UNL     1      38.640 -22.911 -16.598  0.00  0.00    +0.292 HD
ENDBRANCH   6  24
BRANCH  10  26
ATOM     26  O   UNL     1      38.206 -25.718 -11.786  0.00  0.00    -0.501 OA
ATOM     27  H   UNL     1      37.640 -25.951 -11.075  0.00  0.00    +0.292 HD
ENDBRANCH  10  26
TORSDOF 6
ENDMDL
MODEL 3
REMARK VINA RESULT:      -9.5      5.911     10.686
REMARK  Name = 9818878
REMARK  6 active torsions:
REMARK  status: ('A' for Active; 'I' for Inactive)
REMARK    1  A    between atoms: C_5  and  O_20
REMARK    2  A    between atoms: C_6  and  O_24
REMARK    3  A    between atoms: C_7  and  C_12
REMARK    4  A    between atoms: C_9  and  O_22
REMARK    5  A    between atoms: C_10  and  O_26
REMARK    6  A    between atoms: C_13  and  O_18
REMARK                            x       y       z     vdW  Elec       q    Type
REMARK                         _______ _______ _______ _____ _____    ______ ____
ROOT
ATOM      1  O   UNL     1      34.451 -22.580 -17.055  0.00  0.00    -0.450 OA
ATOM      2  O   UNL     1      38.376 -22.711 -15.971  0.00  0.00    -0.286 OA
ATOM      3  C   UNL     1      36.143 -23.294 -15.464  0.00  0.00    +0.113 A 
ATOM      4  C   UNL     1      34.819 -23.210 -15.894  0.00  0.00    +0.188 A 
ATOM      5  C   UNL     1      33.801 -23.782 -15.129  0.00  0.00    +0.210 A 
ATOM      6  C   UNL     1      36.458 -23.948 -14.271  0.00  0.00    +0.177 A 
ATOM      7  C   UNL     1      35.441 -22.008 -17.838  0.00  0.00    +0.151 C 
ATOM      8  C   UNL     1      37.195 -22.681 -16.289  0.00  0.00    +0.205 C 
ATOM      9  C   UNL     1      35.439 -24.519 -13.510  0.00  0.00    +0.209 A 
ATOM     10  C   UNL     1      34.113 -24.437 -13.938  0.00  0.00    +0.209 A 
ATOM     11  C   UNL     1      36.748 -22.018 -17.530  0.00  0.00    +0.080 C 
ENDROOT
BRANCH   7  12
ATOM     12  C   UNL     1      34.936 -21.352 -19.062  0.00  0.00    +0.068 C 
ATOM     13  C   UNL     1      33.576 -21.372 -19.387  0.00  0.00    +0.137 C 
ATOM     14  C   UNL     1      35.838 -20.701 -19.908  0.00  0.00    +0.006 C 
ATOM     15  C   UNL     1      33.123 -20.744 -20.547  0.00  0.00    +0.037 C 
ATOM     16  C   UNL     1      35.385 -20.075 -21.068  0.00  0.00    +0.000 C 
ATOM     17  C   UNL     1      34.028 -20.096 -21.389  0.00  0.00    +0.003 C 
BRANCH  13  18
ATOM     18  O   UNL     1      32.671 -21.998 -18.583  0.00  0.00    -0.505 OA
ATOM     19  H   UNL     1      32.564 -21.723 -17.693  0.00  0.00    +0.292 HD
ENDBRANCH  13  18
ENDBRANCH   7  12
BRANCH   5  20
ATOM     20  O   UNL     1      32.504 -23.704 -15.542  0.00  0.00    -0.465 OA
ATOM     21  C   UNL     1      31.665 -22.768 -14.870  0.00  0.00    +0.253 C 
ENDBRANCH   5  20
BRANCH   9  22
ATOM     22  O   UNL     1      35.736 -25.161 -12.343  0.00  0.00    -0.465 OA
ATOM     23  C   UNL     1      35.714 -24.379 -11.152  0.00  0.00    +0.253 C 
ENDBRANCH   9  22
BRANCH   6  24
ATOM     24  O   UNL     1      37.741 -24.049 -13.822  0.00  0.00    -0.503 OA
ATOM     25  H   UNL     1      37.941 -23.854 -12.927  0.00  0.00    +0.292 HD
ENDBRANCH   6  24
BRANCH  10  26
ATOM     26  O   UNL     1      33.121 -24.997 -13.189  0.00  0.00    -0.501 OA
ATOM     27  H   UNL     1      32.585 -25.675 -13.553  0.00  0.00    +0.292 HD
ENDBRANCH  10  26
TORSDOF 6
ENDMDL
MODEL 4
REMARK VINA RESULT:      -9.3      0.877      3.033
REMARK  Name = 9818878
REMARK  6 active torsions:
REMARK  status: ('A' for Active; 'I' for Inactive)
REMARK    1  A    between atoms: C_5  and  O_20
REMARK    2  A    between atoms: C_6  and  O_24
REMARK    3  A    between atoms: C_7  and  C_12
REMARK    4  A    between atoms: C_9  and  O_22
REMARK    5  A    between atoms: C_10  and  O_26
REMARK    6  A    between atoms: C_13  and  O_18
REMARK                            x       y       z     vdW  Elec       q    Type
REMARK                         _______ _______ _______ _____ _____    ______ ____
ROOT
ATOM      1  O   UNL     1      34.586 -17.472 -22.914  0.00  0.00    -0.450 OA
ATOM      2  O   UNL     1      33.508 -14.256 -20.658  0.00  0.00    -0.286 OA
ATOM      3  C   UNL     1      33.783 -15.181 -22.815  0.00  0.00    +0.113 A 
ATOM      4  C   UNL     1      34.168 -16.317 -23.525  0.00  0.00    +0.188 A 
ATOM      5  C   UNL     1      34.139 -16.309 -24.920  0.00  0.00    +0.210 A 
ATOM      6  C   UNL     1      33.368 -14.032 -23.491  0.00  0.00    +0.177 A 
ATOM      7  C   UNL     1      34.619 -17.511 -21.530  0.00  0.00    +0.151 C 
ATOM      8  C   UNL     1      33.826 -15.217 -21.345  0.00  0.00    +0.205 C 
ATOM      9  C   UNL     1      33.339 -14.028 -24.886  0.00  0.00    +0.209 A 
ATOM     10  C   UNL     1      33.723 -15.164 -25.599  0.00  0.00    +0.209 A 
ATOM     11  C   UNL     1      34.279 -16.483 -20.736  0.00  0.00    +0.080 C 
ENDROOT
BRANCH   7  12
ATOM     12  C   UNL     1      35.088 -18.798 -20.976  0.00  0.00    +0.068 C 
ATOM     13  C   UNL     1      34.186 -19.797 -20.596  0.00  0.00    +0.137 C 
ATOM     14  C   UNL     1      36.461 -19.018 -20.832  0.00  0.00    +0.006 C 
ATOM     15  C   UNL     1      34.654 -21.004 -20.077  0.00  0.00    +0.037 C 
ATOM     16  C   UNL     1      36.928 -20.224 -20.312  0.00  0.00    +0.000 C 
ATOM     17  C   UNL     1      36.025 -21.218 -19.934  0.00  0.00    +0.003 C 
BRANCH  13  18
ATOM     18  O   UNL     1      32.841 -19.614 -20.725  0.00  0.00    -0.505 OA
ATOM     19  H   UNL     1      32.339 -19.299 -19.999  0.00  0.00    +0.292 HD
ENDBRANCH  13  18
ENDBRANCH   7  12
BRANCH   5  20
ATOM     20  O   UNL     1      34.514 -17.417 -25.623  0.00  0.00    -0.465 OA
ATOM     21  C   UNL     1      33.821 -18.629 -25.337  0.00  0.00    +0.253 C 
ENDBRANCH   5  20
BRANCH   9  22
ATOM     22  O   UNL     1      32.934 -12.910 -25.557  0.00  0.00    -0.465 OA
ATOM     23  C   UNL     1      33.922 -11.915 -25.809  0.00  0.00    +0.253 C 
ENDBRANCH   9  22
BRANCH   6  24
ATOM     24  O   UNL     1      32.985 -12.904 -22.829  0.00  0.00    -0.503 OA
ATOM     25  H   UNL     1      33.625 -12.267 -22.577  0.00  0.00    +0.292 HD
ENDBRANCH   6  24
BRANCH  10  26
ATOM     26  O   UNL     1      33.693 -15.154 -26.962  0.00  0.00    -0.501 OA
ATOM     27  H   UNL     1      33.946 -14.382 -27.431  0.00  0.00    +0.292 HD
ENDBRANCH  10  26
TORSDOF 6
ENDMDL
MODEL 5
REMARK VINA RESULT:      -9.3      8.789     12.245
REMARK  Name = 9818878
REMARK  6 active torsions:
REMARK  status: ('A' for Active; 'I' for Inactive)
REMARK    1  A    between atoms: C_5  and  O_20
REMARK    2  A    between atoms: C_6  and  O_24
REMARK    3  A    between atoms: C_7  and  C_12
REMARK    4  A    between atoms: C_9  and  O_22
REMARK    5  A    between atoms: C_10  and  O_26
REMARK    6  A    between atoms: C_13  and  O_18
REMARK                            x       y       z     vdW  Elec       q    Type
REMARK                         _______ _______ _______ _____ _____    ______ ____
ROOT
ATOM      1  O   UNL     1      34.469 -23.466 -15.162  0.00  0.00    -0.450 OA
ATOM      2  O   UNL     1      34.894 -24.991 -11.409  0.00  0.00    -0.286 OA
ATOM      3  C   UNL     1      35.935 -24.299 -13.413  0.00  0.00    +0.113 A 
ATOM      4  C   UNL     1      35.718 -23.775 -14.687  0.00  0.00    +0.188 A 
ATOM      5  C   UNL     1      36.799 -23.548 -15.540  0.00  0.00    +0.210 A 
ATOM      6  C   UNL     1      37.230 -24.597 -12.983  0.00  0.00    +0.177 A 
ATOM      7  C   UNL     1      33.378 -23.675 -14.335  0.00  0.00    +0.151 C 
ATOM      8  C   UNL     1      34.778 -24.530 -12.536  0.00  0.00    +0.205 C 
ATOM      9  C   UNL     1      38.309 -24.367 -13.838  0.00  0.00    +0.209 A 
ATOM     10  C   UNL     1      38.094 -23.843 -15.114  0.00  0.00    +0.209 A 
ATOM     11  C   UNL     1      33.456 -24.178 -13.092  0.00  0.00    +0.080 C 
ENDROOT
BRANCH   7  12
ATOM     12  C   UNL     1      32.082 -23.313 -14.946  0.00  0.00    +0.068 C 
ATOM     13  C   UNL     1      31.946 -23.175 -16.331  0.00  0.00    +0.137 C 
ATOM     14  C   UNL     1      30.974 -23.105 -14.120  0.00  0.00    +0.006 C 
ATOM     15  C   UNL     1      30.712 -22.834 -16.884  0.00  0.00    +0.037 C 
ATOM     16  C   UNL     1      29.741 -22.762 -14.673  0.00  0.00    +0.000 C 
ATOM     17  C   UNL     1      29.609 -22.627 -16.055  0.00  0.00    +0.003 C 
BRANCH  13  18
ATOM     18  O   UNL     1      33.008 -23.372 -17.163  0.00  0.00    -0.505 OA
ATOM     19  H   UNL     1      33.162 -22.781 -17.874  0.00  0.00    +0.292 HD
ENDBRANCH  13  18
ENDBRANCH   7  12
BRANCH   5  20
ATOM     20  O   UNL     1      36.595 -23.036 -16.787  0.00  0.00    -0.465 OA
ATOM     21  C   UNL     1      36.867 -21.649 -16.970  0.00  0.00    +0.253 C 
ENDBRANCH   5  20
BRANCH   9  22
ATOM     22  O   UNL     1      39.578 -24.654 -13.427  0.00  0.00    -0.465 OA
ATOM     23  C   UNL     1      40.175 -25.835 -13.955  0.00  0.00    +0.253 C 
ENDBRANCH   9  22
BRANCH   6  24
ATOM     24  O   UNL     1      37.479 -25.108 -11.745  0.00  0.00    -0.503 OA
ATOM     25  H   UNL     1      37.925 -24.590 -11.104  0.00  0.00    +0.292 HD
ENDBRANCH   6  24
BRANCH  10  26
ATOM     26  O   UNL     1      39.151 -23.620 -15.944  0.00  0.00    -0.501 OA
ATOM     27  H   UNL     1      39.792 -22.972 -15.724  0.00  0.00    +0.292 HD
ENDBRANCH  10  26
TORSDOF 6
ENDMDL
MODEL 6
REMARK VINA RESULT:      -9.1      2.369      6.743
REMARK  Name = 9818878
REMARK  6 active torsions:
REMARK  status: ('A' for Active; 'I' for Inactive)
REMARK    1  A    between atoms: C_5  and  O_20
REMARK    2  A    between atoms: C_6  and  O_24
REMARK    3  A    between atoms: C_7  and  C_12
REMARK    4  A    between atoms: C_9  and  O_22
REMARK    5  A    between atoms: C_10  and  O_26
REMARK    6  A    between atoms: C_13  and  O_18
REMARK                            x       y       z     vdW  Elec       q    Type
REMARK                         _______ _______ _______ _____ _____    ______ ____
ROOT
ATOM      1  O   UNL     1      33.787 -13.567 -22.849  0.00  0.00    -0.450 OA
ATOM      2  O   UNL     1      33.701 -14.879 -26.705  0.00  0.00    -0.286 OA
ATOM      3  C   UNL     1      34.211 -15.348 -24.447  0.00  0.00    +0.113 A 
ATOM      4  C   UNL     1      34.215 -14.835 -23.150  0.00  0.00    +0.188 A 
ATOM      5  C   UNL     1      34.671 -15.621 -22.091  0.00  0.00    +0.210 A 
ATOM      6  C   UNL     1      34.661 -16.647 -24.694  0.00  0.00    +0.177 A 
ATOM      7  C   UNL     1      33.323 -12.765 -23.880  0.00  0.00    +0.151 C 
ATOM      8  C   UNL     1      33.727 -14.496 -25.544  0.00  0.00    +0.205 C 
ATOM      9  C   UNL     1      35.115 -17.431 -23.633  0.00  0.00    +0.209 A 
ATOM     10  C   UNL     1      35.120 -16.920 -22.334  0.00  0.00    +0.209 A 
ATOM     11  C   UNL     1      33.274 -13.142 -25.168  0.00  0.00    +0.080 C 
ENDROOT
BRANCH   7  12
ATOM     12  C   UNL     1      32.891 -11.420 -23.447  0.00  0.00    +0.068 C 
ATOM     13  C   UNL     1      31.915 -11.253 -22.460  0.00  0.00    +0.137 C 
ATOM     14  C   UNL     1      33.473 -10.295 -24.038  0.00  0.00    +0.006 C 
ATOM     15  C   UNL     1      31.526  -9.973 -22.067  0.00  0.00    +0.037 C 
ATOM     16  C   UNL     1      33.083  -9.015 -23.646  0.00  0.00    +0.000 C 
ATOM     17  C   UNL     1      32.109  -8.854 -22.661  0.00  0.00    +0.003 C 
BRANCH  13  18
ATOM     18  O   UNL     1      31.329 -12.331 -21.863  0.00  0.00    -0.505 OA
ATOM     19  H   UNL     1      31.079 -12.288 -20.961  0.00  0.00    +0.292 HD
ENDBRANCH  13  18
ENDBRANCH   7  12
BRANCH   5  20
ATOM     20  O   UNL     1      34.678 -15.127 -20.820  0.00  0.00    -0.465 OA
ATOM     21  C   UNL     1      33.425 -15.064 -20.144  0.00  0.00    +0.253 C 
ENDBRANCH   5  20
BRANCH   9  22
ATOM     22  O   UNL     1      35.556 -18.702 -23.863  0.00  0.00    -0.465 OA
ATOM     23  C   UNL     1      34.568 -19.728 -23.920  0.00  0.00    +0.253 C 
ENDBRANCH   9  22
BRANCH   6  24
ATOM     24  O   UNL     1      34.671 -17.181 -25.948  0.00  0.00    -0.503 OA
ATOM     25  H   UNL     1      35.458 -17.556 -26.292  0.00  0.00    +0.292 HD
ENDBRANCH   6  24
BRANCH  10  26
ATOM     26  O   UNL     1      35.564 -17.691 -21.301  0.00  0.00    -0.501 OA
ATOM     27  H   UNL     1      36.317 -17.426 -20.809  0.00  0.00    +0.292 HD
ENDBRANCH  10  26
TORSDOF 6
ENDMDL
MODEL 7
REMARK VINA RESULT:      -9.0      2.575      7.361
REMARK  Name = 9818878
REMARK  6 active torsions:
REMARK  status: ('A' for Active; 'I' for Inactive)
REMARK    1  A    between atoms: C_5  and  O_20
REMARK    2  A    between atoms: C_6  and  O_24
REMARK    3  A    between atoms: C_7  and  C_12
REMARK    4  A    between atoms: C_9  and  O_22
REMARK    5  A    between atoms: C_10  and  O_26
REMARK    6  A    between atoms: C_13  and  O_18
REMARK                            x       y       z     vdW  Elec       q    Type
REMARK                         _______ _______ _______ _____ _____    ______ ____
ROOT
ATOM      1  O   UNL     1      33.842 -12.328 -23.196  0.00  0.00    -0.450 OA
ATOM      2  O   UNL     1      33.547 -13.432 -27.107  0.00  0.00    -0.286 OA
ATOM      3  C   UNL     1      33.771 -14.104 -24.852  0.00  0.00    +0.113 A 
ATOM      4  C   UNL     1      33.869 -13.656 -23.535  0.00  0.00    +0.188 A 
ATOM      5  C   UNL     1      34.002 -14.577 -22.495  0.00  0.00    +0.210 A 
ATOM      6  C   UNL     1      33.805 -15.470 -25.138  0.00  0.00    +0.177 A 
ATOM      7  C   UNL     1      33.704 -11.391 -24.208  0.00  0.00    +0.151 C 
ATOM      8  C   UNL     1      33.633 -13.111 -25.929  0.00  0.00    +0.205 C 
ATOM      9  C   UNL     1      33.937 -16.388 -24.096  0.00  0.00    +0.209 A 
ATOM     10  C   UNL     1      34.035 -15.943 -22.777  0.00  0.00    +0.209 A 
ATOM     11  C   UNL     1      33.606 -11.695 -25.512  0.00  0.00    +0.080 C 
ENDROOT
BRANCH   7  12
ATOM     12  C   UNL     1      33.692  -9.992 -23.733  0.00  0.00    +0.068 C 
ATOM     13  C   UNL     1      32.672  -9.514 -22.905  0.00  0.00    +0.137 C 
ATOM     14  C   UNL     1      34.722  -9.131 -24.123  0.00  0.00    +0.006 C 
ATOM     15  C   UNL     1      32.683  -8.190 -22.469  0.00  0.00    +0.037 C 
ATOM     16  C   UNL     1      34.733  -7.807 -23.688  0.00  0.00    +0.000 C 
ATOM     17  C   UNL     1      33.714  -7.335 -22.861  0.00  0.00    +0.003 C 
BRANCH  13  18
ATOM     18  O   UNL     1      31.652 -10.328 -22.507  0.00  0.00    -0.505 OA
ATOM     19  H   UNL     1      31.444 -10.407 -21.597  0.00  0.00    +0.292 HD
ENDBRANCH  13  18
ENDBRANCH   7  12
BRANCH   5  20
ATOM     20  O   UNL     1      34.098 -14.147 -21.204  0.00  0.00    -0.465 OA
ATOM     21  C   UNL     1      32.883 -14.033 -20.469  0.00  0.00    +0.253 C 
ENDBRANCH   5  20
BRANCH   9  22
ATOM     22  O   UNL     1      33.971 -17.726 -24.365  0.00  0.00    -0.465 OA
ATOM     23  C   UNL     1      35.232 -18.378 -24.237  0.00  0.00    +0.253 C 
ENDBRANCH   9  22
BRANCH   6  24
ATOM     24  O   UNL     1      33.712 -15.943 -26.413  0.00  0.00    -0.503 OA
ATOM     25  H   UNL     1      33.181 -15.494 -27.043  0.00  0.00    +0.292 HD
ENDBRANCH   6  24
BRANCH  10  26
ATOM     26  O   UNL     1      34.165 -16.844 -21.763  0.00  0.00    -0.501 OA
ATOM     27  H   UNL     1      33.465 -17.438 -21.571  0.00  0.00    +0.292 HD
ENDBRANCH  10  26
TORSDOF 6
ENDMDL
MODEL 8
REMARK VINA RESULT:      -8.9      3.577      6.540
REMARK  Name = 9818878
REMARK  6 active torsions:
REMARK  status: ('A' for Active; 'I' for Inactive)
REMARK    1  A    between atoms: C_5  and  O_20
REMARK    2  A    between atoms: C_6  and  O_24
REMARK    3  A    between atoms: C_7  and  C_12
REMARK    4  A    between atoms: C_9  and  O_22
REMARK    5  A    between atoms: C_10  and  O_26
REMARK    6  A    between atoms: C_13  and  O_18
REMARK                            x       y       z     vdW  Elec       q    Type
REMARK                         _______ _______ _______ _____ _____    ______ ____
ROOT
ATOM      1  O   UNL     1      34.102 -12.159 -23.951  0.00  0.00    -0.450 OA
ATOM      2  O   UNL     1      30.835 -11.441 -21.626  0.00  0.00    -0.286 OA
ATOM      3  C   UNL     1      32.643 -10.552 -22.861  0.00  0.00    +0.113 A 
ATOM      4  C   UNL     1      33.749 -10.869 -23.649  0.00  0.00    +0.188 A 
ATOM      5  C   UNL     1      34.551  -9.851 -24.165  0.00  0.00    +0.210 A 
ATOM      6  C   UNL     1      32.331  -9.219 -22.585  0.00  0.00    +0.177 A 
ATOM      7  C   UNL     1      33.320 -13.191 -23.457  0.00  0.00    +0.151 C 
ATOM      8  C   UNL     1      31.816 -11.645 -22.328  0.00  0.00    +0.205 C 
ATOM      9  C   UNL     1      33.134  -8.203 -23.104  0.00  0.00    +0.209 A 
ATOM     10  C   UNL     1      34.242  -8.518 -23.892  0.00  0.00    +0.209 A 
ATOM     11  C   UNL     1      32.236 -13.015 -22.684  0.00  0.00    +0.080 C 
ENDROOT
BRANCH   7  12
ATOM     12  C   UNL     1      33.793 -14.538 -23.838  0.00  0.00    +0.068 C 
ATOM     13  C   UNL     1      33.487 -15.089 -25.086  0.00  0.00    +0.137 C 
ATOM     14  C   UNL     1      34.560 -15.273 -22.930  0.00  0.00    +0.006 C 
ATOM     15  C   UNL     1      33.945 -16.363 -25.423  0.00  0.00    +0.037 C 
ATOM     16  C   UNL     1      35.018 -16.546 -23.266  0.00  0.00    +0.000 C 
ATOM     17  C   UNL     1      34.711 -17.092 -24.512  0.00  0.00    +0.003 C 
BRANCH  13  18
ATOM     18  O   UNL     1      32.740 -14.398 -25.994  0.00  0.00    -0.505 OA
ATOM     19  H   UNL     1      32.140 -13.740 -25.704  0.00  0.00    +0.292 HD
ENDBRANCH  13  18
ENDBRANCH   7  12
BRANCH   5  20
ATOM     20  O   UNL     1      35.634 -10.153 -24.937  0.00  0.00    -0.465 OA
ATOM     21  C   UNL     1      35.394 -10.399 -26.320  0.00  0.00    +0.253 C 
ENDBRANCH   5  20
BRANCH   9  22
ATOM     22  O   UNL     1      32.838  -6.897 -22.840  0.00  0.00    -0.465 OA
ATOM     23  C   UNL     1      32.022  -6.216 -23.788  0.00  0.00    +0.253 C 
ENDBRANCH   9  22
BRANCH   6  24
ATOM     24  O   UNL     1      31.258  -8.873 -21.819  0.00  0.00    -0.503 OA
ATOM     25  H   UNL     1      30.744  -8.122 -22.044  0.00  0.00    +0.292 HD
ENDBRANCH   6  24
BRANCH  10  26
ATOM     26  O   UNL     1      35.023  -7.521 -24.397  0.00  0.00    -0.501 OA
ATOM     27  H   UNL     1      34.720  -7.009 -25.121  0.00  0.00    +0.292 HD
ENDBRANCH  10  26
TORSDOF 6
ENDMDL
MODEL 9
REMARK VINA RESULT:      -8.8      7.573     10.751
REMARK  Name = 9818878
REMARK  6 active torsions:
REMARK  status: ('A' for Active; 'I' for Inactive)
REMARK    1  A    between atoms: C_5  and  O_20
REMARK    2  A    between atoms: C_6  and  O_24
REMARK    3  A    between atoms: C_7  and  C_12
REMARK    4  A    between atoms: C_9  and  O_22
REMARK    5  A    between atoms: C_10  and  O_26
REMARK    6  A    between atoms: C_13  and  O_18
REMARK                            x       y       z     vdW  Elec       q    Type
REMARK                         _______ _______ _______ _____ _____    ______ ____
ROOT
ATOM      1  O   UNL     1      35.379 -23.993 -15.713  0.00  0.00    -0.450 OA
ATOM      2  O   UNL     1      32.415 -24.275 -12.932  0.00  0.00    -0.286 OA
ATOM      3  C   UNL     1      33.048 -23.648 -15.121  0.00  0.00    +0.113 A 
ATOM      4  C   UNL     1      34.109 -23.578 -16.023  0.00  0.00    +0.188 A 
ATOM      5  C   UNL     1      33.900 -23.068 -17.305  0.00  0.00    +0.210 A 
ATOM      6  C   UNL     1      31.775 -23.210 -15.492  0.00  0.00    +0.177 A 
ATOM      7  C   UNL     1      35.614 -24.511 -14.450  0.00  0.00    +0.151 C 
ATOM      8  C   UNL     1      33.296 -24.189 -13.776  0.00  0.00    +0.205 C 
ATOM      9  C   UNL     1      31.569 -22.701 -16.774  0.00  0.00    +0.209 A 
ATOM     10  C   UNL     1      32.630 -22.630 -17.679  0.00  0.00    +0.209 A 
ATOM     11  C   UNL     1      34.679 -24.625 -13.493  0.00  0.00    +0.080 C 
ENDROOT
BRANCH   7  12
ATOM     12  C   UNL     1      37.015 -24.921 -14.220  0.00  0.00    +0.068 C 
ATOM     13  C   UNL     1      37.606 -25.940 -14.974  0.00  0.00    +0.137 C 
ATOM     14  C   UNL     1      37.760 -24.276 -13.229  0.00  0.00    +0.006 C 
ATOM     15  C   UNL     1      38.930 -26.309 -14.739  0.00  0.00    +0.037 C 
ATOM     16  C   UNL     1      39.083 -24.646 -12.993  0.00  0.00    +0.000 C 
ATOM     17  C   UNL     1      39.669 -25.662 -13.748  0.00  0.00    +0.003 C 
BRANCH  13  18
ATOM     18  O   UNL     1      36.906 -26.588 -15.948  0.00  0.00    -0.505 OA
ATOM     19  H   UNL     1      36.075 -26.258 -16.227  0.00  0.00    +0.292 HD
ENDBRANCH  13  18
ENDBRANCH   7  12
BRANCH   5  20
ATOM     20  O   UNL     1      34.932 -22.996 -18.193  0.00  0.00    -0.465 OA
ATOM     21  C   UNL     1      35.747 -21.828 -18.146  0.00  0.00    +0.253 C 
ENDBRANCH   5  20
BRANCH   9  22
ATOM     22  O   UNL     1      30.329 -22.270 -17.147  0.00  0.00    -0.465 OA
ATOM     23  C   UNL     1      29.244 -23.171 -16.942  0.00  0.00    +0.253 C 
ENDBRANCH   9  22
BRANCH   6  24
ATOM     24  O   UNL     1      30.715 -23.264 -14.636  0.00  0.00    -0.503 OA
ATOM     25  H   UNL     1      29.924 -23.694 -14.896  0.00  0.00    +0.292 HD
ENDBRANCH   6  24
BRANCH  10  26
ATOM     26  O   UNL     1      32.423 -22.132 -18.931  0.00  0.00    -0.501 OA
ATOM     27  H   UNL     1      31.833 -22.565 -19.517  0.00  0.00    +0.292 HD
ENDBRANCH  10  26
TORSDOF 6
ENDMDL
