MODEL 1
REMARK VINA RESULT:      -8.7      0.000      0.000
REMARK  Name = 9548634
REMARK  14 active torsions:
REMARK  status: ('A' for Active; 'I' for Inactive)
REMARK    1  A    between atoms: S_1  and  C_7
REMARK    2  A    between atoms: S_1  and  C_18
REMARK    3  A    between atoms: C_3  and  O_8
REMARK    4  A    between atoms: C_4  and  O_10
REMARK    5  A    between atoms: C_5  and  O_12
REMARK    6  A    between atoms: C_6  and  C_14
REMARK    7  A    between atoms: C_14  and  O_15
REMARK    8  A    between atoms: N_17  and  O_19
REMARK    9  A    between atoms: C_18  and  C_24
REMARK   10  A    between atoms: O_19  and  S_20
REMARK   11  A    between atoms: C_24  and  C_25
REMARK   12  A    between atoms: C_25  and  C_26
REMARK   13  A    between atoms: C_26  and  C_27
REMARK   14  A    between atoms: C_27  and  S_28
REMARK                            x       y       z     vdW  Elec       q    Type
REMARK                         _______ _______ _______ _____ _____    ______ ____
ROOT
ATOM      1  S   UNL     1      35.281 -23.176 -16.192  0.00  0.00    -0.065 S 
ENDROOT
BRANCH   1   7
ATOM      2  O   UNL     1      36.433 -23.327 -13.785  0.00  0.00    -0.340 OA
ATOM      3  C   UNL     1      37.093 -26.118 -13.890  0.00  0.00    +0.170 C 
ATOM      4  C   UNL     1      37.692 -25.175 -12.846  0.00  0.00    +0.169 C 
ATOM      5  C   UNL     1      36.607 -25.352 -15.123  0.00  0.00    +0.178 C 
ATOM      6  C   UNL     1      36.743 -24.007 -12.567  0.00  0.00    +0.175 C 
ATOM      7  C   UNL     1      35.739 -24.157 -14.717  0.00  0.00    +0.197 C 
BRANCH   3   8
ATOM      8  O   UNL     1      38.089 -27.051 -14.316  0.00  0.00    -0.379 OA
ATOM      9  H   UNL     1      37.660 -27.857 -14.639  0.00  0.00    +0.211 HD
ENDBRANCH   3   8
BRANCH   4  10
ATOM     10  O   UNL     1      37.918 -25.888 -11.632  0.00  0.00    -0.379 OA
ATOM     11  H   UNL     1      37.082 -25.971 -11.146  0.00  0.00    +0.211 HD
ENDBRANCH   4  10
BRANCH   5  12
ATOM     12  O   UNL     1      35.843 -26.243 -15.936  0.00  0.00    -0.379 OA
ATOM     13  H   UNL     1      35.849 -25.927 -16.854  0.00  0.00    +0.211 HD
ENDBRANCH   5  12
BRANCH   6  14
ATOM     14  C   UNL     1      37.367 -22.987 -11.620  0.00  0.00    +0.169 C 
BRANCH  14  15
ATOM     15  O   UNL     1      38.775 -23.133 -11.666  0.00  0.00    -0.379 OA
ATOM     16  H   UNL     1      39.006 -24.072 -11.590  0.00  0.00    +0.211 HD
ENDBRANCH  14  15
ENDBRANCH   6  14
ENDBRANCH   1   7
BRANCH   1  18
ATOM     17  N   UNL     1      32.949 -23.273 -14.917  0.00  0.00    -0.048 NA
ATOM     18  C   UNL     1      33.518 -23.176 -16.078  0.00  0.00    +0.127 C 
BRANCH  17  19
ATOM     19  O   UNL     1      31.557 -23.249 -15.025  0.00  0.00    -0.205 OA
BRANCH  19  20
ATOM     20  S   UNL     1      30.859 -24.282 -13.972  0.00  0.00    +0.302 S 
ATOM     21  O   UNL     1      31.914 -25.524 -13.935  0.00  0.00    -0.011 OA
ATOM     22  O   UNL     1      29.627 -24.771 -14.562  0.00  0.00    -0.103 OA
ATOM     23  O   UNL     1      30.858 -23.666 -12.658  0.00  0.00    -0.103 OA
ENDBRANCH  19  20
ENDBRANCH  17  19
BRANCH  18  24
ATOM     24  C   UNL     1      32.803 -23.063 -17.414  0.00  0.00    +0.056 C 
BRANCH  24  25
ATOM     25  C   UNL     1      33.773 -22.945 -18.593  0.00  0.00    +0.008 C 
BRANCH  25  26
ATOM     26  C   UNL     1      33.653 -21.615 -19.341  0.00  0.00    +0.015 C 
BRANCH  26  27
ATOM     27  C   UNL     1      35.017 -21.124 -19.808  0.00  0.00    +0.092 C 
BRANCH  27  28
ATOM     28  S   UNL     1      34.830 -19.853 -21.098  0.00  0.00    +0.043 S 
ATOM     29  O   UNL     1      35.518 -18.620 -20.605  0.00  0.00    -0.256 OA
ATOM     30  C   UNL     1      33.052 -19.625 -20.856  0.00  0.00    +0.106 C 
ENDBRANCH  27  28
ENDBRANCH  26  27
ENDBRANCH  25  26
ENDBRANCH  24  25
ENDBRANCH  18  24
ENDBRANCH   1  18
TORSDOF 14
ENDMDL
MODEL 2
REMARK VINA RESULT:      -8.5      2.982      5.109
REMARK  Name = 9548634
REMARK  14 active torsions:
REMARK  status: ('A' for Active; 'I' for Inactive)
REMARK    1  A    between atoms: S_1  and  C_7
REMARK    2  A    between atoms: S_1  and  C_18
REMARK    3  A    between atoms: C_3  and  O_8
REMARK    4  A    between atoms: C_4  and  O_10
REMARK    5  A    between atoms: C_5  and  O_12
REMARK    6  A    between atoms: C_6  and  C_14
REMARK    7  A    between atoms: C_14  and  O_15
REMARK    8  A    between atoms: N_17  and  O_19
REMARK    9  A    between atoms: C_18  and  C_24
REMARK   10  A    between atoms: O_19  and  S_20
REMARK   11  A    between atoms: C_24  and  C_25
REMARK   12  A    between atoms: C_25  and  C_26
REMARK   13  A    between atoms: C_26  and  C_27
REMARK   14  A    between atoms: C_27  and  S_28
REMARK                            x       y       z     vdW  Elec       q    Type
REMARK                         _______ _______ _______ _____ _____    ______ ____
ROOT
ATOM      1  S   UNL     1      34.162 -25.087 -14.671  0.00  0.00    -0.065 S 
ENDROOT
BRANCH   1   7
ATOM      2  O   UNL     1      36.790 -24.892 -14.227  0.00  0.00    -0.340 OA
ATOM      3  C   UNL     1      36.616 -23.612 -11.664  0.00  0.00    +0.170 C 
ATOM      4  C   UNL     1      37.914 -24.234 -12.180  0.00  0.00    +0.169 C 
ATOM      5  C   UNL     1      35.391 -24.220 -12.353  0.00  0.00    +0.178 C 
ATOM      6  C   UNL     1      37.944 -24.226 -13.711  0.00  0.00    +0.175 C 
ATOM      7  C   UNL     1      35.572 -24.236 -13.874  0.00  0.00    +0.197 C 
BRANCH   3   8
ATOM      8  O   UNL     1      36.497 -23.857 -10.260  0.00  0.00    -0.379 OA
ATOM      9  H   UNL     1      36.978 -24.666 -10.031  0.00  0.00    +0.211 HD
ENDBRANCH   3   8
BRANCH   4  10
ATOM     10  O   UNL     1      39.027 -23.491 -11.691  0.00  0.00    -0.379 OA
ATOM     11  H   UNL     1      38.939 -23.369 -10.732  0.00  0.00    +0.211 HD
ENDBRANCH   4  10
BRANCH   5  12
ATOM     12  O   UNL     1      34.247 -23.434 -12.017  0.00  0.00    -0.379 OA
ATOM     13  H   UNL     1      34.525 -22.674 -11.482  0.00  0.00    +0.211 HD
ENDBRANCH   5  12
BRANCH   6  14
ATOM     14  C   UNL     1      39.172 -24.948 -14.255  0.00  0.00    +0.169 C 
BRANCH  14  15
ATOM     15  O   UNL     1      39.464 -26.042 -13.404  0.00  0.00    -0.379 OA
ATOM     16  H   UNL     1      38.704 -26.645 -13.381  0.00  0.00    +0.211 HD
ENDBRANCH  14  15
ENDBRANCH   6  14
ENDBRANCH   1   7
BRANCH   1  18
ATOM     17  N   UNL     1      34.215 -23.567 -16.853  0.00  0.00    -0.048 NA
ATOM     18  C   UNL     1      33.566 -23.831 -15.762  0.00  0.00    +0.127 C 
BRANCH  17  19
ATOM     19  O   UNL     1      33.593 -22.555 -17.586  0.00  0.00    -0.205 OA
BRANCH  19  20
ATOM     20  S   UNL     1      34.045 -22.590 -19.155  0.00  0.00    +0.302 S 
ATOM     21  O   UNL     1      33.917 -24.171 -19.529  0.00  0.00    -0.011 OA
ATOM     22  O   UNL     1      35.448 -22.233 -19.234  0.00  0.00    -0.103 OA
ATOM     23  O   UNL     1      33.052 -21.872 -19.933  0.00  0.00    -0.103 OA
ENDBRANCH  19  20
ENDBRANCH  17  19
BRANCH  18  24
ATOM     24  C   UNL     1      32.295 -23.144 -15.293  0.00  0.00    +0.056 C 
BRANCH  24  25
ATOM     25  C   UNL     1      31.305 -24.116 -14.645  0.00  0.00    +0.008 C 
BRANCH  25  26
ATOM     26  C   UNL     1      29.877 -23.569 -14.583  0.00  0.00    +0.015 C 
BRANCH  26  27
ATOM     27  C   UNL     1      28.953 -24.336 -15.520  0.00  0.00    +0.092 C 
BRANCH  27  28
ATOM     28  S   UNL     1      28.306 -23.237 -16.818  0.00  0.00    +0.043 S 
ATOM     29  O   UNL     1      29.421 -22.321 -17.215  0.00  0.00    -0.256 OA
ATOM     30  C   UNL     1      27.199 -22.314 -15.725  0.00  0.00    +0.106 C 
ENDBRANCH  27  28
ENDBRANCH  26  27
ENDBRANCH  25  26
ENDBRANCH  24  25
ENDBRANCH  18  24
ENDBRANCH   1  18
TORSDOF 14
ENDMDL
MODEL 3
REMARK VINA RESULT:      -8.0      2.544      6.030
REMARK  Name = 9548634
REMARK  14 active torsions:
REMARK  status: ('A' for Active; 'I' for Inactive)
REMARK    1  A    between atoms: S_1  and  C_7
REMARK    2  A    between atoms: S_1  and  C_18
REMARK    3  A    between atoms: C_3  and  O_8
REMARK    4  A    between atoms: C_4  and  O_10
REMARK    5  A    between atoms: C_5  and  O_12
REMARK    6  A    between atoms: C_6  and  C_14
REMARK    7  A    between atoms: C_14  and  O_15
REMARK    8  A    between atoms: N_17  and  O_19
REMARK    9  A    between atoms: C_18  and  C_24
REMARK   10  A    between atoms: O_19  and  S_20
REMARK   11  A    between atoms: C_24  and  C_25
REMARK   12  A    between atoms: C_25  and  C_26
REMARK   13  A    between atoms: C_26  and  C_27
REMARK   14  A    between atoms: C_27  and  S_28
REMARK                            x       y       z     vdW  Elec       q    Type
REMARK                         _______ _______ _______ _____ _____    ______ ____
ROOT
ATOM      1  S   UNL     1      34.372 -22.625 -14.740  0.00  0.00    -0.065 S 
ENDROOT
BRANCH   1   7
ATOM      2  O   UNL     1      31.880 -22.910 -15.663  0.00  0.00    -0.340 OA
ATOM      3  C   UNL     1      31.006 -24.832 -13.719  0.00  0.00    +0.170 C 
ATOM      4  C   UNL     1      30.028 -24.083 -14.625  0.00  0.00    +0.169 C 
ATOM      5  C   UNL     1      32.327 -24.072 -13.573  0.00  0.00    +0.178 C 
ATOM      6  C   UNL     1      30.708 -23.680 -15.936  0.00  0.00    +0.175 C 
ATOM      7  C   UNL     1      32.867 -23.647 -14.942  0.00  0.00    +0.197 C 
BRANCH   3   8
ATOM      8  O   UNL     1      30.434 -24.974 -12.417  0.00  0.00    -0.379 OA
ATOM      9  H   UNL     1      30.338 -25.916 -12.207  0.00  0.00    +0.211 HD
ENDBRANCH   3   8
BRANCH   4  10
ATOM     10  O   UNL     1      28.913 -24.920 -14.920  0.00  0.00    -0.379 OA
ATOM     11  H   UNL     1      28.109 -24.536 -14.537  0.00  0.00    +0.211 HD
ENDBRANCH   4  10
BRANCH   5  12
ATOM     12  O   UNL     1      33.272 -24.929 -12.932  0.00  0.00    -0.379 OA
ATOM     13  H   UNL     1      32.821 -25.728 -12.616  0.00  0.00    +0.211 HD
ENDBRANCH   5  12
BRANCH   6  14
ATOM     14  C   UNL     1      29.792 -22.827 -16.807  0.00  0.00    +0.169 C 
BRANCH  14  15
ATOM     15  O   UNL     1      28.877 -22.147 -15.968  0.00  0.00    -0.379 OA
ATOM     16  H   UNL     1      28.179 -22.759 -15.687  0.00  0.00    +0.211 HD
ENDBRANCH  14  15
ENDBRANCH   6  14
ENDBRANCH   1   7
BRANCH   1  18
ATOM     17  N   UNL     1      35.622 -24.968 -14.880  0.00  0.00    -0.048 NA
ATOM     18  C   UNL     1      35.628 -23.739 -15.292  0.00  0.00    +0.127 C 
BRANCH  17  19
ATOM     19  O   UNL     1      36.682 -25.696 -15.425  0.00  0.00    -0.205 OA
BRANCH  19  20
ATOM     20  S   UNL     1      37.761 -26.129 -14.280  0.00  0.00    +0.302 S 
ATOM     21  O   UNL     1      36.807 -26.490 -13.008  0.00  0.00    -0.011 OA
ATOM     22  O   UNL     1      38.542 -24.960 -13.924  0.00  0.00    -0.103 OA
ATOM     23  O   UNL     1      38.411 -27.355 -14.704  0.00  0.00    -0.103 OA
ENDBRANCH  19  20
ENDBRANCH  17  19
BRANCH  18  24
ATOM     24  C   UNL     1      36.644 -23.120 -16.236  0.00  0.00    +0.056 C 
BRANCH  24  25
ATOM     25  C   UNL     1      36.089 -21.906 -16.986  0.00  0.00    +0.008 C 
BRANCH  25  26
ATOM     26  C   UNL     1      36.785 -21.656 -18.327  0.00  0.00    +0.015 C 
BRANCH  26  27
ATOM     27  C   UNL     1      35.785 -21.666 -19.476  0.00  0.00    +0.092 C 
BRANCH  27  28
ATOM     28  S   UNL     1      34.151 -22.217 -18.894  0.00  0.00    +0.043 S 
ATOM     29  O   UNL     1      33.897 -23.561 -19.501  0.00  0.00    -0.256 OA
ATOM     30  C   UNL     1      33.211 -20.998 -19.845  0.00  0.00    +0.106 C 
ENDBRANCH  27  28
ENDBRANCH  26  27
ENDBRANCH  25  26
ENDBRANCH  24  25
ENDBRANCH  18  24
ENDBRANCH   1  18
TORSDOF 14
ENDMDL
MODEL 4
REMARK VINA RESULT:      -7.7      2.631      5.251
REMARK  Name = 9548634
REMARK  14 active torsions:
REMARK  status: ('A' for Active; 'I' for Inactive)
REMARK    1  A    between atoms: S_1  and  C_7
REMARK    2  A    between atoms: S_1  and  C_18
REMARK    3  A    between atoms: C_3  and  O_8
REMARK    4  A    between atoms: C_4  and  O_10
REMARK    5  A    between atoms: C_5  and  O_12
REMARK    6  A    between atoms: C_6  and  C_14
REMARK    7  A    between atoms: C_14  and  O_15
REMARK    8  A    between atoms: N_17  and  O_19
REMARK    9  A    between atoms: C_18  and  C_24
REMARK   10  A    between atoms: O_19  and  S_20
REMARK   11  A    between atoms: C_24  and  C_25
REMARK   12  A    between atoms: C_25  and  C_26
REMARK   13  A    between atoms: C_26  and  C_27
REMARK   14  A    between atoms: C_27  and  S_28
REMARK                            x       y       z     vdW  Elec       q    Type
REMARK                         _______ _______ _______ _____ _____    ______ ____
ROOT
ATOM      1  S   UNL     1      33.166 -22.879 -18.001  0.00  0.00    -0.065 S 
ENDROOT
BRANCH   1   7
ATOM      2  O   UNL     1      33.172 -23.688 -15.454  0.00  0.00    -0.340 OA
ATOM      3  C   UNL     1      30.358 -23.374 -14.984  0.00  0.00    +0.170 C 
ATOM      4  C   UNL     1      31.263 -24.158 -14.033  0.00  0.00    +0.169 C 
ATOM      5  C   UNL     1      30.961 -23.290 -16.389  0.00  0.00    +0.178 C 
ATOM      6  C   UNL     1      32.701 -23.639 -14.106  0.00  0.00    +0.175 C 
ATOM      7  C   UNL     1      32.425 -22.842 -16.329  0.00  0.00    +0.197 C 
BRANCH   3   8
ATOM      8  O   UNL     1      29.092 -24.031 -15.086  0.00  0.00    -0.379 OA
ATOM      9  H   UNL     1      29.000 -24.670 -14.363  0.00  0.00    +0.211 HD
ENDBRANCH   3   8
BRANCH   4  10
ATOM     10  O   UNL     1      30.787 -24.019 -12.697  0.00  0.00    -0.379 OA
ATOM     11  H   UNL     1      30.088 -24.671 -12.533  0.00  0.00    +0.211 HD
ENDBRANCH   4  10
BRANCH   5  12
ATOM     12  O   UNL     1      30.204 -22.347 -17.149  0.00  0.00    -0.379 OA
ATOM     13  H   UNL     1      29.788 -22.799 -17.900  0.00  0.00    +0.211 HD
ENDBRANCH   5  12
BRANCH   6  14
ATOM     14  C   UNL     1      33.649 -24.481 -13.259  0.00  0.00    +0.169 C 
BRANCH  14  15
ATOM     15  O   UNL     1      34.328 -23.626 -12.358  0.00  0.00    -0.379 OA
ATOM     16  H   UNL     1      35.277 -23.829 -12.372  0.00  0.00    +0.211 HD
ENDBRANCH  14  15
ENDBRANCH   6  14
ENDBRANCH   1   7
BRANCH   1  18
ATOM     17  N   UNL     1      35.372 -23.185 -16.548  0.00  0.00    -0.048 NA
ATOM     18  C   UNL     1      34.880 -22.663 -17.628  0.00  0.00    +0.127 C 
BRANCH  17  19
ATOM     19  O   UNL     1      36.737 -22.916 -16.427  0.00  0.00    -0.205 OA
BRANCH  19  20
ATOM     20  S   UNL     1      37.393 -23.712 -15.161  0.00  0.00    +0.302 S 
ATOM     21  O   UNL     1      36.817 -25.225 -15.354  0.00  0.00    -0.011 OA
ATOM     22  O   UNL     1      36.821 -23.178 -13.940  0.00  0.00    -0.103 OA
ATOM     23  O   UNL     1      38.831 -23.761 -15.347  0.00  0.00    -0.103 OA
ENDBRANCH  19  20
ENDBRANCH  17  19
BRANCH  18  24
ATOM     24  C   UNL     1      35.647 -21.846 -18.653  0.00  0.00    +0.056 C 
BRANCH  24  25
ATOM     25  C   UNL     1      34.737 -21.245 -19.729  0.00  0.00    +0.008 C 
BRANCH  25  26
ATOM     26  C   UNL     1      35.443 -20.206 -20.604  0.00  0.00    +0.015 C 
BRANCH  26  27
ATOM     27  C   UNL     1      34.438 -19.283 -21.279  0.00  0.00    +0.092 C 
BRANCH  27  28
ATOM     28  S   UNL     1      35.282 -18.158 -22.435  0.00  0.00    +0.043 S 
ATOM     29  O   UNL     1      34.549 -16.854 -22.395  0.00  0.00    -0.256 OA
ATOM     30  C   UNL     1      34.764 -19.033 -23.932  0.00  0.00    +0.106 C 
ENDBRANCH  27  28
ENDBRANCH  26  27
ENDBRANCH  25  26
ENDBRANCH  24  25
ENDBRANCH  18  24
ENDBRANCH   1  18
TORSDOF 14
ENDMDL
MODEL 5
REMARK VINA RESULT:      -7.6      2.969      5.010
REMARK  Name = 9548634
REMARK  14 active torsions:
REMARK  status: ('A' for Active; 'I' for Inactive)
REMARK    1  A    between atoms: S_1  and  C_7
REMARK    2  A    between atoms: S_1  and  C_18
REMARK    3  A    between atoms: C_3  and  O_8
REMARK    4  A    between atoms: C_4  and  O_10
REMARK    5  A    between atoms: C_5  and  O_12
REMARK    6  A    between atoms: C_6  and  C_14
REMARK    7  A    between atoms: C_14  and  O_15
REMARK    8  A    between atoms: N_17  and  O_19
REMARK    9  A    between atoms: C_18  and  C_24
REMARK   10  A    between atoms: O_19  and  S_20
REMARK   11  A    between atoms: C_24  and  C_25
REMARK   12  A    between atoms: C_25  and  C_26
REMARK   13  A    between atoms: C_26  and  C_27
REMARK   14  A    between atoms: C_27  and  S_28
REMARK                            x       y       z     vdW  Elec       q    Type
REMARK                         _______ _______ _______ _____ _____    ______ ____
ROOT
ATOM      1  S   UNL     1      37.249 -22.101 -15.280  0.00  0.00    -0.065 S 
ENDROOT
BRANCH   1   7
ATOM      2  O   UNL     1      37.096 -24.700 -14.675  0.00  0.00    -0.340 OA
ATOM      3  C   UNL     1      37.340 -24.410 -11.829  0.00  0.00    +0.170 C 
ATOM      4  C   UNL     1      36.873 -25.712 -12.481  0.00  0.00    +0.169 C 
ATOM      5  C   UNL     1      37.112 -23.209 -12.752  0.00  0.00    +0.178 C 
ATOM      6  C   UNL     1      37.447 -25.844 -13.894  0.00  0.00    +0.175 C 
ATOM      7  C   UNL     1      37.651 -23.490 -14.158  0.00  0.00    +0.197 C 
BRANCH   3   8
ATOM      8  O   UNL     1      36.601 -24.188 -10.627  0.00  0.00    -0.379 OA
ATOM      9  H   UNL     1      37.208 -23.931  -9.916  0.00  0.00    +0.211 HD
ENDBRANCH   3   8
BRANCH   4  10
ATOM     10  O   UNL     1      37.309 -26.821 -11.699  0.00  0.00    -0.379 OA
ATOM     11  H   UNL     1      36.746 -26.903 -10.913  0.00  0.00    +0.211 HD
ENDBRANCH   4  10
BRANCH   5  12
ATOM     12  O   UNL     1      37.788 -22.080 -12.198  0.00  0.00    -0.379 OA
ATOM     13  H   UNL     1      38.735 -22.140 -12.402  0.00  0.00    +0.211 HD
ENDBRANCH   5  12
BRANCH   6  14
ATOM     14  C   UNL     1      36.901 -27.074 -14.612  0.00  0.00    +0.169 C 
BRANCH  14  15
ATOM     15  O   UNL     1      37.172 -26.945 -15.996  0.00  0.00    -0.379 OA
ATOM     16  H   UNL     1      36.356 -27.091 -16.500  0.00  0.00    +0.211 HD
ENDBRANCH  14  15
ENDBRANCH   6  14
ENDBRANCH   1   7
BRANCH   1  18
ATOM     17  N   UNL     1      35.550 -22.867 -17.176  0.00  0.00    -0.048 NA
ATOM     18  C   UNL     1      35.678 -22.607 -15.913  0.00  0.00    +0.127 C 
BRANCH  17  19
ATOM     19  O   UNL     1      34.245 -23.256 -17.488  0.00  0.00    -0.205 OA
BRANCH  19  20
ATOM     20  S   UNL     1      33.845 -22.834 -19.014  0.00  0.00    +0.302 S 
ATOM     21  O   UNL     1      35.070 -21.849 -19.446  0.00  0.00    -0.011 OA
ATOM     22  O   UNL     1      32.636 -22.035 -18.964  0.00  0.00    -0.103 OA
ATOM     23  O   UNL     1      33.917 -24.018 -19.850  0.00  0.00    -0.103 OA
ENDBRANCH  19  20
ENDBRANCH  17  19
BRANCH  18  24
ATOM     24  C   UNL     1      34.578 -22.687 -14.870  0.00  0.00    +0.056 C 
BRANCH  24  25
ATOM     25  C   UNL     1      33.980 -24.092 -14.750  0.00  0.00    +0.008 C 
BRANCH  25  26
ATOM     26  C   UNL     1      32.500 -24.086 -14.359  0.00  0.00    +0.015 C 
BRANCH  26  27
ATOM     27  C   UNL     1      31.764 -22.922 -15.010  0.00  0.00    +0.092 C 
BRANCH  27  28
ATOM     28  S   UNL     1      30.617 -23.527 -16.287  0.00  0.00    +0.043 S 
ATOM     29  O   UNL     1      29.968 -22.326 -16.900  0.00  0.00    -0.256 OA
ATOM     30  C   UNL     1      29.437 -24.255 -15.125  0.00  0.00    +0.106 C 
ENDBRANCH  27  28
ENDBRANCH  26  27
ENDBRANCH  25  26
ENDBRANCH  24  25
ENDBRANCH  18  24
ENDBRANCH   1  18
TORSDOF 14
ENDMDL
MODEL 6
REMARK VINA RESULT:      -7.5      1.844      2.371
REMARK  Name = 9548634
REMARK  14 active torsions:
REMARK  status: ('A' for Active; 'I' for Inactive)
REMARK    1  A    between atoms: S_1  and  C_7
REMARK    2  A    between atoms: S_1  and  C_18
REMARK    3  A    between atoms: C_3  and  O_8
REMARK    4  A    between atoms: C_4  and  O_10
REMARK    5  A    between atoms: C_5  and  O_12
REMARK    6  A    between atoms: C_6  and  C_14
REMARK    7  A    between atoms: C_14  and  O_15
REMARK    8  A    between atoms: N_17  and  O_19
REMARK    9  A    between atoms: C_18  and  C_24
REMARK   10  A    between atoms: O_19  and  S_20
REMARK   11  A    between atoms: C_24  and  C_25
REMARK   12  A    between atoms: C_25  and  C_26
REMARK   13  A    between atoms: C_26  and  C_27
REMARK   14  A    between atoms: C_27  and  S_28
REMARK                            x       y       z     vdW  Elec       q    Type
REMARK                         _______ _______ _______ _____ _____    ______ ____
ROOT
ATOM      1  S   UNL     1      36.050 -22.334 -16.589  0.00  0.00    -0.065 S 
ENDROOT
BRANCH   1   7
ATOM      2  O   UNL     1      35.431 -23.613 -14.325  0.00  0.00    -0.340 OA
ATOM      3  C   UNL     1      38.051 -24.652 -13.784  0.00  0.00    +0.170 C 
ATOM      4  C   UNL     1      36.941 -24.646 -12.733  0.00  0.00    +0.169 C 
ATOM      5  C   UNL     1      37.803 -23.596 -14.866  0.00  0.00    +0.178 C 
ATOM      6  C   UNL     1      35.565 -24.694 -13.401  0.00  0.00    +0.175 C 
ATOM      7  C   UNL     1      36.369 -23.687 -15.399  0.00  0.00    +0.197 C 
BRANCH   3   8
ATOM      8  O   UNL     1      39.301 -24.355 -13.158  0.00  0.00    -0.379 OA
ATOM      9  H   UNL     1      39.415 -23.394 -13.104  0.00  0.00    +0.211 HD
ENDBRANCH   3   8
BRANCH   4  10
ATOM     10  O   UNL     1      37.083 -25.781 -11.882  0.00  0.00    -0.379 OA
ATOM     11  H   UNL     1      37.429 -26.528 -12.396  0.00  0.00    +0.211 HD
ENDBRANCH   4  10
BRANCH   5  12
ATOM     12  O   UNL     1      38.724 -23.820 -15.934  0.00  0.00    -0.379 OA
ATOM     13  H   UNL     1      38.993 -22.968 -16.311  0.00  0.00    +0.211 HD
ENDBRANCH   5  12
BRANCH   6  14
ATOM     14  C   UNL     1      34.438 -24.568 -12.381  0.00  0.00    +0.169 C 
BRANCH  14  15
ATOM     15  O   UNL     1      34.948 -23.930 -11.224  0.00  0.00    -0.379 OA
ATOM     16  H   UNL     1      35.782 -24.351 -10.964  0.00  0.00    +0.211 HD
ENDBRANCH  14  15
ENDBRANCH   6  14
ENDBRANCH   1   7
BRANCH   1  18
ATOM     17  N   UNL     1      33.531 -23.167 -16.417  0.00  0.00    -0.048 NA
ATOM     18  C   UNL     1      34.471 -22.799 -17.230  0.00  0.00    +0.127 C 
BRANCH  17  19
ATOM     19  O   UNL     1      32.358 -23.489 -17.103  0.00  0.00    -0.205 OA
BRANCH  19  20
ATOM     20  S   UNL     1      31.032 -23.103 -16.233  0.00  0.00    +0.302 S 
ATOM     21  O   UNL     1      30.346 -24.556 -15.959  0.00  0.00    -0.011 OA
ATOM     22  O   UNL     1      30.133 -22.347 -17.084  0.00  0.00    -0.103 OA
ATOM     23  O   UNL     1      31.463 -22.571 -14.953  0.00  0.00    -0.103 OA
ENDBRANCH  19  20
ENDBRANCH  17  19
BRANCH  18  24
ATOM     24  C   UNL     1      34.361 -22.723 -18.743  0.00  0.00    +0.056 C 
BRANCH  24  25
ATOM     25  C   UNL     1      33.659 -21.449 -19.221  0.00  0.00    +0.008 C 
BRANCH  25  26
ATOM     26  C   UNL     1      34.483 -20.650 -20.234  0.00  0.00    +0.015 C 
BRANCH  26  27
ATOM     27  C   UNL     1      33.598 -19.711 -21.043  0.00  0.00    +0.092 C 
BRANCH  27  28
ATOM     28  S   UNL     1      34.601 -18.414 -21.834  0.00  0.00    +0.043 S 
ATOM     29  O   UNL     1      34.681 -18.746 -23.291  0.00  0.00    -0.256 OA
ATOM     30  C   UNL     1      36.162 -18.915 -21.070  0.00  0.00    +0.106 C 
ENDBRANCH  27  28
ENDBRANCH  26  27
ENDBRANCH  25  26
ENDBRANCH  24  25
ENDBRANCH  18  24
ENDBRANCH   1  18
TORSDOF 14
ENDMDL
MODEL 7
REMARK VINA RESULT:      -7.5      1.221      2.555
REMARK  Name = 9548634
REMARK  14 active torsions:
REMARK  status: ('A' for Active; 'I' for Inactive)
REMARK    1  A    between atoms: S_1  and  C_7
REMARK    2  A    between atoms: S_1  and  C_18
REMARK    3  A    between atoms: C_3  and  O_8
REMARK    4  A    between atoms: C_4  and  O_10
REMARK    5  A    between atoms: C_5  and  O_12
REMARK    6  A    between atoms: C_6  and  C_14
REMARK    7  A    between atoms: C_14  and  O_15
REMARK    8  A    between atoms: N_17  and  O_19
REMARK    9  A    between atoms: C_18  and  C_24
REMARK   10  A    between atoms: O_19  and  S_20
REMARK   11  A    between atoms: C_24  and  C_25
REMARK   12  A    between atoms: C_25  and  C_26
REMARK   13  A    between atoms: C_26  and  C_27
REMARK   14  A    between atoms: C_27  and  S_28
REMARK                            x       y       z     vdW  Elec       q    Type
REMARK                         _______ _______ _______ _____ _____    ______ ____
ROOT
ATOM      1  S   UNL     1      36.287 -22.408 -15.976  0.00  0.00    -0.065 S 
ENDROOT
BRANCH   1   7
ATOM      2  O   UNL     1      36.681 -24.933 -15.191  0.00  0.00    -0.340 OA
ATOM      3  C   UNL     1      37.564 -24.334 -12.527  0.00  0.00    +0.170 C 
ATOM      4  C   UNL     1      37.155 -25.744 -12.955  0.00  0.00    +0.169 C 
ATOM      5  C   UNL     1      36.939 -23.270 -13.434  0.00  0.00    +0.178 C 
ATOM      6  C   UNL     1      37.381 -25.939 -14.457  0.00  0.00    +0.175 C 
ATOM      7  C   UNL     1      37.155 -23.616 -14.910  0.00  0.00    +0.197 C 
BRANCH   3   8
ATOM      8  O   UNL     1      37.115 -24.094 -11.191  0.00  0.00    -0.379 OA
ATOM      9  H   UNL     1      37.259 -24.887 -10.654  0.00  0.00    +0.211 HD
ENDBRANCH   3   8
BRANCH   4  10
ATOM     10  O   UNL     1      37.930 -26.704 -12.242  0.00  0.00    -0.379 OA
ATOM     11  H   UNL     1      38.450 -27.231 -12.870  0.00  0.00    +0.211 HD
ENDBRANCH   4  10
BRANCH   5  12
ATOM     12  O   UNL     1      37.551 -22.014 -13.143  0.00  0.00    -0.379 OA
ATOM     13  H   UNL     1      38.199 -21.803 -13.833  0.00  0.00    +0.211 HD
ENDBRANCH   5  12
BRANCH   6  14
ATOM     14  C   UNL     1      36.868 -27.293 -14.933  0.00  0.00    +0.169 C 
BRANCH  14  15
ATOM     15  O   UNL     1      36.867 -27.302 -16.349  0.00  0.00    -0.379 OA
ATOM     16  H   UNL     1      37.762 -27.493 -16.672  0.00  0.00    +0.211 HD
ENDBRANCH  14  15
ENDBRANCH   6  14
ENDBRANCH   1   7
BRANCH   1  18
ATOM     17  N   UNL     1      33.972 -23.140 -14.891  0.00  0.00    -0.048 NA
ATOM     18  C   UNL     1      34.649 -23.072 -15.994  0.00  0.00    +0.127 C 
BRANCH  17  19
ATOM     19  O   UNL     1      32.704 -23.684 -15.101  0.00  0.00    -0.205 OA
BRANCH  19  20
ATOM     20  S   UNL     1      32.083 -24.304 -13.725  0.00  0.00    +0.302 S 
ATOM     21  O   UNL     1      33.418 -24.701 -12.877  0.00  0.00    -0.011 OA
ATOM     22  O   UNL     1      31.390 -25.536 -14.051  0.00  0.00    -0.103 OA
ATOM     23  O   UNL     1      31.406 -23.240 -13.007  0.00  0.00    -0.103 OA
ENDBRANCH  19  20
ENDBRANCH  17  19
BRANCH  18  24
ATOM     24  C   UNL     1      34.171 -23.527 -17.362  0.00  0.00    +0.056 C 
BRANCH  24  25
ATOM     25  C   UNL     1      33.375 -22.445 -18.097  0.00  0.00    +0.008 C 
BRANCH  25  26
ATOM     26  C   UNL     1      33.891 -22.174 -19.513  0.00  0.00    +0.015 C 
BRANCH  26  27
ATOM     27  C   UNL     1      35.189 -21.378 -19.482  0.00  0.00    +0.092 C 
BRANCH  27  28
ATOM     28  S   UNL     1      35.242 -20.191 -20.860  0.00  0.00    +0.043 S 
ATOM     29  O   UNL     1      36.041 -19.013 -20.396  0.00  0.00    -0.256 OA
ATOM     30  C   UNL     1      33.493 -19.739 -20.764  0.00  0.00    +0.106 C 
ENDBRANCH  27  28
ENDBRANCH  26  27
ENDBRANCH  25  26
ENDBRANCH  24  25
ENDBRANCH  18  24
ENDBRANCH   1  18
TORSDOF 14
ENDMDL
MODEL 8
REMARK VINA RESULT:      -7.4      2.911      5.605
REMARK  Name = 9548634
REMARK  14 active torsions:
REMARK  status: ('A' for Active; 'I' for Inactive)
REMARK    1  A    between atoms: S_1  and  C_7
REMARK    2  A    between atoms: S_1  and  C_18
REMARK    3  A    between atoms: C_3  and  O_8
REMARK    4  A    between atoms: C_4  and  O_10
REMARK    5  A    between atoms: C_5  and  O_12
REMARK    6  A    between atoms: C_6  and  C_14
REMARK    7  A    between atoms: C_14  and  O_15
REMARK    8  A    between atoms: N_17  and  O_19
REMARK    9  A    between atoms: C_18  and  C_24
REMARK   10  A    between atoms: O_19  and  S_20
REMARK   11  A    between atoms: C_24  and  C_25
REMARK   12  A    between atoms: C_25  and  C_26
REMARK   13  A    between atoms: C_26  and  C_27
REMARK   14  A    between atoms: C_27  and  S_28
REMARK                            x       y       z     vdW  Elec       q    Type
REMARK                         _______ _______ _______ _____ _____    ______ ____
ROOT
ATOM      1  S   UNL     1      33.065 -22.917 -17.382  0.00  0.00    -0.065 S 
ENDROOT
BRANCH   1   7
ATOM      2  O   UNL     1      31.007 -23.963 -16.034  0.00  0.00    -0.340 OA
ATOM      3  C   UNL     1      32.055 -23.519 -13.399  0.00  0.00    +0.170 C 
ATOM      4  C   UNL     1      30.590 -23.881 -13.646  0.00  0.00    +0.169 C 
ATOM      5  C   UNL     1      32.695 -22.896 -14.644  0.00  0.00    +0.178 C 
ATOM      6  C   UNL     1      30.444 -24.687 -14.939  0.00  0.00    +0.175 C 
ATOM      7  C   UNL     1      32.410 -23.745 -15.887  0.00  0.00    +0.197 C 
BRANCH   3   8
ATOM      8  O   UNL     1      32.137 -22.564 -12.338  0.00  0.00    -0.379 OA
ATOM      9  H   UNL     1      31.315 -22.580 -11.825  0.00  0.00    +0.211 HD
ENDBRANCH   3   8
BRANCH   4  10
ATOM     10  O   UNL     1      30.101 -24.659 -12.557  0.00  0.00    -0.379 OA
ATOM     11  H   UNL     1      30.706 -24.577 -11.803  0.00  0.00    +0.211 HD
ENDBRANCH   4  10
BRANCH   5  12
ATOM     12  O   UNL     1      34.105 -22.815 -14.433  0.00  0.00    -0.379 OA
ATOM     13  H   UNL     1      34.279 -22.482 -13.538  0.00  0.00    +0.211 HD
ENDBRANCH   5  12
BRANCH   6  14
ATOM     14  C   UNL     1      28.981 -24.958 -15.273  0.00  0.00    +0.169 C 
BRANCH  14  15
ATOM     15  O   UNL     1      28.458 -25.854 -14.309  0.00  0.00    -0.379 OA
ATOM     16  H   UNL     1      29.097 -25.962 -13.587  0.00  0.00    +0.211 HD
ENDBRANCH  14  15
ENDBRANCH   6  14
ENDBRANCH   1   7
BRANCH   1  18
ATOM     17  N   UNL     1      35.280 -23.841 -16.237  0.00  0.00    -0.048 NA
ATOM     18  C   UNL     1      34.805 -22.982 -17.084  0.00  0.00    +0.127 C 
BRANCH  17  19
ATOM     19  O   UNL     1      36.670 -23.749 -16.139  0.00  0.00    -0.205 OA
BRANCH  19  20
ATOM     20  S   UNL     1      37.257 -24.762 -15.002  0.00  0.00    +0.302 S 
ATOM     21  O   UNL     1      36.323 -24.430 -13.708  0.00  0.00    -0.011 OA
ATOM     22  O   UNL     1      38.611 -24.353 -14.682  0.00  0.00    -0.103 OA
ATOM     23  O   UNL     1      36.972 -26.125 -15.413  0.00  0.00    -0.103 OA
ENDBRANCH  19  20
ENDBRANCH  17  19
BRANCH  18  24
ATOM     24  C   UNL     1      35.616 -21.975 -17.881  0.00  0.00    +0.056 C 
BRANCH  24  25
ATOM     25  C   UNL     1      35.304 -22.022 -19.380  0.00  0.00    +0.008 C 
BRANCH  25  26
ATOM     26  C   UNL     1      35.050 -20.639 -19.986  0.00  0.00    +0.015 C 
BRANCH  26  27
ATOM     27  C   UNL     1      36.336 -20.033 -20.531  0.00  0.00    +0.092 C 
BRANCH  27  28
ATOM     28  S   UNL     1      35.971 -18.562 -21.539  0.00  0.00    +0.043 S 
ATOM     29  O   UNL     1      35.367 -17.542 -20.626  0.00  0.00    -0.256 OA
ATOM     30  C   UNL     1      34.626 -19.327 -22.476  0.00  0.00    +0.106 C 
ENDBRANCH  27  28
ENDBRANCH  26  27
ENDBRANCH  25  26
ENDBRANCH  24  25
ENDBRANCH  18  24
ENDBRANCH   1  18
TORSDOF 14
ENDMDL
MODEL 9
REMARK VINA RESULT:      -7.3      9.622     13.555
REMARK  Name = 9548634
REMARK  14 active torsions:
REMARK  status: ('A' for Active; 'I' for Inactive)
REMARK    1  A    between atoms: S_1  and  C_7
REMARK    2  A    between atoms: S_1  and  C_18
REMARK    3  A    between atoms: C_3  and  O_8
REMARK    4  A    between atoms: C_4  and  O_10
REMARK    5  A    between atoms: C_5  and  O_12
REMARK    6  A    between atoms: C_6  and  C_14
REMARK    7  A    between atoms: C_14  and  O_15
REMARK    8  A    between atoms: N_17  and  O_19
REMARK    9  A    between atoms: C_18  and  C_24
REMARK   10  A    between atoms: O_19  and  S_20
REMARK   11  A    between atoms: C_24  and  C_25
REMARK   12  A    between atoms: C_25  and  C_26
REMARK   13  A    between atoms: C_26  and  C_27
REMARK   14  A    between atoms: C_27  and  S_28
REMARK                            x       y       z     vdW  Elec       q    Type
REMARK                         _______ _______ _______ _____ _____    ______ ____
ROOT
ATOM      1  S   UNL     1      32.895 -14.187 -22.091  0.00  0.00    -0.065 S 
ENDROOT
BRANCH   1   7
ATOM      2  O   UNL     1      33.960 -16.132 -23.584  0.00  0.00    -0.340 OA
ATOM      3  C   UNL     1      35.543 -17.333 -21.512  0.00  0.00    +0.170 C 
ATOM      4  C   UNL     1      35.270 -18.034 -22.844  0.00  0.00    +0.169 C 
ATOM      5  C   UNL     1      34.480 -16.272 -21.211  0.00  0.00    +0.178 C 
ATOM      6  C   UNL     1      35.026 -17.008 -23.953  0.00  0.00    +0.175 C 
ATOM      7  C   UNL     1      34.261 -15.359 -22.421  0.00  0.00    +0.197 C 
BRANCH   3   8
ATOM      8  O   UNL     1      35.518 -18.294 -20.454  0.00  0.00    -0.379 OA
ATOM      9  H   UNL     1      35.397 -17.839 -19.607  0.00  0.00    +0.211 HD
ENDBRANCH   3   8
BRANCH   4  10
ATOM     10  O   UNL     1      36.391 -18.840 -23.197  0.00  0.00    -0.379 OA
ATOM     11  H   UNL     1      37.198 -18.302 -23.167  0.00  0.00    +0.211 HD
ENDBRANCH   4  10
BRANCH   5  12
ATOM     12  O   UNL     1      34.923 -15.493 -20.099  0.00  0.00    -0.379 OA
ATOM     13  H   UNL     1      35.166 -16.083 -19.368  0.00  0.00    +0.211 HD
ENDBRANCH   5  12
BRANCH   6  14
ATOM     14  C   UNL     1      34.633 -17.679 -25.265  0.00  0.00    +0.169 C 
BRANCH  14  15
ATOM     15  O   UNL     1      34.099 -18.958 -24.974  0.00  0.00    -0.379 OA
ATOM     16  H   UNL     1      34.233 -19.546 -25.734  0.00  0.00    +0.211 HD
ENDBRANCH  14  15
ENDBRANCH   6  14
ENDBRANCH   1   7
BRANCH   1  18
ATOM     17  N   UNL     1      33.368 -13.610 -24.643  0.00  0.00    -0.048 NA
ATOM     18  C   UNL     1      32.997 -13.126 -23.500  0.00  0.00    +0.127 C 
BRANCH  17  19
ATOM     19  O   UNL     1      33.383 -12.628 -25.635  0.00  0.00    -0.205 OA
BRANCH  19  20
ATOM     20  S   UNL     1      33.357 -13.286 -27.129  0.00  0.00    +0.302 S 
ATOM     21  O   UNL     1      33.405 -14.885 -26.817  0.00  0.00    -0.011 OA
ATOM     22  O   UNL     1      34.592 -12.934 -27.804  0.00  0.00    -0.103 OA
ATOM     23  O   UNL     1      32.072 -12.994 -27.736  0.00  0.00    -0.103 OA
ENDBRANCH  19  20
ENDBRANCH  17  19
BRANCH  18  24
ATOM     24  C   UNL     1      32.628 -11.678 -23.223  0.00  0.00    +0.056 C 
BRANCH  24  25
ATOM     25  C   UNL     1      31.495 -11.544 -22.202  0.00  0.00    +0.008 C 
BRANCH  25  26
ATOM     26  C   UNL     1      31.700 -10.385 -21.223  0.00  0.00    +0.015 C 
BRANCH  26  27
ATOM     27  C   UNL     1      32.150  -9.125 -21.950  0.00  0.00    +0.092 C 
BRANCH  27  28
ATOM     28  S   UNL     1      32.702  -7.864 -20.760  0.00  0.00    +0.043 S 
ATOM     29  O   UNL     1      32.054  -8.182 -19.449  0.00  0.00    -0.256 OA
ATOM     30  C   UNL     1      31.779  -6.502 -21.513  0.00  0.00    +0.106 C 
ENDBRANCH  27  28
ENDBRANCH  26  27
ENDBRANCH  25  26
ENDBRANCH  24  25
ENDBRANCH  18  24
ENDBRANCH   1  18
TORSDOF 14
ENDMDL
