MODEL 1
REMARK VINA RESULT:     -12.1      0.000      0.000
REMARK  Name = 11224409
REMARK  8 active torsions:
REMARK  status: ('A' for Active; 'I' for Inactive)
REMARK    1  A    between atoms: C_2  and  N_10
REMARK    2  A    between atoms: C_5  and  C_20
REMARK    3  A    between atoms: C_11  and  C_14
REMARK    4  A    between atoms: C_14  and  N_16
REMARK    5  A    between atoms: C_21  and  C_26
REMARK    6  A    between atoms: C_26  and  N_27
REMARK    7  A    between atoms: N_27  and  C_30
REMARK    8  A    between atoms: C_30  and  C_34
REMARK                            x       y       z     vdW  Elec       q    Type
REMARK                         _______ _______ _______ _____ _____    ______ ____
ROOT
ATOM      1  F   UNL     1      32.631 -20.941 -19.681  0.00  0.00    -0.204 F 
ATOM      2  C   UNL     1      35.050 -19.144 -21.714  0.00  0.00    +0.059 C 
ATOM      3  C   UNL     1      33.832 -19.614 -21.222  0.00  0.00    +0.045 C 
ATOM      4  C   UNL     1      36.245 -19.558 -21.127  0.00  0.00    +0.015 C 
ATOM      5  C   UNL     1      35.005 -20.912 -19.556  0.00  0.00    +0.028 C 
ATOM      6  C   UNL     1      33.810 -20.498 -20.143  0.00  0.00    +0.141 C 
ATOM      7  C   UNL     1      36.224 -20.442 -20.047  0.00  0.00    +0.004 C 
ENDROOT
BRANCH   2  10
ATOM      8  O   UNL     1      34.980 -17.386 -24.902  0.00  0.00    -0.434 OA
ATOM      9  O   UNL     1      34.658 -19.621 -24.692  0.00  0.00    -0.226 OA
ATOM     10  N   UNL     1      35.072 -18.242 -22.815  0.00  0.00    -0.221 N 
ATOM     11  C   UNL     1      35.025 -16.262 -24.013  0.00  0.00    +0.210 C 
ATOM     12  C   UNL     1      35.426 -16.855 -22.679  0.00  0.00    +0.147 C 
ATOM     13  C   UNL     1      34.871 -18.541 -24.161  0.00  0.00    +0.409 C 
BRANCH  11  14
ATOM     14  C   UNL     1      33.655 -15.600 -23.988  0.00  0.00    +0.135 C 
BRANCH  14  16
ATOM     15  O   UNL     1      32.743 -15.762 -26.740  0.00  0.00    -0.275 OA
ATOM     16  N   UNL     1      33.576 -14.534 -24.944  0.00  0.00    -0.301 N 
ATOM     17  C   UNL     1      33.125 -14.703 -26.249  0.00  0.00    +0.223 C 
ATOM     18  C   UNL     1      33.122 -13.417 -27.031  0.00  0.00    +0.095 C 
ATOM     19  H   UNL     1      33.858 -13.634 -24.661  0.00  0.00    +0.150 HD
ENDBRANCH  14  16
ENDBRANCH  11  14
ENDBRANCH   2  10
BRANCH   5  20
ATOM     20  C   UNL     1      34.987 -21.829 -18.437  0.00  0.00    +0.002 C 
ATOM     21  C   UNL     1      34.952 -23.596 -16.279  0.00  0.00    -0.044 C 
ATOM     22  C   UNL     1      36.083 -21.901 -17.577  0.00  0.00    -0.000 C 
ATOM     23  C   UNL     1      33.874 -22.641 -18.218  0.00  0.00    -0.000 C 
ATOM     24  C   UNL     1      36.065 -22.784 -16.497  0.00  0.00    -0.006 C 
ATOM     25  C   UNL     1      33.856 -23.524 -17.139  0.00  0.00    -0.006 C 
BRANCH  21  26
ATOM     26  C   UNL     1      34.933 -24.539 -15.124  0.00  0.00    -0.054 C 
BRANCH  26  27
ATOM     27  N   UNL     1      36.248 -24.678 -14.495  0.00  0.00    +0.390 N 
ATOM     28  H   UNL     1      36.129 -24.763 -13.485  0.00  0.00    -0.083 HD
ATOM     29  H   UNL     1      36.806 -23.854 -14.717  0.00  0.00    -0.083 HD
BRANCH  27  30
ATOM     30  C   UNL     1      36.935 -25.858 -14.996  0.00  0.00    -0.031 C 
BRANCH  30  34
ATOM     31  N   UNL     1      39.172 -26.856 -14.645  0.00  0.00    -0.170 NA
ATOM     32  N   UNL     1      40.394 -26.316 -14.519  0.00  0.00    -0.157 N 
ATOM     33  N   UNL     1      40.514 -24.980 -14.583  0.00  0.00    -0.162 NA
ATOM     34  C   UNL     1      38.426 -25.760 -14.808  0.00  0.00    +0.077 C 
ATOM     35  C   UNL     1      39.241 -24.620 -14.770  0.00  0.00    +0.133 C 
ATOM     36  H   UNL     1      41.185 -26.886 -14.382  0.00  0.00    +0.197 HD
ENDBRANCH  30  34
ENDBRANCH  27  30
ENDBRANCH  26  27
ENDBRANCH  21  26
ENDBRANCH   5  20
TORSDOF 8
ENDMDL
MODEL 2
REMARK VINA RESULT:     -12.1      1.434      2.069
REMARK  Name = 11224409
REMARK  8 active torsions:
REMARK  status: ('A' for Active; 'I' for Inactive)
REMARK    1  A    between atoms: C_2  and  N_10
REMARK    2  A    between atoms: C_5  and  C_20
REMARK    3  A    between atoms: C_11  and  C_14
REMARK    4  A    between atoms: C_14  and  N_16
REMARK    5  A    between atoms: C_21  and  C_26
REMARK    6  A    between atoms: C_26  and  N_27
REMARK    7  A    between atoms: N_27  and  C_30
REMARK    8  A    between atoms: C_30  and  C_34
REMARK                            x       y       z     vdW  Elec       q    Type
REMARK                         _______ _______ _______ _____ _____    ______ ____
ROOT
ATOM      1  F   UNL     1      32.716 -20.908 -19.611  0.00  0.00    -0.204 F 
ATOM      2  C   UNL     1      35.081 -19.141 -21.732  0.00  0.00    +0.059 C 
ATOM      3  C   UNL     1      33.876 -19.599 -21.198  0.00  0.00    +0.045 C 
ATOM      4  C   UNL     1      36.292 -19.559 -21.179  0.00  0.00    +0.015 C 
ATOM      5  C   UNL     1      35.093 -20.894 -19.561  0.00  0.00    +0.028 C 
ATOM      6  C   UNL     1      33.883 -20.476 -20.113  0.00  0.00    +0.141 C 
ATOM      7  C   UNL     1      36.298 -20.435 -20.094  0.00  0.00    +0.004 C 
ENDROOT
BRANCH   2  10
ATOM      8  O   UNL     1      34.923 -17.405 -24.928  0.00  0.00    -0.434 OA
ATOM      9  O   UNL     1      34.598 -19.637 -24.693  0.00  0.00    -0.226 OA
ATOM     10  N   UNL     1      35.074 -18.247 -22.839  0.00  0.00    -0.221 N 
ATOM     11  C   UNL     1      34.999 -16.275 -24.049  0.00  0.00    +0.210 C 
ATOM     12  C   UNL     1      35.438 -16.860 -22.723  0.00  0.00    +0.147 C 
ATOM     13  C   UNL     1      34.832 -18.554 -24.176  0.00  0.00    +0.409 C 
BRANCH  11  14
ATOM     14  C   UNL     1      33.633 -15.607 -23.988  0.00  0.00    +0.135 C 
BRANCH  14  16
ATOM     15  O   UNL     1      32.753 -15.746 -26.752  0.00  0.00    -0.275 OA
ATOM     16  N   UNL     1      33.541 -14.528 -24.928  0.00  0.00    -0.301 N 
ATOM     17  C   UNL     1      33.106 -14.687 -26.240  0.00  0.00    +0.223 C 
ATOM     18  C   UNL     1      33.082 -13.389 -27.002  0.00  0.00    +0.095 C 
ATOM     19  H   UNL     1      33.800 -13.627 -24.628  0.00  0.00    +0.150 HD
ENDBRANCH  14  16
ENDBRANCH  11  14
ENDBRANCH   2  10
BRANCH   5  20
ATOM     20  C   UNL     1      35.105 -21.803 -18.435  0.00  0.00    +0.002 C 
ATOM     21  C   UNL     1      35.129 -23.558 -16.267  0.00  0.00    -0.044 C 
ATOM     22  C   UNL     1      33.996 -22.608 -18.178  0.00  0.00    -0.000 C 
ATOM     23  C   UNL     1      36.227 -21.875 -17.608  0.00  0.00    -0.000 C 
ATOM     24  C   UNL     1      34.008 -23.487 -17.094  0.00  0.00    -0.006 C 
ATOM     25  C   UNL     1      36.238 -22.751 -16.524  0.00  0.00    -0.006 C 
BRANCH  21  26
ATOM     26  C   UNL     1      35.141 -24.497 -15.108  0.00  0.00    -0.054 C 
BRANCH  26  27
ATOM     27  N   UNL     1      36.490 -24.965 -14.784  0.00  0.00    +0.390 N 
ATOM     28  H   UNL     1      37.124 -24.167 -14.753  0.00  0.00    -0.083 HD
ATOM     29  H   UNL     1      36.789 -25.626 -15.501  0.00  0.00    -0.083 HD
BRANCH  27  30
ATOM     30  C   UNL     1      36.504 -25.637 -13.495  0.00  0.00    -0.031 C 
BRANCH  30  34
ATOM     31  N   UNL     1      36.107 -24.884 -11.170  0.00  0.00    -0.170 NA
ATOM     32  N   UNL     1      36.515 -23.804 -10.487  0.00  0.00    -0.157 N 
ATOM     33  N   UNL     1      37.294 -22.906 -11.114  0.00  0.00    -0.162 NA
ATOM     34  C   UNL     1      36.679 -24.665 -12.358  0.00  0.00    +0.077 C 
ATOM     35  C   UNL     1      37.399 -23.463 -12.324  0.00  0.00    +0.133 C 
ATOM     36  H   UNL     1      36.250 -23.671  -9.549  0.00  0.00    +0.197 HD
ENDBRANCH  30  34
ENDBRANCH  27  30
ENDBRANCH  26  27
ENDBRANCH  21  26
ENDBRANCH   5  20
TORSDOF 8
ENDMDL
MODEL 3
REMARK VINA RESULT:     -11.9      4.297     11.474
REMARK  Name = 11224409
REMARK  8 active torsions:
REMARK  status: ('A' for Active; 'I' for Inactive)
REMARK    1  A    between atoms: C_2  and  N_10
REMARK    2  A    between atoms: C_5  and  C_20
REMARK    3  A    between atoms: C_11  and  C_14
REMARK    4  A    between atoms: C_14  and  N_16
REMARK    5  A    between atoms: C_21  and  C_26
REMARK    6  A    between atoms: C_26  and  N_27
REMARK    7  A    between atoms: N_27  and  C_30
REMARK    8  A    between atoms: C_30  and  C_34
REMARK                            x       y       z     vdW  Elec       q    Type
REMARK                         _______ _______ _______ _____ _____    ______ ____
ROOT
ATOM      1  F   UNL     1      32.304 -19.902 -21.038  0.00  0.00    -0.204 F 
ATOM      2  C   UNL     1      34.722 -21.609 -18.929  0.00  0.00    +0.059 C 
ATOM      3  C   UNL     1      33.503 -21.187 -19.462  0.00  0.00    +0.045 C 
ATOM      4  C   UNL     1      35.919 -21.144 -19.473  0.00  0.00    +0.015 C 
ATOM      5  C   UNL     1      34.680 -19.834 -21.081  0.00  0.00    +0.028 C 
ATOM      6  C   UNL     1      33.483 -20.299 -20.537  0.00  0.00    +0.141 C 
ATOM      7  C   UNL     1      35.899 -20.257 -20.550  0.00  0.00    +0.004 C 
ENDROOT
BRANCH   2  10
ATOM      8  O   UNL     1      35.378 -23.653 -15.988  0.00  0.00    -0.434 OA
ATOM      9  O   UNL     1      36.817 -22.086 -16.776  0.00  0.00    -0.226 OA
ATOM     10  N   UNL     1      34.743 -22.515 -17.831  0.00  0.00    -0.221 N 
ATOM     11  C   UNL     1      34.008 -24.006 -16.220  0.00  0.00    +0.210 C 
ATOM     12  C   UNL     1      33.726 -23.510 -17.623  0.00  0.00    +0.147 C 
ATOM     13  C   UNL     1      35.745 -22.666 -16.875  0.00  0.00    +0.409 C 
BRANCH  11  14
ATOM     14  C   UNL     1      33.142 -23.338 -15.162  0.00  0.00    +0.135 C 
BRANCH  14  16
ATOM     15  O   UNL     1      31.875 -25.089 -13.223  0.00  0.00    -0.275 OA
ATOM     16  N   UNL     1      31.802 -23.846 -15.192  0.00  0.00    -0.301 N 
ATOM     17  C   UNL     1      31.275 -24.685 -14.215  0.00  0.00    +0.223 C 
ATOM     18  C   UNL     1      29.838 -25.048 -14.479  0.00  0.00    +0.095 C 
ATOM     19  H   UNL     1      31.223 -23.587 -15.946  0.00  0.00    +0.150 HD
ENDBRANCH  14  16
ENDBRANCH  11  14
ENDBRANCH   2  10
BRANCH   5  20
ATOM     20  C   UNL     1      34.664 -18.913 -22.197  0.00  0.00    +0.002 C 
ATOM     21  C   UNL     1      34.634 -17.137 -24.348  0.00  0.00    -0.044 C 
ATOM     22  C   UNL     1      34.654 -17.538 -21.966  0.00  0.00    -0.000 C 
ATOM     23  C   UNL     1      34.659 -19.400 -23.504  0.00  0.00    -0.000 C 
ATOM     24  C   UNL     1      34.640 -16.650 -23.042  0.00  0.00    -0.006 C 
ATOM     25  C   UNL     1      34.644 -18.513 -24.580  0.00  0.00    -0.006 C 
BRANCH  21  26
ATOM     26  C   UNL     1      34.620 -16.187 -25.498  0.00  0.00    -0.054 C 
BRANCH  26  27
ATOM     27  N   UNL     1      33.265 -15.756 -25.848  0.00  0.00    +0.390 N 
ATOM     28  H   UNL     1      32.648 -15.908 -25.050  0.00  0.00    -0.083 HD
ATOM     29  H   UNL     1      32.946 -16.298 -26.651  0.00  0.00    -0.083 HD
BRANCH  27  30
ATOM     30  C   UNL     1      33.251 -14.345 -26.200  0.00  0.00    -0.031 C 
BRANCH  30  34
ATOM     31  N   UNL     1      33.812 -12.267 -24.979  0.00  0.00    -0.170 NA
ATOM     32  N   UNL     1      33.537 -11.848 -23.734  0.00  0.00    -0.157 N 
ATOM     33  N   UNL     1      32.825 -12.653 -22.928  0.00  0.00    -0.162 NA
ATOM     34  C   UNL     1      33.216 -13.463 -24.980  0.00  0.00    +0.077 C 
ATOM     35  C   UNL     1      32.617 -13.697 -23.735  0.00  0.00    +0.133 C 
ATOM     36  H   UNL     1      33.852 -10.970 -23.417  0.00  0.00    +0.197 HD
ENDBRANCH  30  34
ENDBRANCH  27  30
ENDBRANCH  26  27
ENDBRANCH  21  26
ENDBRANCH   5  20
TORSDOF 8
ENDMDL
MODEL 4
REMARK VINA RESULT:     -11.6      2.275      2.811
REMARK  Name = 11224409
REMARK  8 active torsions:
REMARK  status: ('A' for Active; 'I' for Inactive)
REMARK    1  A    between atoms: C_2  and  N_10
REMARK    2  A    between atoms: C_5  and  C_20
REMARK    3  A    between atoms: C_11  and  C_14
REMARK    4  A    between atoms: C_14  and  N_16
REMARK    5  A    between atoms: C_21  and  C_26
REMARK    6  A    between atoms: C_26  and  N_27
REMARK    7  A    between atoms: N_27  and  C_30
REMARK    8  A    between atoms: C_30  and  C_34
REMARK                            x       y       z     vdW  Elec       q    Type
REMARK                         _______ _______ _______ _____ _____    ______ ____
ROOT
ATOM      1  F   UNL     1      32.833 -21.009 -20.214  0.00  0.00    -0.204 F 
ATOM      2  C   UNL     1      35.073 -18.932 -22.184  0.00  0.00    +0.059 C 
ATOM      3  C   UNL     1      33.912 -19.567 -21.741  0.00  0.00    +0.045 C 
ATOM      4  C   UNL     1      36.279 -19.136 -21.513  0.00  0.00    +0.015 C 
ATOM      5  C   UNL     1      35.163 -20.610 -19.958  0.00  0.00    +0.028 C 
ATOM      6  C   UNL     1      33.958 -20.406 -20.628  0.00  0.00    +0.141 C 
ATOM      7  C   UNL     1      36.324 -19.975 -20.400  0.00  0.00    +0.004 C 
ENDROOT
BRANCH   2  10
ATOM      8  O   UNL     1      34.773 -17.300 -25.425  0.00  0.00    -0.434 OA
ATOM      9  O   UNL     1      34.390 -19.510 -25.091  0.00  0.00    -0.226 OA
ATOM     10  N   UNL     1      35.026 -18.076 -23.321  0.00  0.00    -0.221 N 
ATOM     11  C   UNL     1      34.942 -16.144 -24.594  0.00  0.00    +0.210 C 
ATOM     12  C   UNL     1      35.442 -16.699 -23.277  0.00  0.00    +0.147 C 
ATOM     13  C   UNL     1      34.691 -18.419 -24.628  0.00  0.00    +0.409 C 
BRANCH  11  14
ATOM     14  C   UNL     1      33.604 -15.427 -24.473  0.00  0.00    +0.135 C 
BRANCH  14  16
ATOM     15  O   UNL     1      32.579 -12.953 -23.350  0.00  0.00    -0.275 OA
ATOM     16  N   UNL     1      33.281 -15.161 -23.102  0.00  0.00    -0.301 N 
ATOM     17  C   UNL     1      32.792 -13.939 -22.650  0.00  0.00    +0.223 C 
ATOM     18  C   UNL     1      32.513 -13.939 -21.170  0.00  0.00    +0.095 C 
ATOM     19  H   UNL     1      33.413 -15.882 -22.444  0.00  0.00    +0.150 HD
ENDBRANCH  14  16
ENDBRANCH  11  14
ENDBRANCH   2  10
BRANCH   5  20
ATOM     20  C   UNL     1      35.215 -21.480 -18.802  0.00  0.00    +0.002 C 
ATOM     21  C   UNL     1      35.317 -23.159 -16.577  0.00  0.00    -0.044 C 
ATOM     22  C   UNL     1      34.109 -22.259 -18.466  0.00  0.00    -0.000 C 
ATOM     23  C   UNL     1      36.373 -21.541 -18.026  0.00  0.00    -0.000 C 
ATOM     24  C   UNL     1      34.159 -23.099 -17.353  0.00  0.00    -0.006 C 
ATOM     25  C   UNL     1      36.424 -22.380 -16.913  0.00  0.00    -0.006 C 
BRANCH  21  26
ATOM     26  C   UNL     1      35.370 -24.058 -15.388  0.00  0.00    -0.054 C 
BRANCH  26  27
ATOM     27  N   UNL     1      34.622 -23.522 -14.249  0.00  0.00    +0.390 N 
ATOM     28  H   UNL     1      33.662 -23.334 -14.538  0.00  0.00    -0.083 HD
ATOM     29  H   UNL     1      35.072 -22.662 -13.937  0.00  0.00    -0.083 HD
BRANCH  27  30
ATOM     30  C   UNL     1      34.612 -24.472 -13.148  0.00  0.00    -0.031 C 
BRANCH  30  34
ATOM     31  N   UNL     1      35.462 -24.595 -10.827  0.00  0.00    -0.170 NA
ATOM     32  N   UNL     1      36.471 -23.971 -10.199  0.00  0.00    -0.157 N 
ATOM     33  N   UNL     1      37.212 -23.091 -10.893  0.00  0.00    -0.162 NA
ATOM     34  C   UNL     1      35.562 -24.068 -12.051  0.00  0.00    +0.077 C 
ATOM     35  C   UNL     1      36.624 -23.155 -12.091  0.00  0.00    +0.133 C 
ATOM     36  H   UNL     1      36.662 -24.152  -9.250  0.00  0.00    +0.197 HD
ENDBRANCH  30  34
ENDBRANCH  27  30
ENDBRANCH  26  27
ENDBRANCH  21  26
ENDBRANCH   5  20
TORSDOF 8
ENDMDL
MODEL 5
REMARK VINA RESULT:     -11.5      6.592     10.560
REMARK  Name = 11224409
REMARK  8 active torsions:
REMARK  status: ('A' for Active; 'I' for Inactive)
REMARK    1  A    between atoms: C_2  and  N_10
REMARK    2  A    between atoms: C_5  and  C_20
REMARK    3  A    between atoms: C_11  and  C_14
REMARK    4  A    between atoms: C_14  and  N_16
REMARK    5  A    between atoms: C_21  and  C_26
REMARK    6  A    between atoms: C_26  and  N_27
REMARK    7  A    between atoms: N_27  and  C_30
REMARK    8  A    between atoms: C_30  and  C_34
REMARK                            x       y       z     vdW  Elec       q    Type
REMARK                         _______ _______ _______ _____ _____    ______ ____
ROOT
ATOM      1  F   UNL     1      34.592 -11.467 -24.956  0.00  0.00    -0.204 F 
ATOM      2  C   UNL     1      32.220  -9.813 -22.755  0.00  0.00    +0.059 C 
ATOM      3  C   UNL     1      33.204 -10.007 -23.725  0.00  0.00    +0.045 C 
ATOM      4  C   UNL     1      31.677 -10.908 -22.083  0.00  0.00    +0.015 C 
ATOM      5  C   UNL     1      33.103 -12.391 -23.349  0.00  0.00    +0.028 C 
ATOM      6  C   UNL     1      33.646 -11.297 -24.021  0.00  0.00    +0.141 C 
ATOM      7  C   UNL     1      32.118 -12.198 -22.380  0.00  0.00    +0.004 C 
ENDROOT
BRANCH   2  10
ATOM      8  O   UNL     1      31.406  -6.532 -21.402  0.00  0.00    -0.434 OA
ATOM      9  O   UNL     1      32.671  -8.063 -20.308  0.00  0.00    -0.226 OA
ATOM     10  N   UNL     1      31.769  -8.497 -22.452  0.00  0.00    -0.221 N 
ATOM     11  C   UNL     1      30.911  -6.366 -22.738  0.00  0.00    +0.210 C 
ATOM     12  C   UNL     1      30.855  -7.773 -23.294  0.00  0.00    +0.147 C 
ATOM     13  C   UNL     1      32.031  -7.755 -21.303  0.00  0.00    +0.409 C 
BRANCH  11  14
ATOM     14  C   UNL     1      31.861  -5.455 -23.504  0.00  0.00    +0.135 C 
BRANCH  14  16
ATOM     15  O   UNL     1      30.389  -3.247 -24.683  0.00  0.00    -0.275 OA
ATOM     16  N   UNL     1      31.783  -4.106 -23.026  0.00  0.00    -0.301 N 
ATOM     17  C   UNL     1      31.050  -3.107 -23.657  0.00  0.00    +0.223 C 
ATOM     18  C   UNL     1      31.121  -1.790 -22.931  0.00  0.00    +0.095 C 
ATOM     19  H   UNL     1      32.277  -3.874 -22.206  0.00  0.00    +0.150 HD
ENDBRANCH  14  16
ENDBRANCH  11  14
ENDBRANCH   2  10
BRANCH   5  20
ATOM     20  C   UNL     1      33.558 -13.731 -23.653  0.00  0.00    +0.002 C 
ATOM     21  C   UNL     1      34.437 -16.312 -24.241  0.00  0.00    -0.044 C 
ATOM     22  C   UNL     1      33.214 -14.326 -24.866  0.00  0.00    -0.000 C 
ATOM     23  C   UNL     1      34.343 -14.428 -22.733  0.00  0.00    -0.000 C 
ATOM     24  C   UNL     1      33.654 -15.616 -25.161  0.00  0.00    -0.006 C 
ATOM     25  C   UNL     1      34.782 -15.718 -23.026  0.00  0.00    -0.006 C 
BRANCH  21  26
ATOM     26  C   UNL     1      34.908 -17.692 -24.556  0.00  0.00    -0.054 C 
BRANCH  26  27
ATOM     27  N   UNL     1      35.614 -18.311 -23.432  0.00  0.00    +0.390 N 
ATOM     28  H   UNL     1      36.030 -17.581 -22.855  0.00  0.00    -0.083 HD
ATOM     29  H   UNL     1      36.339 -18.927 -23.800  0.00  0.00    -0.083 HD
BRANCH  27  30
ATOM     30  C   UNL     1      34.699 -19.098 -22.621  0.00  0.00    -0.031 C 
BRANCH  30  34
ATOM     31  N   UNL     1      36.498 -19.054 -20.923  0.00  0.00    -0.170 NA
ATOM     32  N   UNL     1      36.702 -19.765 -19.802  0.00  0.00    -0.157 N 
ATOM     33  N   UNL     1      35.802 -20.703 -19.466  0.00  0.00    -0.162 NA
ATOM     34  C   UNL     1      35.350 -19.585 -21.354  0.00  0.00    +0.077 C 
ATOM     35  C   UNL     1      34.928 -20.587 -20.470  0.00  0.00    +0.133 C 
ATOM     36  H   UNL     1      37.494 -19.602 -19.240  0.00  0.00    +0.197 HD
ENDBRANCH  30  34
ENDBRANCH  27  30
ENDBRANCH  26  27
ENDBRANCH  21  26
ENDBRANCH   5  20
TORSDOF 8
ENDMDL
MODEL 6
REMARK VINA RESULT:     -11.4      6.277     10.256
REMARK  Name = 11224409
REMARK  8 active torsions:
REMARK  status: ('A' for Active; 'I' for Inactive)
REMARK    1  A    between atoms: C_2  and  N_10
REMARK    2  A    between atoms: C_5  and  C_20
REMARK    3  A    between atoms: C_11  and  C_14
REMARK    4  A    between atoms: C_14  and  N_16
REMARK    5  A    between atoms: C_21  and  C_26
REMARK    6  A    between atoms: C_26  and  N_27
REMARK    7  A    between atoms: N_27  and  C_30
REMARK    8  A    between atoms: C_30  and  C_34
REMARK                            x       y       z     vdW  Elec       q    Type
REMARK                         _______ _______ _______ _____ _____    ______ ____
ROOT
ATOM      1  F   UNL     1      31.694 -13.340 -21.647  0.00  0.00    -0.204 F 
ATOM      2  C   UNL     1      32.307 -10.005 -22.958  0.00  0.00    +0.059 C 
ATOM      3  C   UNL     1      31.765 -11.046 -22.203  0.00  0.00    +0.045 C 
ATOM      4  C   UNL     1      33.311 -10.271 -23.890  0.00  0.00    +0.015 C 
ATOM      5  C   UNL     1      33.229 -12.615 -23.313  0.00  0.00    +0.028 C 
ATOM      6  C   UNL     1      32.226 -12.351 -22.381  0.00  0.00    +0.141 C 
ATOM      7  C   UNL     1      33.773 -11.575 -24.067  0.00  0.00    +0.004 C 
ENDROOT
BRANCH   2  10
ATOM      8  O   UNL     1      31.491  -6.606 -21.943  0.00  0.00    -0.434 OA
ATOM      9  O   UNL     1      32.898  -7.959 -20.787  0.00  0.00    -0.226 OA
ATOM     10  N   UNL     1      31.837  -8.674 -22.777  0.00  0.00    -0.221 N 
ATOM     11  C   UNL     1      30.881  -6.617 -23.240  0.00  0.00    +0.210 C 
ATOM     12  C   UNL     1      30.830  -8.083 -23.617  0.00  0.00    +0.147 C 
ATOM     13  C   UNL     1      32.166  -7.791 -21.752  0.00  0.00    +0.409 C 
BRANCH  11  14
ATOM     14  C   UNL     1      31.730  -5.783 -24.189  0.00  0.00    +0.135 C 
BRANCH  14  16
ATOM     15  O   UNL     1      30.261  -3.351 -24.789  0.00  0.00    -0.275 OA
ATOM     16  N   UNL     1      31.963  -4.472 -23.660  0.00  0.00    -0.301 N 
ATOM     17  C   UNL     1      31.206  -3.357 -24.005  0.00  0.00    +0.223 C 
ATOM     18  C   UNL     1      31.648  -2.111 -23.284  0.00  0.00    +0.095 C 
ATOM     19  H   UNL     1      32.700  -4.354 -23.017  0.00  0.00    +0.150 HD
ENDBRANCH  14  16
ENDBRANCH  11  14
ENDBRANCH   2  10
BRANCH   5  20
ATOM     20  C   UNL     1      33.710 -13.967 -23.500  0.00  0.00    +0.002 C 
ATOM     21  C   UNL     1      34.635 -16.573 -23.861  0.00  0.00    -0.044 C 
ATOM     22  C   UNL     1      34.459 -14.585 -22.500  0.00  0.00    -0.000 C 
ATOM     23  C   UNL     1      33.423 -14.652 -24.681  0.00  0.00    -0.000 C 
ATOM     24  C   UNL     1      34.921 -15.889 -22.680  0.00  0.00    -0.006 C 
ATOM     25  C   UNL     1      33.887 -15.955 -24.862  0.00  0.00    -0.006 C 
BRANCH  21  26
ATOM     26  C   UNL     1      35.130 -17.967 -24.053  0.00  0.00    -0.054 C 
BRANCH  26  27
ATOM     27  N   UNL     1      34.419 -18.933 -23.212  0.00  0.00    +0.390 N 
ATOM     28  H   UNL     1      34.271 -19.792 -23.741  0.00  0.00    -0.083 HD
ATOM     29  H   UNL     1      33.524 -18.529 -22.935  0.00  0.00    -0.083 HD
BRANCH  27  30
ATOM     30  C   UNL     1      35.187 -19.235 -22.015  0.00  0.00    -0.031 C 
BRANCH  30  34
ATOM     31  N   UNL     1      34.934 -20.857 -20.163  0.00  0.00    -0.170 NA
ATOM     32  N   UNL     1      33.868 -21.265 -19.457  0.00  0.00    -0.157 N 
ATOM     33  N   UNL     1      32.666 -20.741 -19.750  0.00  0.00    -0.162 NA
ATOM     34  C   UNL     1      34.366 -19.979 -20.995  0.00  0.00    +0.077 C 
ATOM     35  C   UNL     1      32.989 -19.910 -20.745  0.00  0.00    +0.133 C 
ATOM     36  H   UNL     1      33.964 -21.934 -18.741  0.00  0.00    +0.197 HD
ENDBRANCH  30  34
ENDBRANCH  27  30
ENDBRANCH  26  27
ENDBRANCH  21  26
ENDBRANCH   5  20
TORSDOF 8
ENDMDL
MODEL 7
REMARK VINA RESULT:     -11.4      3.802      5.763
REMARK  Name = 11224409
REMARK  8 active torsions:
REMARK  status: ('A' for Active; 'I' for Inactive)
REMARK    1  A    between atoms: C_2  and  N_10
REMARK    2  A    between atoms: C_5  and  C_20
REMARK    3  A    between atoms: C_11  and  C_14
REMARK    4  A    between atoms: C_14  and  N_16
REMARK    5  A    between atoms: C_21  and  C_26
REMARK    6  A    between atoms: C_26  and  N_27
REMARK    7  A    between atoms: N_27  and  C_30
REMARK    8  A    between atoms: C_30  and  C_34
REMARK                            x       y       z     vdW  Elec       q    Type
REMARK                         _______ _______ _______ _____ _____    ______ ____
ROOT
ATOM      1  F   UNL     1      34.914 -17.385 -24.032  0.00  0.00    -0.204 F 
ATOM      2  C   UNL     1      33.766 -14.176 -22.769  0.00  0.00    +0.059 C 
ATOM      3  C   UNL     1      34.188 -15.171 -23.652  0.00  0.00    +0.045 C 
ATOM      4  C   UNL     1      33.667 -14.452 -21.405  0.00  0.00    +0.015 C 
ATOM      5  C   UNL     1      34.411 -16.715 -21.807  0.00  0.00    +0.028 C 
ATOM      6  C   UNL     1      34.511 -16.440 -23.171  0.00  0.00    +0.141 C 
ATOM      7  C   UNL     1      33.988 -15.721 -20.924  0.00  0.00    +0.004 C 
ENDROOT
BRANCH   2  10
ATOM      8  O   UNL     1      32.525 -10.829 -23.484  0.00  0.00    -0.434 OA
ATOM      9  O   UNL     1      31.884 -12.049 -21.682  0.00  0.00    -0.226 OA
ATOM     10  N   UNL     1      33.437 -12.881 -23.261  0.00  0.00    -0.221 N 
ATOM     11  C   UNL     1      33.561 -10.912 -24.471  0.00  0.00    +0.210 C 
ATOM     12  C   UNL     1      33.910 -12.384 -24.525  0.00  0.00    +0.147 C 
ATOM     13  C   UNL     1      32.565 -11.955 -22.693  0.00  0.00    +0.409 C 
BRANCH  11  14
ATOM     14  C   UNL     1      34.727 -10.035 -24.035  0.00  0.00    +0.135 C 
BRANCH  14  16
ATOM     15  O   UNL     1      34.087  -7.435 -22.910  0.00  0.00    -0.275 OA
ATOM     16  N   UNL     1      34.707  -8.773 -24.715  0.00  0.00    -0.301 N 
ATOM     17  C   UNL     1      34.387  -7.570 -24.094  0.00  0.00    +0.223 C 
ATOM     18  C   UNL     1      34.468  -6.395 -25.032  0.00  0.00    +0.095 C 
ATOM     19  H   UNL     1      34.932  -8.757 -25.673  0.00  0.00    +0.150 HD
ENDBRANCH  14  16
ENDBRANCH  11  14
ENDBRANCH   2  10
BRANCH   5  20
ATOM     20  C   UNL     1      34.744 -18.030 -21.304  0.00  0.00    +0.002 C 
ATOM     21  C   UNL     1      35.387 -20.565 -20.335  0.00  0.00    -0.044 C 
ATOM     22  C   UNL     1      33.730 -18.926 -20.969  0.00  0.00    -0.000 C 
ATOM     23  C   UNL     1      36.081 -18.401 -21.154  0.00  0.00    -0.000 C 
ATOM     24  C   UNL     1      34.051 -20.194 -20.485  0.00  0.00    -0.006 C 
ATOM     25  C   UNL     1      36.403 -19.668 -20.669  0.00  0.00    -0.006 C 
BRANCH  21  26
ATOM     26  C   UNL     1      35.731 -21.921 -19.818  0.00  0.00    -0.054 C 
BRANCH  26  27
ATOM     27  N   UNL     1      35.499 -22.044 -18.377  0.00  0.00    +0.390 N 
ATOM     28  H   UNL     1      35.207 -22.998 -18.165  0.00  0.00    -0.083 HD
ATOM     29  H   UNL     1      34.773 -21.383 -18.104  0.00  0.00    -0.083 HD
BRANCH  27  30
ATOM     30  C   UNL     1      36.712 -21.741 -17.635  0.00  0.00    -0.031 C 
BRANCH  30  34
ATOM     31  N   UNL     1      37.865 -22.910 -15.783  0.00  0.00    -0.170 NA
ATOM     32  N   UNL     1      37.428 -23.404 -14.614  0.00  0.00    -0.157 N 
ATOM     33  N   UNL     1      36.124 -23.284 -14.314  0.00  0.00    -0.162 NA
ATOM     34  C   UNL     1      36.730 -22.418 -16.290  0.00  0.00    +0.077 C 
ATOM     35  C   UNL     1      35.673 -22.646 -15.398  0.00  0.00    +0.133 C 
ATOM     36  H   UNL     1      38.049 -23.847 -13.991  0.00  0.00    +0.197 HD
ENDBRANCH  30  34
ENDBRANCH  27  30
ENDBRANCH  26  27
ENDBRANCH  21  26
ENDBRANCH   5  20
TORSDOF 8
ENDMDL
MODEL 8
REMARK VINA RESULT:     -11.4      4.086     11.654
REMARK  Name = 11224409
REMARK  8 active torsions:
REMARK  status: ('A' for Active; 'I' for Inactive)
REMARK    1  A    between atoms: C_2  and  N_10
REMARK    2  A    between atoms: C_5  and  C_20
REMARK    3  A    between atoms: C_11  and  C_14
REMARK    4  A    between atoms: C_14  and  N_16
REMARK    5  A    between atoms: C_21  and  C_26
REMARK    6  A    between atoms: C_26  and  N_27
REMARK    7  A    between atoms: N_27  and  C_30
REMARK    8  A    between atoms: C_30  and  C_34
REMARK                            x       y       z     vdW  Elec       q    Type
REMARK                         _______ _______ _______ _____ _____    ______ ____
ROOT
ATOM      1  F   UNL     1      32.350 -19.857 -21.046  0.00  0.00    -0.204 F 
ATOM      2  C   UNL     1      34.821 -21.575 -19.007  0.00  0.00    +0.059 C 
ATOM      3  C   UNL     1      33.589 -21.153 -19.510  0.00  0.00    +0.045 C 
ATOM      4  C   UNL     1      36.004 -21.097 -19.571  0.00  0.00    +0.015 C 
ATOM      5  C   UNL     1      34.725 -19.775 -21.137  0.00  0.00    +0.028 C 
ATOM      6  C   UNL     1      33.542 -20.253 -20.574  0.00  0.00    +0.141 C 
ATOM      7  C   UNL     1      35.956 -20.197 -20.636  0.00  0.00    +0.004 C 
ENDROOT
BRANCH   2  10
ATOM      8  O   UNL     1      35.596 -23.751 -16.193  0.00  0.00    -0.434 OA
ATOM      9  O   UNL     1      37.123 -22.413 -17.204  0.00  0.00    -0.226 OA
ATOM     10  N   UNL     1      34.869 -22.493 -17.921  0.00  0.00    -0.221 N 
ATOM     11  C   UNL     1      34.168 -23.882 -16.206  0.00  0.00    +0.210 C 
ATOM     12  C   UNL     1      33.753 -23.322 -17.550  0.00  0.00    +0.147 C 
ATOM     13  C   UNL     1      35.971 -22.816 -17.132  0.00  0.00    +0.409 C 
BRANCH  11  14
ATOM     14  C   UNL     1      33.593 -23.106 -15.029  0.00  0.00    +0.135 C 
BRANCH  14  16
ATOM     15  O   UNL     1      33.422 -24.868 -12.727  0.00  0.00    -0.275 OA
ATOM     16  N   UNL     1      34.473 -23.150 -13.899  0.00  0.00    -0.301 N 
ATOM     17  C   UNL     1      34.315 -24.032 -12.835  0.00  0.00    +0.223 C 
ATOM     18  C   UNL     1      35.393 -23.882 -11.794  0.00  0.00    +0.095 C 
ATOM     19  H   UNL     1      35.231 -22.521 -13.875  0.00  0.00    +0.150 HD
ENDBRANCH  14  16
ENDBRANCH  11  14
ENDBRANCH   2  10
BRANCH   5  20
ATOM     20  C   UNL     1      34.680 -18.841 -22.241  0.00  0.00    +0.002 C 
ATOM     21  C   UNL     1      34.596 -17.041 -24.370  0.00  0.00    -0.044 C 
ATOM     22  C   UNL     1      34.642 -17.470 -21.994  0.00  0.00    -0.000 C 
ATOM     23  C   UNL     1      34.677 -19.313 -23.555  0.00  0.00    -0.000 C 
ATOM     24  C   UNL     1      34.601 -16.569 -23.058  0.00  0.00    -0.006 C 
ATOM     25  C   UNL     1      34.634 -18.413 -24.619  0.00  0.00    -0.006 C 
BRANCH  21  26
ATOM     26  C   UNL     1      34.553 -16.078 -25.508  0.00  0.00    -0.054 C 
BRANCH  26  27
ATOM     27  N   UNL     1      33.199 -15.586 -25.771  0.00  0.00    +0.390 N 
ATOM     28  H   UNL     1      32.663 -15.600 -24.904  0.00  0.00    -0.083 HD
ATOM     29  H   UNL     1      32.761 -16.188 -26.467  0.00  0.00    -0.083 HD
BRANCH  27  30
ATOM     30  C   UNL     1      33.238 -14.226 -26.286  0.00  0.00    -0.031 C 
BRANCH  30  34
ATOM     31  N   UNL     1      32.868 -13.490 -23.953  0.00  0.00    -0.170 NA
ATOM     32  N   UNL     1      33.132 -12.339 -23.315  0.00  0.00    -0.157 N 
ATOM     33  N   UNL     1      33.708 -11.341 -24.005  0.00  0.00    -0.162 NA
ATOM     34  C   UNL     1      33.320 -13.209 -25.179  0.00  0.00    +0.077 C 
ATOM     35  C   UNL     1      33.829 -11.904 -25.211  0.00  0.00    +0.133 C 
ATOM     36  H   UNL     1      32.908 -12.228 -22.363  0.00  0.00    +0.197 HD
ENDBRANCH  30  34
ENDBRANCH  27  30
ENDBRANCH  26  27
ENDBRANCH  21  26
ENDBRANCH   5  20
TORSDOF 8
ENDMDL
MODEL 9
REMARK VINA RESULT:     -11.3      3.871      5.946
REMARK  Name = 11224409
REMARK  8 active torsions:
REMARK  status: ('A' for Active; 'I' for Inactive)
REMARK    1  A    between atoms: C_2  and  N_10
REMARK    2  A    between atoms: C_5  and  C_20
REMARK    3  A    between atoms: C_11  and  C_14
REMARK    4  A    between atoms: C_14  and  N_16
REMARK    5  A    between atoms: C_21  and  C_26
REMARK    6  A    between atoms: C_26  and  N_27
REMARK    7  A    between atoms: N_27  and  C_30
REMARK    8  A    between atoms: C_30  and  C_34
REMARK                            x       y       z     vdW  Elec       q    Type
REMARK                         _______ _______ _______ _____ _____    ______ ____
ROOT
ATOM      1  F   UNL     1      35.407 -18.365 -23.789  0.00  0.00    -0.204 F 
ATOM      2  C   UNL     1      33.986 -15.064 -23.247  0.00  0.00    +0.059 C 
ATOM      3  C   UNL     1      34.639 -16.134 -23.860  0.00  0.00    +0.045 C 
ATOM      4  C   UNL     1      33.470 -15.208 -21.959  0.00  0.00    +0.015 C 
ATOM      5  C   UNL     1      34.261 -17.490 -21.898  0.00  0.00    +0.028 C 
ATOM      6  C   UNL     1      34.777 -17.346 -23.185  0.00  0.00    +0.141 C 
ATOM      7  C   UNL     1      33.607 -16.422 -21.284  0.00  0.00    +0.004 C 
ENDROOT
BRANCH   2  10
ATOM      8  O   UNL     1      33.333 -12.270 -25.489  0.00  0.00    -0.434 OA
ATOM      9  O   UNL     1      32.766 -14.416 -25.957  0.00  0.00    -0.226 OA
ATOM     10  N   UNL     1      33.846 -13.826 -23.936  0.00  0.00    -0.221 N 
ATOM     11  C   UNL     1      33.766 -11.546 -24.329  0.00  0.00    +0.210 C 
ATOM     12  C   UNL     1      34.414 -12.597 -23.452  0.00  0.00    +0.147 C 
ATOM     13  C   UNL     1      33.261 -13.610 -25.181  0.00  0.00    +0.409 C 
BRANCH  11  14
ATOM     14  C   UNL     1      32.556 -10.887 -23.681  0.00  0.00    +0.135 C 
BRANCH  14  16
ATOM     15  O   UNL     1      31.498  -9.575 -21.317  0.00  0.00    -0.275 OA
ATOM     16  N   UNL     1      32.257 -11.485 -22.414  0.00  0.00    -0.301 N 
ATOM     17  C   UNL     1      31.750 -10.777 -21.329  0.00  0.00    +0.223 C 
ATOM     18  C   UNL     1      31.503 -11.653 -20.130  0.00  0.00    +0.095 C 
ATOM     19  H   UNL     1      32.420 -12.451 -22.305  0.00  0.00    +0.150 HD
ENDBRANCH  14  16
ENDBRANCH  11  14
ENDBRANCH   2  10
BRANCH   5  20
ATOM     20  C   UNL     1      34.401 -18.747 -21.194  0.00  0.00    +0.002 C 
ATOM     21  C   UNL     1      34.672 -21.167 -19.834  0.00  0.00    -0.044 C 
ATOM     22  C   UNL     1      35.671 -19.251 -20.913  0.00  0.00    -0.000 C 
ATOM     23  C   UNL     1      33.267 -19.454 -20.794  0.00  0.00    -0.000 C 
ATOM     24  C   UNL     1      35.807 -20.461 -20.233  0.00  0.00    -0.006 C 
ATOM     25  C   UNL     1      33.402 -20.664 -20.115  0.00  0.00    -0.006 C 
BRANCH  21  26
ATOM     26  C   UNL     1      34.818 -22.461 -19.107  0.00  0.00    -0.054 C 
BRANCH  26  27
ATOM     27  N   UNL     1      33.529 -23.008 -18.676  0.00  0.00    +0.390 N 
ATOM     28  H   UNL     1      33.374 -23.904 -19.139  0.00  0.00    -0.083 HD
ATOM     29  H   UNL     1      32.793 -22.348 -18.928  0.00  0.00    -0.083 HD
BRANCH  27  30
ATOM     30  C   UNL     1      33.510 -23.204 -17.236  0.00  0.00    -0.031 C 
BRANCH  30  34
ATOM     31  N   UNL     1      31.143 -22.483 -17.289  0.00  0.00    -0.170 NA
ATOM     32  N   UNL     1      30.100 -22.744 -16.485  0.00  0.00    -0.157 N 
ATOM     33  N   UNL     1      30.294 -23.542 -15.422  0.00  0.00    -0.162 NA
ATOM     34  C   UNL     1      32.108 -23.184 -16.686  0.00  0.00    +0.077 C 
ATOM     35  C   UNL     1      31.592 -23.826 -15.552  0.00  0.00    +0.133 C 
ATOM     36  H   UNL     1      29.214 -22.358 -16.670  0.00  0.00    +0.197 HD
ENDBRANCH  30  34
ENDBRANCH  27  30
ENDBRANCH  26  27
ENDBRANCH  21  26
ENDBRANCH   5  20
TORSDOF 8
ENDMDL
