MODEL 1
REMARK VINA RESULT:      -8.0      0.000      0.000
REMARK  Name = 2225
REMARK  8 active torsions:
REMARK  status: ('A' for Active; 'I' for Inactive)
REMARK    1  A    between atoms: C_2  and  C_10
REMARK    2  A    between atoms: C_3  and  C_20
REMARK    3  A    between atoms: C_4  and  C_27
REMARK    4  A    between atoms: C_11  and  N_18
REMARK    5  A    between atoms: C_20  and  O_21
REMARK    6  A    between atoms: O_21  and  C_22
REMARK    7  A    between atoms: C_22  and  C_24
REMARK    8  A    between atoms: C_27  and  O_28
REMARK                            x       y       z     vdW  Elec       q    Type
REMARK                         _______ _______ _______ _____ _____    ______ ____
ROOT
ATOM      1  N   UNL     1      34.104 -22.830 -17.240  0.00  0.00    -0.334 N 
ATOM      2  C   UNL     1      35.330 -23.334 -14.736  0.00  0.00    +0.013 C 
ATOM      3  C   UNL     1      36.075 -22.734 -15.933  0.00  0.00    +0.071 C 
ATOM      4  C   UNL     1      33.825 -23.479 -14.982  0.00  0.00    +0.085 C 
ATOM      5  C   UNL     1      35.450 -22.524 -17.114  0.00  0.00    +0.098 C 
ATOM      6  C   UNL     1      33.290 -23.254 -16.203  0.00  0.00    +0.028 C 
ATOM      7  C   UNL     1      36.097 -21.977 -18.358  0.00  0.00    +0.026 C 
ATOM      8  C   UNL     1      31.837 -23.415 -16.563  0.00  0.00    +0.047 C 
ATOM      9  H   UNL     1      33.698 -22.739 -18.133  0.00  0.00    +0.147 HD
ENDROOT
BRANCH   2  10
ATOM     10  C   UNL     1      35.921 -24.668 -14.381  0.00  0.00    +0.023 C 
ATOM     11  C   UNL     1      36.354 -24.941 -13.088  0.00  0.00    +0.143 C 
ATOM     12  C   UNL     1      36.028 -25.631 -15.380  0.00  0.00    +0.002 C 
ATOM     13  C   UNL     1      36.900 -26.189 -12.789  0.00  0.00    +0.024 C 
ATOM     14  C   UNL     1      36.575 -26.880 -15.081  0.00  0.00    +0.000 C 
ATOM     15  C   UNL     1      37.010 -27.158 -13.786  0.00  0.00    +0.002 C 
BRANCH  11  18
ATOM     16  O   UNL     1      37.029 -22.982 -12.074  0.00  0.00    -0.126 OA
ATOM     17  O   UNL     1      35.390 -24.122 -11.159  0.00  0.00    -0.126 OA
ATOM     18  N   UNL     1      36.253 -23.967 -12.056  0.00  0.00    +0.058 N 
ENDBRANCH  11  18
ENDBRANCH   2  10
BRANCH   3  20
ATOM     19  O   UNL     1      37.913 -21.237 -15.972  0.00  0.00    -0.245 OA
ATOM     20  C   UNL     1      37.476 -22.341 -15.707  0.00  0.00    +0.339 C 
BRANCH  20  21
ATOM     21  O   UNL     1      38.136 -23.399 -15.177  0.00  0.00    -0.437 OA
BRANCH  21  22
ATOM     22  C   UNL     1      39.239 -23.877 -15.954  0.00  0.00    +0.272 C 
BRANCH  22  24
ATOM     23  O   UNL     1      40.415 -25.978 -15.872  0.00  0.00    -0.292 OA
ATOM     24  C   UNL     1      39.923 -25.033 -15.256  0.00  0.00    +0.195 C 
ATOM     25  C   UNL     1      39.974 -24.968 -13.753  0.00  0.00    +0.076 C 
ENDBRANCH  22  24
ENDBRANCH  21  22
ENDBRANCH  20  21
ENDBRANCH   3  20
BRANCH   4  27
ATOM     26  O   UNL     1      32.825 -23.077 -12.871  0.00  0.00    -0.245 OA
ATOM     27  C   UNL     1      32.996 -23.825 -13.816  0.00  0.00    +0.342 C 
BRANCH  27  28
ATOM     28  O   UNL     1      32.494 -25.070 -14.001  0.00  0.00    -0.441 OA
ATOM     29  C   UNL     1      31.121 -25.232 -13.631  0.00  0.00    +0.256 C 
ENDBRANCH  27  28
ENDBRANCH   4  27
TORSDOF 8
ENDMDL
MODEL 2
REMARK VINA RESULT:      -6.4      1.782      3.436
REMARK  Name = 2225
REMARK  8 active torsions:
REMARK  status: ('A' for Active; 'I' for Inactive)
REMARK    1  A    between atoms: C_2  and  C_10
REMARK    2  A    between atoms: C_3  and  C_20
REMARK    3  A    between atoms: C_4  and  C_27
REMARK    4  A    between atoms: C_11  and  N_18
REMARK    5  A    between atoms: C_20  and  O_21
REMARK    6  A    between atoms: O_21  and  C_22
REMARK    7  A    between atoms: C_22  and  C_24
REMARK    8  A    between atoms: C_27  and  O_28
REMARK                            x       y       z     vdW  Elec       q    Type
REMARK                         _______ _______ _______ _____ _____    ______ ____
ROOT
ATOM      1  N   UNL     1      32.603 -23.575 -17.117  0.00  0.00    -0.334 N 
ATOM      2  C   UNL     1      34.721 -23.357 -15.249  0.00  0.00    +0.013 C 
ATOM      3  C   UNL     1      34.854 -22.959 -16.722  0.00  0.00    +0.071 C 
ATOM      4  C   UNL     1      33.287 -23.727 -14.857  0.00  0.00    +0.085 C 
ATOM      5  C   UNL     1      33.818 -23.094 -17.581  0.00  0.00    +0.098 C 
ATOM      6  C   UNL     1      32.315 -23.846 -15.790  0.00  0.00    +0.028 C 
ATOM      7  C   UNL     1      33.854 -22.769 -19.051  0.00  0.00    +0.026 C 
ATOM      8  C   UNL     1      30.891 -24.252 -15.519  0.00  0.00    +0.047 C 
ATOM      9  H   UNL     1      31.893 -23.735 -17.781  0.00  0.00    +0.147 HD
ENDROOT
BRANCH   2  10
ATOM     10  C   UNL     1      35.646 -24.499 -14.941  0.00  0.00    +0.023 C 
ATOM     11  C   UNL     1      36.607 -24.396 -13.940  0.00  0.00    +0.143 C 
ATOM     12  C   UNL     1      35.522 -25.670 -15.684  0.00  0.00    +0.002 C 
ATOM     13  C   UNL     1      37.453 -25.474 -13.679  0.00  0.00    +0.024 C 
ATOM     14  C   UNL     1      36.369 -26.748 -15.423  0.00  0.00    +0.000 C 
ATOM     15  C   UNL     1      37.334 -26.650 -14.420  0.00  0.00    +0.002 C 
BRANCH  11  18
ATOM     16  O   UNL     1      36.093 -23.091 -12.110  0.00  0.00    -0.126 OA
ATOM     17  O   UNL     1      37.523 -22.311 -13.583  0.00  0.00    -0.126 OA
ATOM     18  N   UNL     1      36.748 -23.207 -13.173  0.00  0.00    +0.058 N 
ENDBRANCH  11  18
ENDBRANCH   2  10
BRANCH   3  20
ATOM     19  O   UNL     1      37.213 -22.734 -16.697  0.00  0.00    -0.245 OA
ATOM     20  C   UNL     1      36.138 -22.366 -17.132  0.00  0.00    +0.339 C 
BRANCH  20  21
ATOM     21  O   UNL     1      35.888 -21.387 -18.035  0.00  0.00    -0.437 OA
BRANCH  21  22
ATOM     22  C   UNL     1      36.796 -21.337 -19.141  0.00  0.00    +0.272 C 
BRANCH  22  24
ATOM     23  O   UNL     1      37.211 -19.446 -20.574  0.00  0.00    -0.292 OA
ATOM     24  C   UNL     1      36.398 -20.244 -20.109  0.00  0.00    +0.195 C 
ATOM     25  C   UNL     1      34.940 -20.182 -20.481  0.00  0.00    +0.076 C 
ENDBRANCH  22  24
ENDBRANCH  21  22
ENDBRANCH  20  21
ENDBRANCH   3  20
BRANCH   4  27
ATOM     26  O   UNL     1      33.401 -24.855 -12.776  0.00  0.00    -0.245 OA
ATOM     27  C   UNL     1      33.018 -23.896 -13.420  0.00  0.00    +0.342 C 
BRANCH  27  28
ATOM     28  O   UNL     1      32.303 -22.828 -12.990  0.00  0.00    -0.441 OA
ATOM     29  C   UNL     1      31.014 -23.138 -12.451  0.00  0.00    +0.256 C 
ENDBRANCH  27  28
ENDBRANCH   4  27
TORSDOF 8
ENDMDL
MODEL 3
REMARK VINA RESULT:      -6.4     15.367     18.883
REMARK  Name = 2225
REMARK  8 active torsions:
REMARK  status: ('A' for Active; 'I' for Inactive)
REMARK    1  A    between atoms: C_2  and  C_10
REMARK    2  A    between atoms: C_3  and  C_20
REMARK    3  A    between atoms: C_4  and  C_27
REMARK    4  A    between atoms: C_11  and  N_18
REMARK    5  A    between atoms: C_20  and  O_21
REMARK    6  A    between atoms: O_21  and  C_22
REMARK    7  A    between atoms: C_22  and  C_24
REMARK    8  A    between atoms: C_27  and  O_28
REMARK                            x       y       z     vdW  Elec       q    Type
REMARK                         _______ _______ _______ _____ _____    ______ ____
ROOT
ATOM      1  N   UNL     1      31.616 -11.239 -21.190  0.00  0.00    -0.334 N 
ATOM      2  C   UNL     1      32.951  -9.091 -22.468  0.00  0.00    +0.013 C 
ATOM      3  C   UNL     1      32.334  -8.987 -21.069  0.00  0.00    +0.071 C 
ATOM      4  C   UNL     1      32.915 -10.515 -23.031  0.00  0.00    +0.085 C 
ATOM      5  C   UNL     1      31.694 -10.037 -20.505  0.00  0.00    +0.098 C 
ATOM      6  C   UNL     1      32.241 -11.502 -22.399  0.00  0.00    +0.028 C 
ATOM      7  C   UNL     1      31.023 -10.029 -19.157  0.00  0.00    +0.026 C 
ATOM      8  C   UNL     1      32.101 -12.918 -22.891  0.00  0.00    +0.047 C 
ATOM      9  H   UNL     1      31.078 -11.959 -20.788  0.00  0.00    +0.147 HD
ENDROOT
BRANCH   2  10
ATOM     10  C   UNL     1      32.251  -8.151 -23.407  0.00  0.00    +0.023 C 
ATOM     11  C   UNL     1      32.954  -7.166 -24.093  0.00  0.00    +0.143 C 
ATOM     12  C   UNL     1      30.877  -8.287 -23.577  0.00  0.00    +0.002 C 
ATOM     13  C   UNL     1      32.276  -6.307 -24.958  0.00  0.00    +0.024 C 
ATOM     14  C   UNL     1      30.198  -7.427 -24.442  0.00  0.00    +0.000 C 
ATOM     15  C   UNL     1      30.898  -6.438 -25.132  0.00  0.00    +0.002 C 
BRANCH  11  18
ATOM     16  O   UNL     1      35.026  -6.509 -24.864  0.00  0.00    -0.126 OA
ATOM     17  O   UNL     1      34.887  -7.385 -22.855  0.00  0.00    -0.126 OA
ATOM     18  N   UNL     1      34.359  -7.013 -23.929  0.00  0.00    +0.058 N 
ENDBRANCH  11  18
ENDBRANCH   2  10
BRANCH   3  20
ATOM     19  O   UNL     1      33.460  -7.514 -19.593  0.00  0.00    -0.245 OA
ATOM     20  C   UNL     1      32.533  -7.715 -20.354  0.00  0.00    +0.339 C 
BRANCH  20  21
ATOM     21  O   UNL     1      31.531  -6.870 -20.699  0.00  0.00    -0.437 OA
BRANCH  21  22
ATOM     22  C   UNL     1      31.955  -5.570 -21.124  0.00  0.00    +0.272 C 
BRANCH  22  24
ATOM     23  O   UNL     1      29.666  -5.200 -21.778  0.00  0.00    -0.292 OA
ATOM     24  C   UNL     1      30.847  -4.869 -21.880  0.00  0.00    +0.195 C 
ATOM     25  C   UNL     1      31.266  -3.732 -22.773  0.00  0.00    +0.076 C 
ENDBRANCH  22  24
ENDBRANCH  21  22
ENDBRANCH  20  21
ENDBRANCH   3  20
BRANCH   4  27
ATOM     26  O   UNL     1      33.220 -11.287 -25.251  0.00  0.00    -0.245 OA
ATOM     27  C   UNL     1      33.687 -10.758 -24.260  0.00  0.00    +0.342 C 
BRANCH  27  28
ATOM     28  O   UNL     1      34.948 -10.296 -24.072  0.00  0.00    -0.441 OA
ATOM     29  C   UNL     1      35.689 -10.047 -25.270  0.00  0.00    +0.256 C 
ENDBRANCH  27  28
ENDBRANCH   4  27
TORSDOF 8
ENDMDL
MODEL 4
REMARK VINA RESULT:      -6.0      2.415      4.668
REMARK  Name = 2225
REMARK  8 active torsions:
REMARK  status: ('A' for Active; 'I' for Inactive)
REMARK    1  A    between atoms: C_2  and  C_10
REMARK    2  A    between atoms: C_3  and  C_20
REMARK    3  A    between atoms: C_4  and  C_27
REMARK    4  A    between atoms: C_11  and  N_18
REMARK    5  A    between atoms: C_20  and  O_21
REMARK    6  A    between atoms: O_21  and  C_22
REMARK    7  A    between atoms: C_22  and  C_24
REMARK    8  A    between atoms: C_27  and  O_28
REMARK                            x       y       z     vdW  Elec       q    Type
REMARK                         _______ _______ _______ _____ _____    ______ ____
ROOT
ATOM      1  N   UNL     1      33.437 -23.587 -13.394  0.00  0.00    -0.334 N 
ATOM      2  C   UNL     1      34.155 -23.962 -16.108  0.00  0.00    +0.013 C 
ATOM      3  C   UNL     1      34.941 -24.563 -14.938  0.00  0.00    +0.071 C 
ATOM      4  C   UNL     1      32.857 -23.279 -15.667  0.00  0.00    +0.085 C 
ATOM      5  C   UNL     1      34.567 -24.344 -13.657  0.00  0.00    +0.098 C 
ATOM      6  C   UNL     1      32.571 -23.098 -14.358  0.00  0.00    +0.028 C 
ATOM      7  C   UNL     1      35.288 -24.856 -12.438  0.00  0.00    +0.026 C 
ATOM      8  C   UNL     1      31.352 -22.398 -13.820  0.00  0.00    +0.047 C 
ATOM      9  H   UNL     1      33.235 -23.381 -12.452  0.00  0.00    +0.147 HD
ENDROOT
BRANCH   2  10
ATOM     10  C   UNL     1      35.018 -22.986 -16.857  0.00  0.00    +0.023 C 
ATOM     11  C   UNL     1      34.862 -22.793 -18.225  0.00  0.00    +0.143 C 
ATOM     12  C   UNL     1      35.982 -22.276 -16.148  0.00  0.00    +0.002 C 
ATOM     13  C   UNL     1      35.679 -21.881 -18.893  0.00  0.00    +0.024 C 
ATOM     14  C   UNL     1      36.800 -21.364 -16.816  0.00  0.00    +0.000 C 
ATOM     15  C   UNL     1      36.648 -21.167 -18.189  0.00  0.00    +0.002 C 
BRANCH  11  18
ATOM     16  O   UNL     1      33.168 -22.890 -19.788  0.00  0.00    -0.126 OA
ATOM     17  O   UNL     1      33.761 -24.744 -18.772  0.00  0.00    -0.126 OA
ATOM     18  N   UNL     1      33.881 -23.511 -18.965  0.00  0.00    +0.058 N 
ENDBRANCH  11  18
ENDBRANCH   2  10
BRANCH   3  20
ATOM     19  O   UNL     1      35.942 -26.536 -15.790  0.00  0.00    -0.245 OA
ATOM     20  C   UNL     1      36.075 -25.437 -15.286  0.00  0.00    +0.339 C 
BRANCH  20  21
ATOM     21  O   UNL     1      37.223 -24.802 -14.947  0.00  0.00    -0.437 OA
BRANCH  21  22
ATOM     22  C   UNL     1      38.381 -25.640 -14.878  0.00  0.00    +0.272 C 
BRANCH  22  24
ATOM     23  O   UNL     1      40.574 -25.056 -14.070  0.00  0.00    -0.292 OA
ATOM     24  C   UNL     1      39.364 -25.110 -13.856  0.00  0.00    +0.195 C 
ATOM     25  C   UNL     1      38.779 -24.644 -12.549  0.00  0.00    +0.076 C 
ENDBRANCH  22  24
ENDBRANCH  21  22
ENDBRANCH  20  21
ENDBRANCH   3  20
BRANCH   4  27
ATOM     26  O   UNL     1      32.051 -21.859 -17.384  0.00  0.00    -0.245 OA
ATOM     27  C   UNL     1      31.926 -22.880 -16.735  0.00  0.00    +0.342 C 
BRANCH  27  28
ATOM     28  O   UNL     1      30.963 -23.828 -16.839  0.00  0.00    -0.441 OA
ATOM     29  C   UNL     1      29.625 -23.357 -16.646  0.00  0.00    +0.256 C 
ENDBRANCH  27  28
ENDBRANCH   4  27
TORSDOF 8
ENDMDL
MODEL 5
REMARK VINA RESULT:      -5.3      2.409      5.089
REMARK  Name = 2225
REMARK  8 active torsions:
REMARK  status: ('A' for Active; 'I' for Inactive)
REMARK    1  A    between atoms: C_2  and  C_10
REMARK    2  A    between atoms: C_3  and  C_20
REMARK    3  A    between atoms: C_4  and  C_27
REMARK    4  A    between atoms: C_11  and  N_18
REMARK    5  A    between atoms: C_20  and  O_21
REMARK    6  A    between atoms: O_21  and  C_22
REMARK    7  A    between atoms: C_22  and  C_24
REMARK    8  A    between atoms: C_27  and  O_28
REMARK                            x       y       z     vdW  Elec       q    Type
REMARK                         _______ _______ _______ _____ _____    ______ ____
ROOT
ATOM      1  N   UNL     1      38.640 -23.168 -16.216  0.00  0.00    -0.334 N 
ATOM      2  C   UNL     1      36.621 -24.442 -14.690  0.00  0.00    +0.013 C 
ATOM      3  C   UNL     1      36.346 -23.274 -15.642  0.00  0.00    +0.071 C 
ATOM      4  C   UNL     1      38.063 -24.953 -14.773  0.00  0.00    +0.085 C 
ATOM      5  C   UNL     1      37.346 -22.688 -16.340  0.00  0.00    +0.098 C 
ATOM      6  C   UNL     1      38.999 -24.294 -15.493  0.00  0.00    +0.028 C 
ATOM      7  C   UNL     1      37.189 -21.514 -17.270  0.00  0.00    +0.026 C 
ATOM      8  C   UNL     1      40.450 -24.681 -15.600  0.00  0.00    +0.047 C 
ATOM      9  H   UNL     1      39.356 -22.673 -16.675  0.00  0.00    +0.147 HD
ENDROOT
BRANCH   2  10
ATOM     10  C   UNL     1      36.301 -24.040 -13.279  0.00  0.00    +0.023 C 
ATOM     11  C   UNL     1      35.049 -24.287 -12.728  0.00  0.00    +0.143 C 
ATOM     12  C   UNL     1      37.291 -23.409 -12.530  0.00  0.00    +0.002 C 
ATOM     13  C   UNL     1      34.781 -23.900 -11.414  0.00  0.00    +0.024 C 
ATOM     14  C   UNL     1      37.023 -23.022 -11.217  0.00  0.00    +0.000 C 
ATOM     15  C   UNL     1      35.768 -23.268 -10.659  0.00  0.00    +0.002 C 
BRANCH  11  18
ATOM     16  O   UNL     1      34.354 -25.725 -14.392  0.00  0.00    -0.126 OA
ATOM     17  O   UNL     1      32.827 -24.681 -13.207  0.00  0.00    -0.126 OA
ATOM     18  N   UNL     1      34.026 -24.929 -13.480  0.00  0.00    +0.058 N 
ENDBRANCH  11  18
ENDBRANCH   2  10
BRANCH   3  20
ATOM     19  O   UNL     1      34.396 -22.040 -15.100  0.00  0.00    -0.245 OA
ATOM     20  C   UNL     1      34.938 -22.872 -15.803  0.00  0.00    +0.339 C 
BRANCH  20  21
ATOM     21  O   UNL     1      34.407 -23.578 -16.831  0.00  0.00    -0.437 OA
BRANCH  21  22
ATOM     22  C   UNL     1      33.360 -22.913 -17.545  0.00  0.00    +0.272 C 
BRANCH  22  24
ATOM     23  O   UNL     1      34.776 -22.975 -19.493  0.00  0.00    -0.292 OA
ATOM     24  C   UNL     1      33.858 -22.423 -18.888  0.00  0.00    +0.195 C 
ATOM     25  C   UNL     1      33.164 -21.214 -19.455  0.00  0.00    +0.076 C 
ENDBRANCH  22  24
ENDBRANCH  21  22
ENDBRANCH  20  21
ENDBRANCH   3  20
BRANCH   4  27
ATOM     26  O   UNL     1      38.702 -26.267 -12.907  0.00  0.00    -0.245 OA
ATOM     27  C   UNL     1      38.358 -26.213 -14.073  0.00  0.00    +0.342 C 
BRANCH  27  28
ATOM     28  O   UNL     1      38.175 -27.238 -14.941  0.00  0.00    -0.441 OA
ATOM     29  C   UNL     1      36.815 -27.484 -15.312  0.00  0.00    +0.256 C 
ENDBRANCH  27  28
ENDBRANCH   4  27
TORSDOF 8
ENDMDL
MODEL 6
REMARK VINA RESULT:      -5.1     12.435     16.039
REMARK  Name = 2225
REMARK  8 active torsions:
REMARK  status: ('A' for Active; 'I' for Inactive)
REMARK    1  A    between atoms: C_2  and  C_10
REMARK    2  A    between atoms: C_3  and  C_20
REMARK    3  A    between atoms: C_4  and  C_27
REMARK    4  A    between atoms: C_11  and  N_18
REMARK    5  A    between atoms: C_20  and  O_21
REMARK    6  A    between atoms: O_21  and  C_22
REMARK    7  A    between atoms: C_22  and  C_24
REMARK    8  A    between atoms: C_27  and  O_28
REMARK                            x       y       z     vdW  Elec       q    Type
REMARK                         _______ _______ _______ _____ _____    ______ ____
ROOT
ATOM      1  N   UNL     1      31.523 -13.010 -21.311  0.00  0.00    -0.334 N 
ATOM      2  C   UNL     1      33.552 -12.376 -23.184  0.00  0.00    +0.013 C 
ATOM      3  C   UNL     1      32.476 -11.380 -22.738  0.00  0.00    +0.071 C 
ATOM      4  C   UNL     1      33.515 -13.688 -22.394  0.00  0.00    +0.085 C 
ATOM      5  C   UNL     1      31.518 -11.733 -21.851  0.00  0.00    +0.098 C 
ATOM      6  C   UNL     1      32.510 -13.957 -21.531  0.00  0.00    +0.028 C 
ATOM      7  C   UNL     1      30.398 -10.847 -21.377  0.00  0.00    +0.026 C 
ATOM      8  C   UNL     1      32.352 -15.232 -20.746  0.00  0.00    +0.047 C 
ATOM      9  H   UNL     1      30.769 -13.262 -20.729  0.00  0.00    +0.147 HD
ENDROOT
BRANCH   2  10
ATOM     10  C   UNL     1      33.412 -12.658 -24.652  0.00  0.00    +0.023 C 
ATOM     11  C   UNL     1      34.126 -11.927 -25.596  0.00  0.00    +0.143 C 
ATOM     12  C   UNL     1      32.546 -13.672 -25.052  0.00  0.00    +0.002 C 
ATOM     13  C   UNL     1      33.973 -12.212 -26.953  0.00  0.00    +0.024 C 
ATOM     14  C   UNL     1      32.394 -13.957 -26.409  0.00  0.00    +0.000 C 
ATOM     15  C   UNL     1      33.108 -13.227 -27.359  0.00  0.00    +0.002 C 
BRANCH  11  18
ATOM     16  O   UNL     1      35.403 -10.066 -26.069  0.00  0.00    -0.126 OA
ATOM     17  O   UNL     1      35.378 -10.819 -24.007  0.00  0.00    -0.126 OA
ATOM     18  N   UNL     1      35.013 -10.886 -25.205  0.00  0.00    +0.058 N 
ENDBRANCH  11  18
ENDBRANCH   2  10
BRANCH   3  20
ATOM     19  O   UNL     1      32.008  -9.642 -24.281  0.00  0.00    -0.245 OA
ATOM     20  C   UNL     1      32.582 -10.012 -23.274  0.00  0.00    +0.339 C 
BRANCH  20  21
ATOM     21  O   UNL     1      33.399  -9.297 -22.462  0.00  0.00    -0.437 OA
BRANCH  21  22
ATOM     22  C   UNL     1      33.056  -7.914 -22.323  0.00  0.00    +0.272 C 
BRANCH  22  24
ATOM     23  O   UNL     1      32.650  -8.436 -20.007  0.00  0.00    -0.292 OA
ATOM     24  C   UNL     1      32.535  -7.632 -20.930  0.00  0.00    +0.195 C 
ATOM     25  C   UNL     1      31.863  -6.300 -20.728  0.00  0.00    +0.076 C 
ENDBRANCH  22  24
ENDBRANCH  21  22
ENDBRANCH  20  21
ENDBRANCH   3  20
BRANCH   4  27
ATOM     26  O   UNL     1      35.472 -14.844 -21.726  0.00  0.00    -0.245 OA
ATOM     27  C   UNL     1      34.648 -14.606 -22.588  0.00  0.00    +0.342 C 
BRANCH  27  28
ATOM     28  O   UNL     1      34.585 -15.104 -23.848  0.00  0.00    -0.441 OA
ATOM     29  C   UNL     1      34.693 -16.528 -23.945  0.00  0.00    +0.256 C 
ENDBRANCH  27  28
ENDBRANCH   4  27
TORSDOF 8
ENDMDL
