MODEL 1
REMARK VINA RESULT:     -10.4      0.000      0.000
REMARK  Name = 487101
REMARK  4 active torsions:
REMARK  status: ('A' for Active; 'I' for Inactive)
REMARK    1  A    between atoms: C_5  and  N_25
REMARK    2  A    between atoms: C_13  and  C_32
REMARK    3  A    between atoms: C_26  and  O_29
REMARK    4  A    between atoms: C_32  and  O_33
REMARK                            x       y       z     vdW  Elec       q    Type
REMARK                         _______ _______ _______ _____ _____    ______ ____
ROOT
ATOM      1 CL   UNL     1      36.634 -22.723 -16.390  0.00  0.00    -0.080 Cl
ATOM      2  F   UNL     1      33.132 -21.575 -19.808  0.00  0.00    -0.203 F 
ATOM      3  O   UNL     1      30.332 -23.763 -16.264  0.00  0.00    -0.286 OA
ATOM      4  N   UNL     1      34.178 -23.974 -14.849  0.00  0.00    -0.237 N 
ATOM      5  C   UNL     1      34.696 -22.187 -18.132  0.00  0.00    +0.088 C 
ATOM      6  C   UNL     1      34.962 -22.781 -16.893  0.00  0.00    +0.087 C 
ATOM      7  C   UNL     1      33.934 -23.357 -16.123  0.00  0.00    +0.073 C 
ATOM      8  C   UNL     1      33.397 -22.142 -18.623  0.00  0.00    +0.154 C 
ATOM      9  C   UNL     1      32.618 -23.273 -16.632  0.00  0.00    +0.056 C 
ATOM     10  C   UNL     1      32.354 -22.679 -17.873  0.00  0.00    +0.035 C 
ATOM     11  C   UNL     1      31.479 -23.795 -15.837  0.00  0.00    +0.204 C 
ATOM     12  C   UNL     1      33.071 -24.398 -14.117  0.00  0.00    +0.082 C 
ATOM     13  C   UNL     1      31.789 -24.350 -14.500  0.00  0.00    +0.129 C 
ATOM     14  F   UNL     1      35.475 -26.354 -15.363  0.00  0.00    -0.200 F 
ATOM     15  F   UNL     1      39.201 -24.956 -12.795  0.00  0.00    -0.223 F 
ATOM     16  N   UNL     1      36.071 -23.266 -13.543  0.00  0.00    -0.371 NA
ATOM     17  N   UNL     1      37.950 -22.574 -12.255  0.00  0.00    -0.334 N 
ATOM     18  C   UNL     1      35.482 -24.221 -14.310  0.00  0.00    +0.220 C 
ATOM     19  C   UNL     1      36.089 -25.439 -14.603  0.00  0.00    +0.183 C 
ATOM     20  C   UNL     1      37.356 -25.689 -14.086  0.00  0.00    +0.051 C 
ATOM     21  C   UNL     1      37.303 -23.544 -13.059  0.00  0.00    +0.193 C 
ATOM     22  C   UNL     1      37.981 -24.729 -13.298  0.00  0.00    +0.251 C 
ATOM     23  H   UNL     1      37.503 -21.719 -12.060  0.00  0.00    +0.144 HD
ATOM     24  H   UNL     1      38.847 -22.756 -11.891  0.00  0.00    +0.144 HD
ENDROOT
BRANCH   5  25
ATOM     25  N   UNL     1      35.709 -21.619 -18.915  0.00  0.00    -0.300 N 
ATOM     26  C   UNL     1      37.219 -20.847 -20.053  0.00  0.00    +0.150 C 
ATOM     27  C   UNL     1      35.832 -21.440 -20.322  0.00  0.00    +0.122 C 
ATOM     28  C   UNL     1      36.799 -20.767 -18.582  0.00  0.00    +0.122 C 
BRANCH  26  29
ATOM     29  O   UNL     1      37.493 -19.581 -20.697  0.00  0.00    -0.381 OA
ATOM     30  H   UNL     1      38.417 -19.333 -20.541  0.00  0.00    +0.210 HD
ENDBRANCH  26  29
ENDBRANCH   5  25
BRANCH  13  32
ATOM     31  O   UNL     1      30.590 -24.462 -12.450  0.00  0.00    -0.245 OA
ATOM     32  C   UNL     1      30.770 -24.867 -13.585  0.00  0.00    +0.342 C 
BRANCH  32  33
ATOM     33  O   UNL     1      30.072 -25.850 -14.192  0.00  0.00    -0.477 OA
ATOM     34  H   UNL     1      29.232 -25.665 -14.566  0.00  0.00    +0.295 HD
ENDBRANCH  32  33
ENDBRANCH  13  32
TORSDOF 4
ENDMDL
MODEL 2
REMARK VINA RESULT:      -9.6      3.322      5.320
REMARK  Name = 487101
REMARK  4 active torsions:
REMARK  status: ('A' for Active; 'I' for Inactive)
REMARK    1  A    between atoms: C_5  and  N_25
REMARK    2  A    between atoms: C_13  and  C_32
REMARK    3  A    between atoms: C_26  and  O_29
REMARK    4  A    between atoms: C_32  and  O_33
REMARK                            x       y       z     vdW  Elec       q    Type
REMARK                         _______ _______ _______ _____ _____    ______ ____
ROOT
ATOM      1 CL   UNL     1      32.633 -22.909 -17.292  0.00  0.00    -0.080 Cl
ATOM      2  F   UNL     1      37.437 -21.620 -18.013  0.00  0.00    -0.203 F 
ATOM      3  O   UNL     1      37.668 -23.654 -13.432  0.00  0.00    -0.286 OA
ATOM      4  N   UNL     1      33.706 -23.864 -14.480  0.00  0.00    -0.237 N 
ATOM      5  C   UNL     1      35.198 -22.254 -17.549  0.00  0.00    +0.088 C 
ATOM      6  C   UNL     1      34.264 -22.817 -16.673  0.00  0.00    +0.087 C 
ATOM      7  C   UNL     1      34.644 -23.283 -15.401  0.00  0.00    +0.073 C 
ATOM      8  C   UNL     1      36.535 -22.156 -17.181  0.00  0.00    +0.154 C 
ATOM      9  C   UNL     1      36.013 -23.199 -15.061  0.00  0.00    +0.056 C 
ATOM     10  C   UNL     1      36.947 -22.634 -15.940  0.00  0.00    +0.035 C 
ATOM     11  C   UNL     1      36.493 -23.739 -13.765  0.00  0.00    +0.204 C 
ATOM     12  C   UNL     1      34.213 -24.407 -13.302  0.00  0.00    +0.082 C 
ATOM     13  C   UNL     1      35.489 -24.392 -12.896  0.00  0.00    +0.129 C 
ATOM     14  F   UNL     1      32.145 -21.795 -13.537  0.00  0.00    -0.200 F 
ATOM     15  F   UNL     1      28.242 -23.882 -15.225  0.00  0.00    -0.223 F 
ATOM     16  N   UNL     1      31.722 -24.924 -15.336  0.00  0.00    -0.371 NA
ATOM     17  N   UNL     1      29.754 -25.963 -16.180  0.00  0.00    -0.334 N 
ATOM     18  C   UNL     1      32.287 -23.878 -14.678  0.00  0.00    +0.220 C 
ATOM     19  C   UNL     1      31.550 -22.808 -14.180  0.00  0.00    +0.183 C 
ATOM     20  C   UNL     1      30.171 -22.810 -14.367  0.00  0.00    +0.051 C 
ATOM     21  C   UNL     1      30.381 -24.891 -15.499  0.00  0.00    +0.193 C 
ATOM     22  C   UNL     1      29.568 -23.867 -15.037  0.00  0.00    +0.251 C 
ATOM     23  H   UNL     1      30.295 -26.711 -16.524  0.00  0.00    +0.144 HD
ATOM     24  H   UNL     1      28.778 -25.961 -16.310  0.00  0.00    +0.144 HD
ENDROOT
BRANCH   5  25
ATOM     25  N   UNL     1      34.835 -21.775 -18.815  0.00  0.00    -0.300 N 
ATOM     26  C   UNL     1      34.308 -21.139 -20.683  0.00  0.00    +0.150 C 
ATOM     27  C   UNL     1      33.569 -21.445 -19.377  0.00  0.00    +0.122 C 
ATOM     28  C   UNL     1      35.597 -21.173 -19.855  0.00  0.00    +0.122 C 
BRANCH  26  29
ATOM     29  O   UNL     1      33.992 -19.870 -21.298  0.00  0.00    -0.381 OA
ATOM     30  H   UNL     1      34.260 -19.886 -22.229  0.00  0.00    +0.210 HD
ENDBRANCH  26  29
ENDBRANCH   5  25
BRANCH  13  32
ATOM     31  O   UNL     1      35.255 -24.746 -10.556  0.00  0.00    -0.245 OA
ATOM     32  C   UNL     1      35.816 -25.005 -11.607  0.00  0.00    +0.342 C 
BRANCH  32  33
ATOM     33  O   UNL     1      36.822 -25.891 -11.767  0.00  0.00    -0.477 OA
ATOM     34  H   UNL     1      36.760 -26.556 -12.424  0.00  0.00    +0.295 HD
ENDBRANCH  32  33
ENDBRANCH  13  32
TORSDOF 4
ENDMDL
