MODEL 1
REMARK VINA RESULT:      -6.5      0.000      0.000
REMARK  Name = 4581
REMARK  5 active torsions:
REMARK  status: ('A' for Active; 'I' for Inactive)
REMARK    1  A    between atoms: C_1  and  C_2
REMARK    2  A    between atoms: C_1  and  O_10
REMARK    3  A    between atoms: C_1  and  C_12
REMARK    4  A    between atoms: C_7  and  O_8
REMARK    5  A    between atoms: C_12  and  N_13
REMARK                            x       y       z     vdW  Elec       q    Type
REMARK                         _______ _______ _______ _____ _____    ______ ____
ROOT
ATOM      1  C   UNL     1      35.726 -18.398 -21.710  0.00  0.00    +0.111 C 
ENDROOT
BRANCH   1   2
ATOM      2  C   UNL     1      34.982 -19.463 -20.978  0.00  0.00    +0.002 C 
ATOM      3  C   UNL     1      33.588 -19.466 -20.979  0.00  0.00    +0.001 C 
ATOM      4  C   UNL     1      35.683 -20.455 -20.291  0.00  0.00    +0.001 C 
ATOM      5  C   UNL     1      32.893 -20.463 -20.293  0.00  0.00    +0.036 C 
ATOM      6  C   UNL     1      34.987 -21.452 -19.605  0.00  0.00    +0.036 C 
ATOM      7  C   UNL     1      33.592 -21.455 -19.606  0.00  0.00    +0.134 C 
BRANCH   7   8
ATOM      8  O   UNL     1      32.913 -22.427 -18.938  0.00  0.00    -0.506 OA
ATOM      9  H   UNL     1      32.156 -22.206 -18.432  0.00  0.00    +0.292 HD
ENDBRANCH   7   8
ENDBRANCH   1   2
BRANCH   1  10
ATOM     10  O   UNL     1      35.341 -17.117 -21.194  0.00  0.00    -0.382 OA
ATOM     11  H   UNL     1      36.040 -16.470 -21.380  0.00  0.00    +0.211 HD
ENDBRANCH   1  10
BRANCH   1  12
ATOM     12  C   UNL     1      35.459 -18.437 -23.228  0.00  0.00    -0.052 C 
BRANCH  12  13
ATOM     13  N   UNL     1      35.490 -17.099 -23.814  0.00  0.00    +0.382 N 
ATOM     14  H   UNL     1      36.458 -16.789 -23.904  0.00  0.00    -0.089 HD
ATOM     15  H   UNL     1      34.980 -16.452 -23.213  0.00  0.00    -0.089 HD
ATOM     16  H   UNL     1      35.055 -17.122 -24.736  0.00  0.00    -0.089 HD
ENDBRANCH  12  13
ENDBRANCH   1  12
TORSDOF 5
ENDMDL
MODEL 2
REMARK VINA RESULT:      -6.5      0.063      1.458
REMARK  Name = 4581
REMARK  5 active torsions:
REMARK  status: ('A' for Active; 'I' for Inactive)
REMARK    1  A    between atoms: C_1  and  C_2
REMARK    2  A    between atoms: C_1  and  O_10
REMARK    3  A    between atoms: C_1  and  C_12
REMARK    4  A    between atoms: C_7  and  O_8
REMARK    5  A    between atoms: C_12  and  N_13
REMARK                            x       y       z     vdW  Elec       q    Type
REMARK                         _______ _______ _______ _____ _____    ______ ____
ROOT
ATOM      1  C   UNL     1      35.745 -18.358 -21.663  0.00  0.00    +0.111 C 
ENDROOT
BRANCH   1   2
ATOM      2  C   UNL     1      34.983 -19.421 -20.949  0.00  0.00    +0.002 C 
ATOM      3  C   UNL     1      35.665 -20.438 -20.281  0.00  0.00    +0.001 C 
ATOM      4  C   UNL     1      33.588 -19.400 -20.950  0.00  0.00    +0.001 C 
ATOM      5  C   UNL     1      34.951 -21.433 -19.612  0.00  0.00    +0.036 C 
ATOM      6  C   UNL     1      32.875 -20.395 -20.282  0.00  0.00    +0.036 C 
ATOM      7  C   UNL     1      33.557 -21.412 -19.613  0.00  0.00    +0.134 C 
BRANCH   7   8
ATOM      8  O   UNL     1      32.861 -22.383 -18.961  0.00  0.00    -0.506 OA
ATOM      9  H   UNL     1      31.924 -22.371 -18.964  0.00  0.00    +0.292 HD
ENDBRANCH   7   8
ENDBRANCH   1   2
BRANCH   1  10
ATOM     10  O   UNL     1      35.337 -17.075 -21.167  0.00  0.00    -0.382 OA
ATOM     11  H   UNL     1      35.900 -16.385 -21.554  0.00  0.00    +0.211 HD
ENDBRANCH   1  10
BRANCH   1  12
ATOM     12  C   UNL     1      35.527 -18.407 -23.189  0.00  0.00    -0.052 C 
BRANCH  12  13
ATOM     13  N   UNL     1      35.553 -17.070 -23.780  0.00  0.00    +0.382 N 
ATOM     14  H   UNL     1      34.606 -16.695 -23.813  0.00  0.00    -0.089 HD
ATOM     15  H   UNL     1      35.932 -17.124 -24.725  0.00  0.00    -0.089 HD
ATOM     16  H   UNL     1      36.141 -16.460 -23.212  0.00  0.00    -0.089 HD
ENDBRANCH  12  13
ENDBRANCH   1  12
TORSDOF 5
ENDMDL
MODEL 3
REMARK VINA RESULT:      -6.1      2.614      4.952
REMARK  Name = 4581
REMARK  5 active torsions:
REMARK  status: ('A' for Active; 'I' for Inactive)
REMARK    1  A    between atoms: C_1  and  C_2
REMARK    2  A    between atoms: C_1  and  O_10
REMARK    3  A    between atoms: C_1  and  C_12
REMARK    4  A    between atoms: C_7  and  O_8
REMARK    5  A    between atoms: C_12  and  N_13
REMARK                            x       y       z     vdW  Elec       q    Type
REMARK                         _______ _______ _______ _____ _____    ______ ____
ROOT
ATOM      1  C   UNL     1      34.915 -19.061 -20.820  0.00  0.00    +0.111 C 
ENDROOT
BRANCH   1   2
ATOM      2  C   UNL     1      34.867 -18.430 -22.169  0.00  0.00    +0.002 C 
ATOM      3  C   UNL     1      34.703 -19.224 -23.304  0.00  0.00    +0.001 C 
ATOM      4  C   UNL     1      34.988 -17.046 -22.296  0.00  0.00    +0.001 C 
ATOM      5  C   UNL     1      34.659 -18.632 -24.568  0.00  0.00    +0.036 C 
ATOM      6  C   UNL     1      34.943 -16.455 -23.559  0.00  0.00    +0.036 C 
ATOM      7  C   UNL     1      34.779 -17.248 -24.694  0.00  0.00    +0.134 C 
BRANCH   7   8
ATOM      8  O   UNL     1      34.735 -16.673 -25.927  0.00  0.00    -0.506 OA
ATOM      9  H   UNL     1      34.987 -15.776 -26.034  0.00  0.00    +0.292 HD
ENDBRANCH   7   8
ENDBRANCH   1   2
BRANCH   1  10
ATOM     10  O   UNL     1      36.280 -19.346 -20.483  0.00  0.00    -0.382 OA
ATOM     11  H   UNL     1      36.842 -18.602 -20.754  0.00  0.00    +0.211 HD
ENDBRANCH   1  10
BRANCH   1  12
ATOM     12  C   UNL     1      34.092 -20.363 -20.752  0.00  0.00    -0.052 C 
BRANCH  12  13
ATOM     13  N   UNL     1      32.716 -20.108 -20.331  0.00  0.00    +0.382 N 
ATOM     14  H   UNL     1      32.589 -19.110 -20.167  0.00  0.00    -0.089 HD
ATOM     15  H   UNL     1      32.523 -20.621 -19.471  0.00  0.00    -0.089 HD
ATOM     16  H   UNL     1      32.075 -20.416 -21.062  0.00  0.00    -0.089 HD
ENDBRANCH  12  13
ENDBRANCH   1  12
TORSDOF 5
ENDMDL
MODEL 4
REMARK VINA RESULT:      -6.0      3.363      5.442
REMARK  Name = 4581
REMARK  5 active torsions:
REMARK  status: ('A' for Active; 'I' for Inactive)
REMARK    1  A    between atoms: C_1  and  C_2
REMARK    2  A    between atoms: C_1  and  O_10
REMARK    3  A    between atoms: C_1  and  C_12
REMARK    4  A    between atoms: C_7  and  O_8
REMARK    5  A    between atoms: C_12  and  N_13
REMARK                            x       y       z     vdW  Elec       q    Type
REMARK                         _______ _______ _______ _____ _____    ______ ____
ROOT
ATOM      1  C   UNL     1      33.458 -22.784 -18.416  0.00  0.00    +0.111 C 
ENDROOT
BRANCH   1   2
ATOM      2  C   UNL     1      34.125 -21.746 -19.252  0.00  0.00    +0.002 C 
ATOM      3  C   UNL     1      35.517 -21.686 -19.310  0.00  0.00    +0.001 C 
ATOM      4  C   UNL     1      33.356 -20.833 -19.975  0.00  0.00    +0.001 C 
ATOM      5  C   UNL     1      36.141 -20.714 -20.093  0.00  0.00    +0.036 C 
ATOM      6  C   UNL     1      33.981 -19.861 -20.758  0.00  0.00    +0.036 C 
ATOM      7  C   UNL     1      35.373 -19.802 -20.816  0.00  0.00    +0.134 C 
BRANCH   7   8
ATOM      8  O   UNL     1      35.983 -18.854 -21.579  0.00  0.00    -0.506 OA
ATOM      9  H   UNL     1      36.541 -19.111 -22.287  0.00  0.00    +0.292 HD
ENDBRANCH   7   8
ENDBRANCH   1   2
BRANCH   1  10
ATOM     10  O   UNL     1      32.125 -22.352 -18.109  0.00  0.00    -0.382 OA
ATOM     11  H   UNL     1      31.678 -23.034 -17.582  0.00  0.00    +0.211 HD
ENDBRANCH   1  10
BRANCH   1  12
ATOM     12  C   UNL     1      34.220 -23.058 -17.105  0.00  0.00    -0.052 C 
BRANCH  12  13
ATOM     13  N   UNL     1      33.307 -23.337 -15.999  0.00  0.00    +0.382 N 
ATOM     14  H   UNL     1      32.383 -23.559 -16.369  0.00  0.00    -0.089 HD
ATOM     15  H   UNL     1      33.243 -22.517 -15.396  0.00  0.00    -0.089 HD
ATOM     16  H   UNL     1      33.657 -24.129 -15.461  0.00  0.00    -0.089 HD
ENDBRANCH  12  13
ENDBRANCH   1  12
TORSDOF 5
ENDMDL
MODEL 5
REMARK VINA RESULT:      -6.0      3.218      5.421
REMARK  Name = 4581
REMARK  5 active torsions:
REMARK  status: ('A' for Active; 'I' for Inactive)
REMARK    1  A    between atoms: C_1  and  C_2
REMARK    2  A    between atoms: C_1  and  O_10
REMARK    3  A    between atoms: C_1  and  C_12
REMARK    4  A    between atoms: C_7  and  O_8
REMARK    5  A    between atoms: C_12  and  N_13
REMARK                            x       y       z     vdW  Elec       q    Type
REMARK                         _______ _______ _______ _____ _____    ______ ____
ROOT
ATOM      1  C   UNL     1      35.081 -17.919 -21.309  0.00  0.00    +0.111 C 
ENDROOT
BRANCH   1   2
ATOM      2  C   UNL     1      34.744 -17.318 -22.631  0.00  0.00    +0.002 C 
ATOM      3  C   UNL     1      35.003 -18.024 -23.805  0.00  0.00    +0.001 C 
ATOM      4  C   UNL     1      34.170 -16.047 -22.692  0.00  0.00    +0.001 C 
ATOM      5  C   UNL     1      34.687 -17.460 -25.042  0.00  0.00    +0.036 C 
ATOM      6  C   UNL     1      33.855 -15.484 -23.929  0.00  0.00    +0.036 C 
ATOM      7  C   UNL     1      34.114 -16.190 -25.103  0.00  0.00    +0.134 C 
BRANCH   7   8
ATOM      8  O   UNL     1      33.806 -15.641 -26.310  0.00  0.00    -0.506 OA
ATOM      9  H   UNL     1      34.418 -15.692 -27.018  0.00  0.00    +0.292 HD
ENDBRANCH   7   8
ENDBRANCH   1   2
BRANCH   1  10
ATOM     10  O   UNL     1      35.364 -16.869 -20.375  0.00  0.00    -0.382 OA
ATOM     11  H   UNL     1      35.353 -17.227 -19.473  0.00  0.00    +0.211 HD
ENDBRANCH   1  10
BRANCH   1  12
ATOM     12  C   UNL     1      36.293 -18.869 -21.391  0.00  0.00    -0.052 C 
BRANCH  12  13
ATOM     13  N   UNL     1      36.507 -19.578 -20.131  0.00  0.00    +0.382 N 
ATOM     14  H   UNL     1      36.208 -20.547 -20.231  0.00  0.00    -0.089 HD
ATOM     15  H   UNL     1      35.965 -19.129 -19.393  0.00  0.00    -0.089 HD
ATOM     16  H   UNL     1      37.498 -19.551 -19.890  0.00  0.00    -0.089 HD
ENDBRANCH  12  13
ENDBRANCH   1  12
TORSDOF 5
ENDMDL
MODEL 6
REMARK VINA RESULT:      -5.7      4.285      5.591
REMARK  Name = 4581
REMARK  5 active torsions:
REMARK  status: ('A' for Active; 'I' for Inactive)
REMARK    1  A    between atoms: C_1  and  C_2
REMARK    2  A    between atoms: C_1  and  O_10
REMARK    3  A    between atoms: C_1  and  C_12
REMARK    4  A    between atoms: C_7  and  O_8
REMARK    5  A    between atoms: C_12  and  N_13
REMARK                            x       y       z     vdW  Elec       q    Type
REMARK                         _______ _______ _______ _____ _____    ______ ____
ROOT
ATOM      1  C   UNL     1      33.285 -13.086 -22.883  0.00  0.00    +0.111 C 
ENDROOT
BRANCH   1   2
ATOM      2  C   UNL     1      33.870 -14.335 -22.317  0.00  0.00    +0.002 C 
ATOM      3  C   UNL     1      34.455 -15.277 -23.163  0.00  0.00    +0.001 C 
ATOM      4  C   UNL     1      33.831 -14.560 -20.941  0.00  0.00    +0.001 C 
ATOM      5  C   UNL     1      35.002 -16.446 -22.631  0.00  0.00    +0.036 C 
ATOM      6  C   UNL     1      34.379 -15.730 -20.410  0.00  0.00    +0.036 C 
ATOM      7  C   UNL     1      34.963 -16.672 -21.256  0.00  0.00    +0.134 C 
BRANCH   7   8
ATOM      8  O   UNL     1      35.498 -17.812 -20.739  0.00  0.00    -0.506 OA
ATOM      9  H   UNL     1      35.319 -18.638 -21.144  0.00  0.00    +0.292 HD
ENDBRANCH   7   8
ENDBRANCH   1   2
BRANCH   1  10
ATOM     10  O   UNL     1      31.855 -13.175 -22.836  0.00  0.00    -0.382 OA
ATOM     11  H   UNL     1      31.577 -13.452 -21.948  0.00  0.00    +0.211 HD
ENDBRANCH   1  10
BRANCH   1  12
ATOM     12  C   UNL     1      33.733 -12.837 -24.337  0.00  0.00    -0.052 C 
BRANCH  12  13
ATOM     13  N   UNL     1      34.361 -11.527 -24.491  0.00  0.00    +0.382 N 
ATOM     14  H   UNL     1      33.679 -10.863 -24.855  0.00  0.00    -0.089 HD
ATOM     15  H   UNL     1      35.145 -11.600 -25.139  0.00  0.00    -0.089 HD
ATOM     16  H   UNL     1      34.698 -11.204 -23.584  0.00  0.00    -0.089 HD
ENDBRANCH  12  13
ENDBRANCH   1  12
TORSDOF 5
ENDMDL
MODEL 7
REMARK VINA RESULT:      -5.6      8.052      8.801
REMARK  Name = 4581
REMARK  5 active torsions:
REMARK  status: ('A' for Active; 'I' for Inactive)
REMARK    1  A    between atoms: C_1  and  C_2
REMARK    2  A    between atoms: C_1  and  O_10
REMARK    3  A    between atoms: C_1  and  C_12
REMARK    4  A    between atoms: C_7  and  O_8
REMARK    5  A    between atoms: C_12  and  N_13
REMARK                            x       y       z     vdW  Elec       q    Type
REMARK                         _______ _______ _______ _____ _____    ______ ____
ROOT
ATOM      1  C   UNL     1      32.303 -24.014 -13.807  0.00  0.00    +0.111 C 
ENDROOT
BRANCH   1   2
ATOM      2  C   UNL     1      31.114 -23.971 -14.706  0.00  0.00    +0.002 C 
ATOM      3  C   UNL     1      31.006 -22.973 -15.673  0.00  0.00    +0.001 C 
ATOM      4  C   UNL     1      30.109 -24.930 -14.577  0.00  0.00    +0.001 C 
ATOM      5  C   UNL     1      29.893 -22.934 -16.513  0.00  0.00    +0.036 C 
ATOM      6  C   UNL     1      28.996 -24.891 -15.418  0.00  0.00    +0.036 C 
ATOM      7  C   UNL     1      28.888 -23.892 -16.385  0.00  0.00    +0.134 C 
BRANCH   7   8
ATOM      8  O   UNL     1      27.803 -23.853 -17.206  0.00  0.00    -0.506 OA
ATOM      9  H   UNL     1      27.659 -24.542 -17.824  0.00  0.00    +0.292 HD
ENDBRANCH   7   8
ENDBRANCH   1   2
BRANCH   1  10
ATOM     10  O   UNL     1      32.230 -22.922 -12.881  0.00  0.00    -0.382 OA
ATOM     11  H   UNL     1      31.387 -22.959 -12.402  0.00  0.00    +0.211 HD
ENDBRANCH   1  10
BRANCH   1  12
ATOM     12  C   UNL     1      33.630 -23.933 -14.588  0.00  0.00    -0.052 C 
BRANCH  12  13
ATOM     13  N   UNL     1      34.564 -24.977 -14.173  0.00  0.00    +0.382 N 
ATOM     14  H   UNL     1      34.252 -25.877 -14.536  0.00  0.00    -0.089 HD
ATOM     15  H   UNL     1      34.599 -25.015 -13.154  0.00  0.00    -0.089 HD
ATOM     16  H   UNL     1      35.492 -24.766 -14.538  0.00  0.00    -0.089 HD
ENDBRANCH  12  13
ENDBRANCH   1  12
TORSDOF 5
ENDMDL
MODEL 8
REMARK VINA RESULT:      -5.6      8.051      8.816
REMARK  Name = 4581
REMARK  5 active torsions:
REMARK  status: ('A' for Active; 'I' for Inactive)
REMARK    1  A    between atoms: C_1  and  C_2
REMARK    2  A    between atoms: C_1  and  O_10
REMARK    3  A    between atoms: C_1  and  C_12
REMARK    4  A    between atoms: C_7  and  O_8
REMARK    5  A    between atoms: C_12  and  N_13
REMARK                            x       y       z     vdW  Elec       q    Type
REMARK                         _______ _______ _______ _____ _____    ______ ____
ROOT
ATOM      1  C   UNL     1      32.301 -24.011 -13.808  0.00  0.00    +0.111 C 
ENDROOT
BRANCH   1   2
ATOM      2  C   UNL     1      31.111 -23.969 -14.705  0.00  0.00    +0.002 C 
ATOM      3  C   UNL     1      30.107 -24.928 -14.577  0.00  0.00    +0.001 C 
ATOM      4  C   UNL     1      31.004 -22.970 -15.673  0.00  0.00    +0.001 C 
ATOM      5  C   UNL     1      28.993 -24.887 -15.417  0.00  0.00    +0.036 C 
ATOM      6  C   UNL     1      29.890 -22.930 -16.513  0.00  0.00    +0.036 C 
ATOM      7  C   UNL     1      28.886 -23.889 -16.385  0.00  0.00    +0.134 C 
BRANCH   7   8
ATOM      8  O   UNL     1      27.799 -23.851 -17.203  0.00  0.00    -0.506 OA
ATOM      9  H   UNL     1      27.412 -24.649 -17.506  0.00  0.00    +0.292 HD
ENDBRANCH   7   8
ENDBRANCH   1   2
BRANCH   1  10
ATOM     10  O   UNL     1      32.230 -22.918 -12.883  0.00  0.00    -0.382 OA
ATOM     11  H   UNL     1      31.370 -22.476 -12.969  0.00  0.00    +0.211 HD
ENDBRANCH   1  10
BRANCH   1  12
ATOM     12  C   UNL     1      33.627 -23.930 -14.591  0.00  0.00    -0.052 C 
BRANCH  12  13
ATOM     13  N   UNL     1      34.558 -24.979 -14.182  0.00  0.00    +0.382 N 
ATOM     14  H   UNL     1      35.174 -24.621 -13.452  0.00  0.00    -0.089 HD
ATOM     15  H   UNL     1      35.116 -25.270 -14.984  0.00  0.00    -0.089 HD
ATOM     16  H   UNL     1      34.035 -25.777 -13.823  0.00  0.00    -0.089 HD
ENDBRANCH  12  13
ENDBRANCH   1  12
TORSDOF 5
ENDMDL
MODEL 9
REMARK VINA RESULT:      -5.6      4.039      5.920
REMARK  Name = 4581
REMARK  5 active torsions:
REMARK  status: ('A' for Active; 'I' for Inactive)
REMARK    1  A    between atoms: C_1  and  C_2
REMARK    2  A    between atoms: C_1  and  O_10
REMARK    3  A    between atoms: C_1  and  C_12
REMARK    4  A    between atoms: C_7  and  O_8
REMARK    5  A    between atoms: C_12  and  N_13
REMARK                            x       y       z     vdW  Elec       q    Type
REMARK                         _______ _______ _______ _____ _____    ______ ____
ROOT
ATOM      1  C   UNL     1      35.303 -16.821 -22.363  0.00  0.00    +0.111 C 
ENDROOT
BRANCH   1   2
ATOM      2  C   UNL     1      34.306 -15.718 -22.254  0.00  0.00    +0.002 C 
ATOM      3  C   UNL     1      33.731 -15.418 -21.020  0.00  0.00    +0.001 C 
ATOM      4  C   UNL     1      33.949 -14.988 -23.388  0.00  0.00    +0.001 C 
ATOM      5  C   UNL     1      32.797 -14.386 -20.919  0.00  0.00    +0.036 C 
ATOM      6  C   UNL     1      33.016 -13.955 -23.286  0.00  0.00    +0.036 C 
ATOM      7  C   UNL     1      32.440 -13.655 -22.052  0.00  0.00    +0.134 C 
BRANCH   7   8
ATOM      8  O   UNL     1      31.530 -12.648 -21.952  0.00  0.00    -0.506 OA
ATOM      9  H   UNL     1      31.746 -11.790 -22.261  0.00  0.00    +0.292 HD
ENDBRANCH   7   8
ENDBRANCH   1   2
BRANCH   1  10
ATOM     10  O   UNL     1      35.512 -17.129 -23.748  0.00  0.00    -0.382 OA
ATOM     11  H   UNL     1      35.546 -18.092 -23.863  0.00  0.00    +0.211 HD
ENDBRANCH   1  10
BRANCH   1  12
ATOM     12  C   UNL     1      34.851 -18.094 -21.620  0.00  0.00    -0.052 C 
BRANCH  12  13
ATOM     13  N   UNL     1      35.872 -18.563 -20.685  0.00  0.00    +0.382 N 
ATOM     14  H   UNL     1      36.787 -18.521 -21.131  0.00  0.00    -0.089 HD
ATOM     15  H   UNL     1      35.669 -19.525 -20.415  0.00  0.00    -0.089 HD
ATOM     16  H   UNL     1      35.870 -17.970 -19.856  0.00  0.00    -0.089 HD
ENDBRANCH  12  13
ENDBRANCH   1  12
TORSDOF 5
ENDMDL
