MODEL 1
REMARK VINA RESULT:      -5.6      0.000      0.000
REMARK  Name = 5494411
REMARK  11 active torsions:
REMARK  status: ('A' for Active; 'I' for Inactive)
REMARK    1  A    between atoms: N_1  and  C_4
REMARK    2  A    between atoms: N_1  and  C_13
REMARK    3  A    between atoms: C_4  and  C_5
REMARK    4  A    between atoms: C_5  and  C_6
REMARK    5  A    between atoms: C_6  and  N_7
REMARK    6  A    between atoms: N_7  and  C_10
REMARK    7  A    between atoms: C_10  and  C_11
REMARK    8  A    between atoms: C_13  and  C_14
REMARK    9  A    between atoms: C_14  and  C_15
REMARK   10  A    between atoms: C_15  and  N_16
REMARK   11  A    between atoms: N_16  and  C_19
REMARK                            x       y       z     vdW  Elec       q    Type
REMARK                         _______ _______ _______ _____ _____    ______ ____
ROOT
ATOM      1  N   UNL     1      34.339 -19.336 -22.708  0.00  0.00    +0.384 N 
ATOM      2  H   UNL     1      34.276 -20.345 -22.843  0.00  0.00    -0.085 HD
ATOM      3  H   UNL     1      33.425 -18.902 -22.840  0.00  0.00    -0.085 HD
ENDROOT
BRANCH   1   4
ATOM      4  C   UNL     1      35.264 -18.781 -23.685  0.00  0.00    -0.084 C 
BRANCH   4   5
ATOM      5  C   UNL     1      34.533 -18.178 -24.887  0.00  0.00    -0.047 C 
BRANCH   5   6
ATOM      6  C   UNL     1      34.737 -16.667 -25.014  0.00  0.00    -0.084 C 
BRANCH   6   7
ATOM      7  N   UNL     1      35.301 -16.131 -23.781  0.00  0.00    +0.384 N 
ATOM      8  H   UNL     1      36.178 -15.656 -23.993  0.00  0.00    -0.085 HD
ATOM      9  H   UNL     1      35.461 -16.902 -23.133  0.00  0.00    -0.085 HD
BRANCH   7  10
ATOM     10  C   UNL     1      34.385 -15.185 -23.160  0.00  0.00    -0.082 C 
BRANCH  10  11
ATOM     11  C   UNL     1      34.410 -15.340 -21.642  0.00  0.00    -0.023 C 
ATOM     12  C   UNL     1      33.011 -15.549 -21.083  0.00  0.00    -0.002 C 
ENDBRANCH  10  11
ENDBRANCH   7  10
ENDBRANCH   6   7
ENDBRANCH   5   6
ENDBRANCH   4   5
ENDBRANCH   1   4
BRANCH   1  13
ATOM     13  C   UNL     1      34.791 -19.063 -21.349  0.00  0.00    -0.084 C 
BRANCH  13  14
ATOM     14  C   UNL     1      34.594 -20.268 -20.426  0.00  0.00    -0.047 C 
BRANCH  14  15
ATOM     15  C   UNL     1      33.126 -20.523 -20.080  0.00  0.00    -0.084 C 
BRANCH  15  16
ATOM     16  N   UNL     1      32.924 -21.928 -19.748  0.00  0.00    +0.384 N 
ATOM     17  H   UNL     1      32.961 -22.483 -20.603  0.00  0.00    -0.085 HD
ATOM     18  H   UNL     1      32.015 -22.030 -19.297  0.00  0.00    -0.085 HD
BRANCH  16  19
ATOM     19  C   UNL     1      33.953 -22.397 -18.830  0.00  0.00    -0.082 C 
ATOM     20  C   UNL     1      33.341 -23.135 -17.651  0.00  0.00    -0.026 C 
ENDBRANCH  16  19
ENDBRANCH  15  16
ENDBRANCH  14  15
ENDBRANCH  13  14
ENDBRANCH   1  13
TORSDOF 11
ENDMDL
MODEL 2
REMARK VINA RESULT:      -5.5      1.873      2.620
REMARK  Name = 5494411
REMARK  11 active torsions:
REMARK  status: ('A' for Active; 'I' for Inactive)
REMARK    1  A    between atoms: N_1  and  C_4
REMARK    2  A    between atoms: N_1  and  C_13
REMARK    3  A    between atoms: C_4  and  C_5
REMARK    4  A    between atoms: C_5  and  C_6
REMARK    5  A    between atoms: C_6  and  N_7
REMARK    6  A    between atoms: N_7  and  C_10
REMARK    7  A    between atoms: C_10  and  C_11
REMARK    8  A    between atoms: C_13  and  C_14
REMARK    9  A    between atoms: C_14  and  C_15
REMARK   10  A    between atoms: C_15  and  N_16
REMARK   11  A    between atoms: N_16  and  C_19
REMARK                            x       y       z     vdW  Elec       q    Type
REMARK                         _______ _______ _______ _____ _____    ______ ____
ROOT
ATOM      1  N   UNL     1      34.464 -18.293 -25.141  0.00  0.00    +0.384 N 
ATOM      2  H   UNL     1      35.026 -18.692 -25.892  0.00  0.00    -0.085 HD
ATOM      3  H   UNL     1      33.472 -18.336 -25.378  0.00  0.00    -0.085 HD
ENDROOT
BRANCH   1   4
ATOM      4  C   UNL     1      34.838 -16.898 -24.954  0.00  0.00    -0.084 C 
BRANCH   4   5
ATOM      5  C   UNL     1      33.712 -15.944 -25.361  0.00  0.00    -0.047 C 
BRANCH   5   6
ATOM      6  C   UNL     1      33.506 -14.804 -24.363  0.00  0.00    -0.084 C 
BRANCH   6   7
ATOM      7  N   UNL     1      34.601 -14.774 -23.400  0.00  0.00    +0.384 N 
ATOM      8  H   UNL     1      35.302 -14.102 -23.712  0.00  0.00    -0.085 HD
ATOM      9  H   UNL     1      35.005 -15.708 -23.337  0.00  0.00    -0.085 HD
BRANCH   7  10
ATOM     10  C   UNL     1      34.122 -14.384 -22.082  0.00  0.00    -0.082 C 
BRANCH  10  11
ATOM     11  C   UNL     1      32.650 -14.753 -21.922  0.00  0.00    -0.023 C 
ATOM     12  C   UNL     1      32.423 -15.605 -20.682  0.00  0.00    -0.002 C 
ENDBRANCH  10  11
ENDBRANCH   7  10
ENDBRANCH   6   7
ENDBRANCH   5   6
ENDBRANCH   4   5
ENDBRANCH   1   4
BRANCH   1  13
ATOM     13  C   UNL     1      34.684 -19.058 -23.920  0.00  0.00    -0.084 C 
BRANCH  13  14
ATOM     14  C   UNL     1      35.359 -18.220 -22.832  0.00  0.00    -0.047 C 
BRANCH  14  15
ATOM     15  C   UNL     1      34.686 -18.359 -21.465  0.00  0.00    -0.084 C 
BRANCH  15  16
ATOM     16  N   UNL     1      35.325 -19.420 -20.695  0.00  0.00    +0.384 N 
ATOM     17  H   UNL     1      35.737 -19.020 -19.853  0.00  0.00    -0.085 HD
ATOM     18  H   UNL     1      36.045 -19.854 -21.272  0.00  0.00    -0.085 HD
BRANCH  16  19
ATOM     19  C   UNL     1      34.356 -20.439 -20.315  0.00  0.00    -0.082 C 
ATOM     20  C   UNL     1      32.934 -19.964 -20.564  0.00  0.00    -0.026 C 
ENDBRANCH  16  19
ENDBRANCH  15  16
ENDBRANCH  14  15
ENDBRANCH  13  14
ENDBRANCH   1  13
TORSDOF 11
ENDMDL
MODEL 3
REMARK VINA RESULT:      -5.4      2.095      6.938
REMARK  Name = 5494411
REMARK  11 active torsions:
REMARK  status: ('A' for Active; 'I' for Inactive)
REMARK    1  A    between atoms: N_1  and  C_4
REMARK    2  A    between atoms: N_1  and  C_13
REMARK    3  A    between atoms: C_4  and  C_5
REMARK    4  A    between atoms: C_5  and  C_6
REMARK    5  A    between atoms: C_6  and  N_7
REMARK    6  A    between atoms: N_7  and  C_10
REMARK    7  A    between atoms: C_10  and  C_11
REMARK    8  A    between atoms: C_13  and  C_14
REMARK    9  A    between atoms: C_14  and  C_15
REMARK   10  A    between atoms: C_15  and  N_16
REMARK   11  A    between atoms: N_16  and  C_19
REMARK                            x       y       z     vdW  Elec       q    Type
REMARK                         _______ _______ _______ _____ _____    ______ ____
ROOT
ATOM      1  N   UNL     1      35.012 -16.798 -25.025  0.00  0.00    +0.384 N 
ATOM      2  H   UNL     1      35.619 -16.714 -25.840  0.00  0.00    -0.085 HD
ATOM      3  H   UNL     1      35.554 -16.710 -24.166  0.00  0.00    -0.085 HD
ENDROOT
BRANCH   1   4
ATOM      4  C   UNL     1      34.372 -18.106 -25.040  0.00  0.00    -0.084 C 
BRANCH   4   5
ATOM      5  C   UNL     1      35.036 -19.079 -24.063  0.00  0.00    -0.047 C 
BRANCH   5   6
ATOM      6  C   UNL     1      35.599 -18.386 -22.822  0.00  0.00    -0.084 C 
BRANCH   6   7
ATOM      7  N   UNL     1      34.732 -18.625 -21.674  0.00  0.00    +0.384 N 
ATOM      8  H   UNL     1      33.812 -18.914 -22.006  0.00  0.00    -0.085 HD
ATOM      9  H   UNL     1      34.662 -17.765 -21.133  0.00  0.00    -0.085 HD
BRANCH   7  10
ATOM     10  C   UNL     1      35.279 -19.670 -20.820  0.00  0.00    -0.082 C 
BRANCH  10  11
ATOM     11  C   UNL     1      34.158 -20.555 -20.281  0.00  0.00    -0.023 C 
ATOM     12  C   UNL     1      32.790 -19.960 -20.579  0.00  0.00    -0.002 C 
ENDBRANCH  10  11
ENDBRANCH   7  10
ENDBRANCH   6   7
ENDBRANCH   5   6
ENDBRANCH   4   5
ENDBRANCH   1   4
BRANCH   1  13
ATOM     13  C   UNL     1      34.018 -15.732 -25.058  0.00  0.00    -0.084 C 
BRANCH  13  14
ATOM     14  C   UNL     1      33.608 -15.286 -23.653  0.00  0.00    -0.047 C 
BRANCH  14  15
ATOM     15  C   UNL     1      33.043 -13.865 -23.618  0.00  0.00    -0.084 C 
BRANCH  15  16
ATOM     16  N   UNL     1      34.128 -12.891 -23.639  0.00  0.00    +0.384 N 
ATOM     17  H   UNL     1      35.006 -13.372 -23.828  0.00  0.00    -0.085 HD
ATOM     18  H   UNL     1      34.165 -12.424 -22.732  0.00  0.00    -0.085 HD
BRANCH  16  19
ATOM     19  C   UNL     1      33.902 -11.886 -24.669  0.00  0.00    -0.082 C 
ATOM     20  C   UNL     1      33.736 -10.503 -24.060  0.00  0.00    -0.026 C 
ENDBRANCH  16  19
ENDBRANCH  15  16
ENDBRANCH  14  15
ENDBRANCH  13  14
ENDBRANCH   1  13
TORSDOF 11
ENDMDL
MODEL 4
REMARK VINA RESULT:      -5.4      1.898      3.103
REMARK  Name = 5494411
REMARK  11 active torsions:
REMARK  status: ('A' for Active; 'I' for Inactive)
REMARK    1  A    between atoms: N_1  and  C_4
REMARK    2  A    between atoms: N_1  and  C_13
REMARK    3  A    between atoms: C_4  and  C_5
REMARK    4  A    between atoms: C_5  and  C_6
REMARK    5  A    between atoms: C_6  and  N_7
REMARK    6  A    between atoms: N_7  and  C_10
REMARK    7  A    between atoms: C_10  and  C_11
REMARK    8  A    between atoms: C_13  and  C_14
REMARK    9  A    between atoms: C_14  and  C_15
REMARK   10  A    between atoms: C_15  and  N_16
REMARK   11  A    between atoms: N_16  and  C_19
REMARK                            x       y       z     vdW  Elec       q    Type
REMARK                         _______ _______ _______ _____ _____    ______ ____
ROOT
ATOM      1  N   UNL     1      35.674 -17.975 -20.670  0.00  0.00    +0.384 N 
ATOM      2  H   UNL     1      35.639 -17.840 -19.660  0.00  0.00    -0.085 HD
ATOM      3  H   UNL     1      36.477 -17.487 -21.066  0.00  0.00    -0.085 HD
ENDROOT
BRANCH   1   4
ATOM      4  C   UNL     1      34.460 -17.432 -21.266  0.00  0.00    -0.084 C 
BRANCH   4   5
ATOM      5  C   UNL     1      34.588 -15.936 -21.563  0.00  0.00    -0.047 C 
BRANCH   5   6
ATOM      6  C   UNL     1      34.525 -15.617 -23.058  0.00  0.00    -0.084 C 
BRANCH   6   7
ATOM      7  N   UNL     1      35.374 -16.538 -23.804  0.00  0.00    +0.384 N 
ATOM      8  H   UNL     1      35.418 -17.428 -23.309  0.00  0.00    -0.085 HD
ATOM      9  H   UNL     1      36.304 -16.129 -23.887  0.00  0.00    -0.085 HD
BRANCH   7  10
ATOM     10  C   UNL     1      34.845 -16.763 -25.142  0.00  0.00    -0.082 C 
BRANCH  10  11
ATOM     11  C   UNL     1      34.083 -18.085 -25.194  0.00  0.00    -0.023 C 
ATOM     12  C   UNL     1      34.820 -19.180 -24.438  0.00  0.00    -0.002 C 
ENDBRANCH  10  11
ENDBRANCH   7  10
ENDBRANCH   6   7
ENDBRANCH   5   6
ENDBRANCH   4   5
ENDBRANCH   1   4
BRANCH   1  13
ATOM     13  C   UNL     1      35.804 -19.397 -20.959  0.00  0.00    -0.084 C 
BRANCH  13  14
ATOM     14  C   UNL     1      34.555 -20.182 -20.553  0.00  0.00    -0.047 C 
BRANCH  14  15
ATOM     15  C   UNL     1      34.860 -21.341 -19.602  0.00  0.00    -0.084 C 
BRANCH  15  16
ATOM     16  N   UNL     1      36.169 -21.157 -18.986  0.00  0.00    +0.384 N 
ATOM     17  H   UNL     1      36.279 -20.178 -18.722  0.00  0.00    -0.085 HD
ATOM     18  H   UNL     1      36.887 -21.428 -19.658  0.00  0.00    -0.085 HD
BRANCH  16  19
ATOM     19  C   UNL     1      36.304 -21.990 -17.799  0.00  0.00    -0.082 C 
ATOM     20  C   UNL     1      37.254 -21.361 -16.793  0.00  0.00    -0.026 C 
ENDBRANCH  16  19
ENDBRANCH  15  16
ENDBRANCH  14  15
ENDBRANCH  13  14
ENDBRANCH   1  13
TORSDOF 11
ENDMDL
MODEL 5
REMARK VINA RESULT:      -5.4      1.727      7.008
REMARK  Name = 5494411
REMARK  11 active torsions:
REMARK  status: ('A' for Active; 'I' for Inactive)
REMARK    1  A    between atoms: N_1  and  C_4
REMARK    2  A    between atoms: N_1  and  C_13
REMARK    3  A    between atoms: C_4  and  C_5
REMARK    4  A    between atoms: C_5  and  C_6
REMARK    5  A    between atoms: C_6  and  N_7
REMARK    6  A    between atoms: N_7  and  C_10
REMARK    7  A    between atoms: C_10  and  C_11
REMARK    8  A    between atoms: C_13  and  C_14
REMARK    9  A    between atoms: C_14  and  C_15
REMARK   10  A    between atoms: C_15  and  N_16
REMARK   11  A    between atoms: N_16  and  C_19
REMARK                            x       y       z     vdW  Elec       q    Type
REMARK                         _______ _______ _______ _____ _____    ______ ____
ROOT
ATOM      1  N   UNL     1      36.547 -20.202 -19.688  0.00  0.00    +0.384 N 
ATOM      2  H   UNL     1      37.481 -20.366 -19.315  0.00  0.00    -0.085 HD
ATOM      3  H   UNL     1      35.949 -19.779 -18.977  0.00  0.00    -0.085 HD
ENDROOT
BRANCH   1   4
ATOM      4  C   UNL     1      35.963 -21.474 -20.090  0.00  0.00    -0.084 C 
BRANCH   4   5
ATOM      5  C   UNL     1      34.932 -21.977 -19.076  0.00  0.00    -0.047 C 
BRANCH   5   6
ATOM      6  C   UNL     1      33.491 -21.687 -19.497  0.00  0.00    -0.084 C 
BRANCH   6   7
ATOM      7  N   UNL     1      32.561 -22.228 -18.513  0.00  0.00    +0.384 N 
ATOM      8  H   UNL     1      31.861 -22.795 -18.991  0.00  0.00    -0.085 HD
ATOM      9  H   UNL     1      32.117 -21.453 -18.023  0.00  0.00    -0.085 HD
BRANCH   7  10
ATOM     10  C   UNL     1      33.259 -23.056 -17.541  0.00  0.00    -0.082 C 
BRANCH  10  11
ATOM     11  C   UNL     1      32.298 -23.515 -16.447  0.00  0.00    -0.023 C 
ATOM     12  C   UNL     1      30.970 -22.776 -16.530  0.00  0.00    -0.002 C 
ENDBRANCH  10  11
ENDBRANCH   7  10
ENDBRANCH   6   7
ENDBRANCH   5   6
ENDBRANCH   4   5
ENDBRANCH   1   4
BRANCH   1  13
ATOM     13  C   UNL     1      36.638 -19.290 -20.821  0.00  0.00    -0.084 C 
BRANCH  13  14
ATOM     14  C   UNL     1      35.259 -18.911 -21.365  0.00  0.00    -0.047 C 
BRANCH  14  15
ATOM     15  C   UNL     1      35.125 -17.418 -21.670  0.00  0.00    -0.084 C 
BRANCH  15  16
ATOM     16  N   UNL     1      35.648 -17.127 -22.999  0.00  0.00    +0.384 N 
ATOM     17  H   UNL     1      36.662 -17.234 -22.991  0.00  0.00    -0.085 HD
ATOM     18  H   UNL     1      35.393 -16.171 -23.248  0.00  0.00    -0.085 HD
BRANCH  16  19
ATOM     19  C   UNL     1      35.080 -18.032 -23.989  0.00  0.00    -0.082 C 
ATOM     20  C   UNL     1      34.568 -17.269 -25.200  0.00  0.00    -0.026 C 
ENDBRANCH  16  19
ENDBRANCH  15  16
ENDBRANCH  14  15
ENDBRANCH  13  14
ENDBRANCH   1  13
TORSDOF 11
ENDMDL
MODEL 6
REMARK VINA RESULT:      -5.3      3.347      4.698
REMARK  Name = 5494411
REMARK  11 active torsions:
REMARK  status: ('A' for Active; 'I' for Inactive)
REMARK    1  A    between atoms: N_1  and  C_4
REMARK    2  A    between atoms: N_1  and  C_13
REMARK    3  A    between atoms: C_4  and  C_5
REMARK    4  A    between atoms: C_5  and  C_6
REMARK    5  A    between atoms: C_6  and  N_7
REMARK    6  A    between atoms: N_7  and  C_10
REMARK    7  A    between atoms: C_10  and  C_11
REMARK    8  A    between atoms: C_13  and  C_14
REMARK    9  A    between atoms: C_14  and  C_15
REMARK   10  A    between atoms: C_15  and  N_16
REMARK   11  A    between atoms: N_16  and  C_19
REMARK                            x       y       z     vdW  Elec       q    Type
REMARK                         _______ _______ _______ _____ _____    ______ ____
ROOT
ATOM      1  N   UNL     1      35.050 -16.049 -23.711  0.00  0.00    +0.384 N 
ATOM      2  H   UNL     1      35.096 -16.147 -22.697  0.00  0.00    -0.085 HD
ATOM      3  H   UNL     1      35.912 -15.636 -24.068  0.00  0.00    -0.085 HD
ENDROOT
BRANCH   1   4
ATOM      4  C   UNL     1      33.938 -15.174 -24.055  0.00  0.00    -0.084 C 
BRANCH   4   5
ATOM      5  C   UNL     1      33.996 -13.847 -23.293  0.00  0.00    -0.047 C 
BRANCH   5   6
ATOM      6  C   UNL     1      33.524 -12.657 -24.130  0.00  0.00    -0.084 C 
BRANCH   6   7
ATOM      7  N   UNL     1      34.496 -11.573 -24.055  0.00  0.00    +0.384 N 
ATOM      8  H   UNL     1      35.114 -11.621 -24.864  0.00  0.00    -0.085 HD
ATOM      9  H   UNL     1      35.030 -11.672 -23.192  0.00  0.00    -0.085 HD
BRANCH   7  10
ATOM     10  C   UNL     1      33.829 -10.279 -24.043  0.00  0.00    -0.082 C 
BRANCH  10  11
ATOM     11  C   UNL     1      34.836  -9.161 -24.300  0.00  0.00    -0.023 C 
ATOM     12  C   UNL     1      34.546  -7.943 -23.435  0.00  0.00    -0.002 C 
ENDBRANCH  10  11
ENDBRANCH   7  10
ENDBRANCH   6   7
ENDBRANCH   5   6
ENDBRANCH   4   5
ENDBRANCH   1   4
BRANCH   1  13
ATOM     13  C   UNL     1      34.881 -17.366 -24.312  0.00  0.00    -0.084 C 
BRANCH  13  14
ATOM     14  C   UNL     1      35.098 -18.491 -23.298  0.00  0.00    -0.047 C 
BRANCH  14  15
ATOM     15  C   UNL     1      35.597 -17.987 -21.942  0.00  0.00    -0.084 C 
BRANCH  15  16
ATOM     16  N   UNL     1      34.859 -18.632 -20.862  0.00  0.00    +0.384 N 
ATOM     17  H   UNL     1      34.211 -17.960 -20.452  0.00  0.00    -0.085 HD
ATOM     18  H   UNL     1      35.525 -18.959 -20.162  0.00  0.00    -0.085 HD
BRANCH  16  19
ATOM     19  C   UNL     1      34.109 -19.777 -21.360  0.00  0.00    -0.082 C 
ATOM     20  C   UNL     1      33.088 -20.250 -20.338  0.00  0.00    -0.026 C 
ENDBRANCH  16  19
ENDBRANCH  15  16
ENDBRANCH  14  15
ENDBRANCH  13  14
ENDBRANCH   1  13
TORSDOF 11
ENDMDL
MODEL 7
REMARK VINA RESULT:      -5.3      4.249      8.023
REMARK  Name = 5494411
REMARK  11 active torsions:
REMARK  status: ('A' for Active; 'I' for Inactive)
REMARK    1  A    between atoms: N_1  and  C_4
REMARK    2  A    between atoms: N_1  and  C_13
REMARK    3  A    between atoms: C_4  and  C_5
REMARK    4  A    between atoms: C_5  and  C_6
REMARK    5  A    between atoms: C_6  and  N_7
REMARK    6  A    between atoms: N_7  and  C_10
REMARK    7  A    between atoms: C_10  and  C_11
REMARK    8  A    between atoms: C_13  and  C_14
REMARK    9  A    between atoms: C_14  and  C_15
REMARK   10  A    between atoms: C_15  and  N_16
REMARK   11  A    between atoms: N_16  and  C_19
REMARK                            x       y       z     vdW  Elec       q    Type
REMARK                         _______ _______ _______ _____ _____    ______ ____
ROOT
ATOM      1  N   UNL     1      34.247 -22.817 -14.765  0.00  0.00    +0.384 N 
ATOM      2  H   UNL     1      34.019 -22.418 -13.854  0.00  0.00    -0.085 HD
ATOM      3  H   UNL     1      34.325 -22.080 -15.466  0.00  0.00    -0.085 HD
ENDROOT
BRANCH   1   4
ATOM      4  C   UNL     1      33.186 -23.730 -15.166  0.00  0.00    -0.084 C 
BRANCH   4   5
ATOM      5  C   UNL     1      32.402 -23.202 -16.370  0.00  0.00    -0.047 C 
BRANCH   5   6
ATOM      6  C   UNL     1      33.244 -23.126 -17.644  0.00  0.00    -0.084 C 
BRANCH   6   7
ATOM      7  N   UNL     1      32.633 -22.208 -18.597  0.00  0.00    +0.384 N 
ATOM      8  H   UNL     1      32.157 -21.464 -18.086  0.00  0.00    -0.085 HD
ATOM      9  H   UNL     1      31.969 -22.726 -19.171  0.00  0.00    -0.085 HD
BRANCH   7  10
ATOM     10  C   UNL     1      33.639 -21.617 -19.467  0.00  0.00    -0.082 C 
BRANCH  10  11
ATOM     11  C   UNL     1      33.046 -20.447 -20.246  0.00  0.00    -0.023 C 
ATOM     12  C   UNL     1      34.135 -19.593 -20.879  0.00  0.00    -0.002 C 
ENDBRANCH  10  11
ENDBRANCH   7  10
ENDBRANCH   6   7
ENDBRANCH   5   6
ENDBRANCH   4   5
ENDBRANCH   1   4
BRANCH   1  13
ATOM     13  C   UNL     1      35.526 -23.511 -14.676  0.00  0.00    -0.084 C 
BRANCH  13  14
ATOM     14  C   UNL     1      35.411 -24.979 -15.093  0.00  0.00    -0.047 C 
BRANCH  14  15
ATOM     15  C   UNL     1      36.633 -25.810 -14.697  0.00  0.00    -0.084 C 
BRANCH  15  16
ATOM     16  N   UNL     1      37.840 -25.245 -15.289  0.00  0.00    +0.384 N 
ATOM     17  H   UNL     1      37.708 -24.243 -15.425  0.00  0.00    -0.085 HD
ATOM     18  H   UNL     1      38.012 -25.706 -16.182  0.00  0.00    -0.085 HD
BRANCH  16  19
ATOM     19  C   UNL     1      38.991 -25.463 -14.424  0.00  0.00    -0.082 C 
ATOM     20  C   UNL     1      38.568 -25.596 -12.970  0.00  0.00    -0.026 C 
ENDBRANCH  16  19
ENDBRANCH  15  16
ENDBRANCH  14  15
ENDBRANCH  13  14
ENDBRANCH   1  13
TORSDOF 11
ENDMDL
MODEL 8
REMARK VINA RESULT:      -5.3      1.672      5.870
REMARK  Name = 5494411
REMARK  11 active torsions:
REMARK  status: ('A' for Active; 'I' for Inactive)
REMARK    1  A    between atoms: N_1  and  C_4
REMARK    2  A    between atoms: N_1  and  C_13
REMARK    3  A    between atoms: C_4  and  C_5
REMARK    4  A    between atoms: C_5  and  C_6
REMARK    5  A    between atoms: C_6  and  N_7
REMARK    6  A    between atoms: N_7  and  C_10
REMARK    7  A    between atoms: C_10  and  C_11
REMARK    8  A    between atoms: C_13  and  C_14
REMARK    9  A    between atoms: C_14  and  C_15
REMARK   10  A    between atoms: C_15  and  N_16
REMARK   11  A    between atoms: N_16  and  C_19
REMARK                            x       y       z     vdW  Elec       q    Type
REMARK                         _______ _______ _______ _____ _____    ______ ____
ROOT
ATOM      1  N   UNL     1      34.374 -16.516 -24.093  0.00  0.00    +0.384 N 
ATOM      2  H   UNL     1      35.169 -16.023 -23.686  0.00  0.00    -0.085 HD
ATOM      3  H   UNL     1      33.643 -16.650 -23.394  0.00  0.00    -0.085 HD
ENDROOT
BRANCH   1   4
ATOM      4  C   UNL     1      34.814 -17.822 -24.563  0.00  0.00    -0.084 C 
BRANCH   4   5
ATOM      5  C   UNL     1      35.289 -18.715 -23.414  0.00  0.00    -0.047 C 
BRANCH   5   6
ATOM      6  C   UNL     1      34.657 -18.345 -22.071  0.00  0.00    -0.084 C 
BRANCH   6   7
ATOM      7  N   UNL     1      35.525 -18.761 -20.976  0.00  0.00    +0.384 N 
ATOM      8  H   UNL     1      35.389 -18.132 -20.184  0.00  0.00    -0.085 HD
ATOM      9  H   UNL     1      36.492 -18.727 -21.295  0.00  0.00    -0.085 HD
BRANCH   7  10
ATOM     10  C   UNL     1      35.219 -20.122 -20.560  0.00  0.00    -0.082 C 
BRANCH  10  11
ATOM     11  C   UNL     1      33.710 -20.310 -20.429  0.00  0.00    -0.023 C 
ATOM     12  C   UNL     1      33.373 -21.472 -19.507  0.00  0.00    -0.002 C 
ENDBRANCH  10  11
ENDBRANCH   7  10
ENDBRANCH   6   7
ENDBRANCH   5   6
ENDBRANCH   4   5
ENDBRANCH   1   4
BRANCH   1  13
ATOM     13  C   UNL     1      33.831 -15.724 -25.189  0.00  0.00    -0.084 C 
BRANCH  13  14
ATOM     14  C   UNL     1      33.215 -14.412 -24.698  0.00  0.00    -0.047 C 
BRANCH  14  15
ATOM     15  C   UNL     1      33.668 -14.029 -23.288  0.00  0.00    -0.084 C 
BRANCH  15  16
ATOM     16  N   UNL     1      32.533 -14.047 -22.372  0.00  0.00    +0.384 N 
ATOM     17  H   UNL     1      31.706 -14.374 -22.870  0.00  0.00    -0.085 HD
ATOM     18  H   UNL     1      32.385 -13.103 -22.017  0.00  0.00    -0.085 HD
BRANCH  16  19
ATOM     19  C   UNL     1      32.792 -14.932 -21.244  0.00  0.00    -0.082 C 
ATOM     20  C   UNL     1      34.254 -14.880 -20.830  0.00  0.00    -0.026 C 
ENDBRANCH  16  19
ENDBRANCH  15  16
ENDBRANCH  14  15
ENDBRANCH  13  14
ENDBRANCH   1  13
TORSDOF 11
ENDMDL
MODEL 9
REMARK VINA RESULT:      -5.2      2.610      6.737
REMARK  Name = 5494411
REMARK  11 active torsions:
REMARK  status: ('A' for Active; 'I' for Inactive)
REMARK    1  A    between atoms: N_1  and  C_4
REMARK    2  A    between atoms: N_1  and  C_13
REMARK    3  A    between atoms: C_4  and  C_5
REMARK    4  A    between atoms: C_5  and  C_6
REMARK    5  A    between atoms: C_6  and  N_7
REMARK    6  A    between atoms: N_7  and  C_10
REMARK    7  A    between atoms: C_10  and  C_11
REMARK    8  A    between atoms: C_13  and  C_14
REMARK    9  A    between atoms: C_14  and  C_15
REMARK   10  A    between atoms: C_15  and  N_16
REMARK   11  A    between atoms: N_16  and  C_19
REMARK                            x       y       z     vdW  Elec       q    Type
REMARK                         _______ _______ _______ _____ _____    ______ ____
ROOT
ATOM      1  N   UNL     1      34.521 -14.825 -22.763  0.00  0.00    +0.384 N 
ATOM      2  H   UNL     1      34.692 -13.996 -23.331  0.00  0.00    -0.085 HD
ATOM      3  H   UNL     1      34.994 -14.744 -21.863  0.00  0.00    -0.085 HD
ENDROOT
BRANCH   1   4
ATOM      4  C   UNL     1      35.040 -15.995 -23.458  0.00  0.00    -0.084 C 
BRANCH   4   5
ATOM      5  C   UNL     1      35.309 -17.158 -22.499  0.00  0.00    -0.047 C 
BRANCH   5   6
ATOM      6  C   UNL     1      35.479 -18.497 -23.219  0.00  0.00    -0.084 C 
BRANCH   6   7
ATOM      7  N   UNL     1      34.590 -19.496 -22.638  0.00  0.00    +0.384 N 
ATOM      8  H   UNL     1      34.986 -20.424 -22.789  0.00  0.00    -0.085 HD
ATOM      9  H   UNL     1      33.678 -19.421 -23.086  0.00  0.00    -0.085 HD
BRANCH   7  10
ATOM     10  C   UNL     1      34.426 -19.276 -21.208  0.00  0.00    -0.082 C 
BRANCH  10  11
ATOM     11  C   UNL     1      33.102 -19.866 -20.730  0.00  0.00    -0.023 C 
ATOM     12  C   UNL     1      33.326 -21.025 -19.770  0.00  0.00    -0.002 C 
ENDBRANCH  10  11
ENDBRANCH   7  10
ENDBRANCH   6   7
ENDBRANCH   5   6
ENDBRANCH   4   5
ENDBRANCH   1   4
BRANCH   1  13
ATOM     13  C   UNL     1      33.089 -14.955 -22.526  0.00  0.00    -0.084 C 
BRANCH  13  14
ATOM     14  C   UNL     1      32.719 -14.654 -21.072  0.00  0.00    -0.047 C 
BRANCH  14  15
ATOM     15  C   UNL     1      32.328 -13.193 -20.843  0.00  0.00    -0.084 C 
BRANCH  15  16
ATOM     16  N   UNL     1      31.645 -12.665 -22.018  0.00  0.00    +0.384 N 
ATOM     17  H   UNL     1      30.810 -13.222 -22.198  0.00  0.00    -0.085 HD
ATOM     18  H   UNL     1      32.282 -12.710 -22.813  0.00  0.00    -0.085 HD
BRANCH  16  19
ATOM     19  C   UNL     1      31.258 -11.276 -21.811  0.00  0.00    -0.082 C 
ATOM     20  C   UNL     1      30.938 -11.007 -20.350  0.00  0.00    -0.026 C 
ENDBRANCH  16  19
ENDBRANCH  15  16
ENDBRANCH  14  15
ENDBRANCH  13  14
ENDBRANCH   1  13
TORSDOF 11
ENDMDL
