MODEL 1
REMARK VINA RESULT:     -10.5      0.000      0.000
REMARK  Name = 91273
REMARK  5 active torsions:
REMARK  status: ('A' for Active; 'I' for Inactive)
REMARK    1  A    between atoms: C_1  and  C_2
REMARK    2  A    between atoms: C_1  and  C_16
REMARK    3  A    between atoms: C_2  and  C_3
REMARK    4  A    between atoms: C_3  and  N_6
REMARK    5  A    between atoms: C_16  and  N_17
REMARK                            x       y       z     vdW  Elec       q    Type
REMARK                         _______ _______ _______ _____ _____    ______ ____
ROOT
ATOM      1  C   UNL     1      34.127 -20.709 -20.753  0.00  0.00    -0.021 C 
ENDROOT
BRANCH   1   2
ATOM      2  C   UNL     1      33.658 -21.224 -19.388  0.00  0.00    +0.020 C 
BRANCH   2   3
ATOM      3  C   UNL     1      34.287 -22.563 -19.019  0.00  0.00    +0.101 C 
BRANCH   3   6
ATOM      4  O   UNL     1      36.795 -22.025 -17.593  0.00  0.00    -0.274 OA
ATOM      5  O   UNL     1      32.458 -23.497 -16.927  0.00  0.00    -0.274 OA
ATOM      6  N   UNL     1      34.545 -22.680 -17.597  0.00  0.00    -0.230 N 
ATOM      7  C   UNL     1      36.492 -23.723 -14.991  0.00  0.00    +0.009 C 
ATOM      8  C   UNL     1      34.401 -24.433 -14.668  0.00  0.00    +0.009 C 
ATOM      9  C   UNL     1      35.642 -22.559 -15.538  0.00  0.00    +0.086 C 
ATOM     10  C   UNL     1      34.202 -23.049 -15.315  0.00  0.00    +0.086 C 
ATOM     11  C   UNL     1      35.664 -24.956 -15.360  0.00  0.00    +0.001 C 
ATOM     12  C   UNL     1      36.362 -23.729 -13.456  0.00  0.00    +0.001 C 
ATOM     13  C   UNL     1      34.919 -24.220 -13.234  0.00  0.00    +0.001 C 
ATOM     14  C   UNL     1      35.765 -22.372 -17.029  0.00  0.00    +0.231 C 
ATOM     15  C   UNL     1      33.594 -23.109 -16.693  0.00  0.00    +0.231 C 
ENDBRANCH   3   6
ENDBRANCH   2   3
ENDBRANCH   1   2
BRANCH   1  16
ATOM     16  C   UNL     1      35.459 -19.968 -20.633  0.00  0.00    -0.077 C 
BRANCH  16  17
ATOM     17  N   UNL     1      35.492 -18.834 -21.555  0.00  0.00    +0.389 N 
ATOM     18  N   UNL     1      34.390 -16.868 -23.312  0.00  0.00    -0.257 N 
ATOM     19  N   UNL     1      33.947 -14.593 -23.762  0.00  0.00    -0.181 NA
ATOM     20  N   UNL     1      33.615 -16.270 -25.460  0.00  0.00    -0.203 NA
ATOM     21  C   UNL     1      34.966 -19.223 -22.870  0.00  0.00    -0.055 C 
ATOM     22  C   UNL     1      34.713 -17.711 -21.020  0.00  0.00    -0.055 C 
ATOM     23  C   UNL     1      35.048 -18.060 -23.861  0.00  0.00    +0.079 C 
ATOM     24  C   UNL     1      34.785 -16.497 -21.949  0.00  0.00    +0.079 C 
ATOM     25  C   UNL     1      33.970 -15.878 -24.208  0.00  0.00    +0.090 C 
ATOM     26  C   UNL     1      33.538 -13.664 -24.651  0.00  0.00    +0.108 C 
ATOM     27  C   UNL     1      33.216 -15.289 -26.297  0.00  0.00    +0.165 C 
ATOM     28  C   UNL     1      33.156 -13.957 -25.943  0.00  0.00    +0.022 C 
ATOM     29  H   UNL     1      36.462 -18.540 -21.663  0.00  0.00    -0.080 HD
ENDBRANCH  16  17
ENDBRANCH   1  16
TORSDOF 5
ENDMDL
MODEL 2
REMARK VINA RESULT:     -10.4      2.862     10.025
REMARK  Name = 91273
REMARK  5 active torsions:
REMARK  status: ('A' for Active; 'I' for Inactive)
REMARK    1  A    between atoms: C_1  and  C_2
REMARK    2  A    between atoms: C_1  and  C_16
REMARK    3  A    between atoms: C_2  and  C_3
REMARK    4  A    between atoms: C_3  and  N_6
REMARK    5  A    between atoms: C_16  and  N_17
REMARK                            x       y       z     vdW  Elec       q    Type
REMARK                         _______ _______ _______ _____ _____    ______ ____
ROOT
ATOM      1  C   UNL     1      34.344 -19.790 -21.421  0.00  0.00    -0.021 C 
ENDROOT
BRANCH   1   2
ATOM      2  C   UNL     1      34.505 -19.130 -22.795  0.00  0.00    +0.020 C 
BRANCH   2   3
ATOM      3  C   UNL     1      35.568 -18.037 -22.800  0.00  0.00    +0.101 C 
BRANCH   3   6
ATOM      4  O   UNL     1      35.389 -16.878 -20.110  0.00  0.00    -0.274 OA
ATOM      5  O   UNL     1      34.315 -16.030 -24.531  0.00  0.00    -0.274 OA
ATOM      6  N   UNL     1      35.032 -16.743 -22.421  0.00  0.00    -0.230 N 
ATOM      7  C   UNL     1      33.085 -14.792 -20.405  0.00  0.00    +0.009 C 
ATOM      8  C   UNL     1      32.566 -14.382 -22.536  0.00  0.00    +0.009 C 
ATOM      9  C   UNL     1      34.447 -14.895 -21.119  0.00  0.00    +0.086 C 
ATOM     10  C   UNL     1      34.088 -14.612 -22.587  0.00  0.00    +0.086 C 
ATOM     11  C   UNL     1      32.110 -15.352 -21.443  0.00  0.00    +0.001 C 
ATOM     12  C   UNL     1      32.669 -13.308 -20.380  0.00  0.00    +0.001 C 
ATOM     13  C   UNL     1      32.311 -13.027 -21.851  0.00  0.00    +0.001 C 
ATOM     14  C   UNL     1      35.024 -16.288 -21.118  0.00  0.00    +0.231 C 
ATOM     15  C   UNL     1      34.485 -15.861 -23.332  0.00  0.00    +0.231 C 
ENDBRANCH   3   6
ENDBRANCH   2   3
ENDBRANCH   1   2
BRANCH   1  16
ATOM     16  C   UNL     1      35.669 -20.376 -20.934  0.00  0.00    -0.077 C 
BRANCH  16  17
ATOM     17  N   UNL     1      35.565 -20.764 -19.528  0.00  0.00    +0.389 N 
ATOM     18  N   UNL     1      35.908 -22.469 -17.261  0.00  0.00    -0.257 N 
ATOM     19  N   UNL     1      36.935 -22.856 -15.171  0.00  0.00    -0.181 NA
ATOM     20  N   UNL     1      35.146 -24.273 -15.942  0.00  0.00    -0.203 NA
ATOM     21  C   UNL     1      34.763 -21.986 -19.390  0.00  0.00    -0.055 C 
ATOM     22  C   UNL     1      36.898 -20.974 -18.950  0.00  0.00    -0.055 C 
ATOM     23  C   UNL     1      34.598 -22.372 -17.918  0.00  0.00    +0.079 C 
ATOM     24  C   UNL     1      36.805 -21.327 -17.464  0.00  0.00    +0.079 C 
ATOM     25  C   UNL     1      35.999 -23.225 -16.087  0.00  0.00    +0.090 C 
ATOM     26  C   UNL     1      36.996 -23.605 -14.050  0.00  0.00    +0.108 C 
ATOM     27  C   UNL     1      35.261 -24.979 -14.798  0.00  0.00    +0.165 C 
ATOM     28  C   UNL     1      36.177 -24.689 -13.808  0.00  0.00    +0.022 C 
ATOM     29  H   UNL     1      35.102 -20.009 -19.023  0.00  0.00    -0.080 HD
ENDBRANCH  16  17
ENDBRANCH   1  16
TORSDOF 5
ENDMDL
MODEL 3
REMARK VINA RESULT:     -10.0      6.841     13.414
REMARK  Name = 91273
REMARK  5 active torsions:
REMARK  status: ('A' for Active; 'I' for Inactive)
REMARK    1  A    between atoms: C_1  and  C_2
REMARK    2  A    between atoms: C_1  and  C_16
REMARK    3  A    between atoms: C_2  and  C_3
REMARK    4  A    between atoms: C_3  and  N_6
REMARK    5  A    between atoms: C_16  and  N_17
REMARK                            x       y       z     vdW  Elec       q    Type
REMARK                         _______ _______ _______ _____ _____    ______ ____
ROOT
ATOM      1  C   UNL     1      31.550 -11.454 -19.811  0.00  0.00    -0.021 C 
ENDROOT
BRANCH   1   2
ATOM      2  C   UNL     1      31.547  -9.925 -19.718  0.00  0.00    +0.020 C 
BRANCH   2   3
ATOM      3  C   UNL     1      32.545  -9.277 -20.671  0.00  0.00    +0.101 C 
BRANCH   3   6
ATOM      4  O   UNL     1      31.317  -9.408 -23.333  0.00  0.00    -0.274 OA
ATOM      5  O   UNL     1      32.414  -6.437 -19.959  0.00  0.00    -0.274 OA
ATOM      6  N   UNL     1      31.958  -8.193 -21.435  0.00  0.00    -0.230 N 
ATOM      7  C   UNL     1      31.567  -6.470 -24.358  0.00  0.00    +0.009 C 
ATOM      8  C   UNL     1      32.096  -5.036 -22.732  0.00  0.00    +0.009 C 
ATOM      9  C   UNL     1      30.833  -7.049 -23.133  0.00  0.00    +0.086 C 
ATOM     10  C   UNL     1      31.198  -6.061 -22.014  0.00  0.00    +0.086 C 
ATOM     11  C   UNL     1      32.849  -5.896 -23.751  0.00  0.00    +0.001 C 
ATOM     12  C   UNL     1      30.840  -5.180 -24.785  0.00  0.00    +0.001 C 
ATOM     13  C   UNL     1      31.206  -4.191 -23.663  0.00  0.00    +0.001 C 
ATOM     14  C   UNL     1      31.380  -8.378 -22.675  0.00  0.00    +0.231 C 
ATOM     15  C   UNL     1      31.928  -6.888 -20.987  0.00  0.00    +0.231 C 
ENDBRANCH   3   6
ENDBRANCH   2   3
ENDBRANCH   1   2
BRANCH   1  16
ATOM     16  C   UNL     1      31.483 -11.917 -21.267  0.00  0.00    -0.077 C 
BRANCH  16  17
ATOM     17  N   UNL     1      32.522 -12.911 -21.531  0.00  0.00    +0.389 N 
ATOM     18  N   UNL     1      33.560 -15.516 -22.076  0.00  0.00    -0.257 N 
ATOM     19  N   UNL     1      34.652 -16.974 -23.578  0.00  0.00    -0.181 NA
ATOM     20  N   UNL     1      34.281 -17.622 -21.288  0.00  0.00    -0.203 NA
ATOM     21  C   UNL     1      32.524 -13.943 -20.487  0.00  0.00    -0.055 C 
ATOM     22  C   UNL     1      32.319 -13.532 -22.845  0.00  0.00    -0.055 C 
ATOM     23  C   UNL     1      33.645 -14.959 -20.720  0.00  0.00    +0.079 C 
ATOM     24  C   UNL     1      33.433 -14.535 -23.158  0.00  0.00    +0.079 C 
ATOM     25  C   UNL     1      34.185 -16.744 -22.321  0.00  0.00    +0.090 C 
ATOM     26  C   UNL     1      35.250 -18.167 -23.780  0.00  0.00    +0.108 C 
ATOM     27  C   UNL     1      34.890 -18.795 -21.560  0.00  0.00    +0.165 C 
ATOM     28  C   UNL     1      35.397 -19.125 -22.799  0.00  0.00    +0.022 C 
ATOM     29  H   UNL     1      33.424 -12.436 -21.527  0.00  0.00    -0.080 HD
ENDBRANCH  16  17
ENDBRANCH   1  16
TORSDOF 5
ENDMDL
MODEL 4
REMARK VINA RESULT:      -9.9      2.085      3.413
REMARK  Name = 91273
REMARK  5 active torsions:
REMARK  status: ('A' for Active; 'I' for Inactive)
REMARK    1  A    between atoms: C_1  and  C_2
REMARK    2  A    between atoms: C_1  and  C_16
REMARK    3  A    between atoms: C_2  and  C_3
REMARK    4  A    between atoms: C_3  and  N_6
REMARK    5  A    between atoms: C_16  and  N_17
REMARK                            x       y       z     vdW  Elec       q    Type
REMARK                         _______ _______ _______ _____ _____    ______ ____
ROOT
ATOM      1  C   UNL     1      33.134 -22.718 -17.921  0.00  0.00    -0.021 C 
ENDROOT
BRANCH   1   2
ATOM      2  C   UNL     1      33.405 -23.640 -16.728  0.00  0.00    +0.020 C 
BRANCH   2   3
ATOM      3  C   UNL     1      33.642 -22.869 -15.434  0.00  0.00    +0.101 C 
BRANCH   3   6
ATOM      4  O   UNL     1      36.422 -22.465 -16.283  0.00  0.00    -0.274 OA
ATOM      5  O   UNL     1      33.867 -24.414 -12.953  0.00  0.00    -0.274 OA
ATOM      6  N   UNL     1      34.852 -23.290 -14.753  0.00  0.00    -0.230 N 
ATOM      7  C   UNL     1      37.945 -24.739 -14.781  0.00  0.00    +0.009 C 
ATOM      8  C   UNL     1      36.714 -25.680 -13.175  0.00  0.00    +0.009 C 
ATOM      9  C   UNL     1      37.116 -23.557 -14.243  0.00  0.00    +0.086 C 
ATOM     10  C   UNL     1      36.269 -24.206 -13.136  0.00  0.00    +0.086 C 
ATOM     11  C   UNL     1      36.977 -25.919 -14.665  0.00  0.00    +0.001 C 
ATOM     12  C   UNL     1      38.994 -25.112 -13.716  0.00  0.00    +0.001 C 
ATOM     13  C   UNL     1      38.144 -25.762 -12.608  0.00  0.00    +0.001 C 
ATOM     14  C   UNL     1      36.117 -23.019 -15.236  0.00  0.00    +0.231 C 
ATOM     15  C   UNL     1      34.839 -23.996 -13.567  0.00  0.00    +0.231 C 
ENDBRANCH   3   6
ENDBRANCH   2   3
ENDBRANCH   1   2
BRANCH   1  16
ATOM     16  C   UNL     1      34.232 -22.848 -18.977  0.00  0.00    -0.077 C 
BRANCH  16  17
ATOM     17  N   UNL     1      34.127 -21.764 -19.953  0.00  0.00    +0.389 N 
ATOM     18  N   UNL     1      34.219 -19.058 -20.865  0.00  0.00    -0.257 N 
ATOM     19  N   UNL     1      35.257 -17.424 -22.216  0.00  0.00    -0.181 NA
ATOM     20  N   UNL     1      33.158 -16.965 -21.125  0.00  0.00    -0.203 NA
ATOM     21  C   UNL     1      33.086 -20.809 -19.552  0.00  0.00    -0.055 C 
ATOM     22  C   UNL     1      35.412 -21.070 -20.093  0.00  0.00    -0.055 C 
ATOM     23  C   UNL     1      32.926 -19.700 -20.595  0.00  0.00    +0.079 C 
ATOM     24  C   UNL     1      35.331 -19.969 -21.154  0.00  0.00    +0.079 C 
ATOM     25  C   UNL     1      34.211 -17.773 -21.420  0.00  0.00    +0.090 C 
ATOM     26  C   UNL     1      35.217 -16.179 -22.736  0.00  0.00    +0.108 C 
ATOM     27  C   UNL     1      33.182 -15.734 -21.678  0.00  0.00    +0.165 C 
ATOM     28  C   UNL     1      34.196 -15.282 -22.498  0.00  0.00    +0.022 C 
ATOM     29  H   UNL     1      33.872 -22.170 -20.853  0.00  0.00    -0.080 HD
ENDBRANCH  16  17
ENDBRANCH   1  16
TORSDOF 5
ENDMDL
MODEL 5
REMARK VINA RESULT:      -9.9      6.646     13.319
REMARK  Name = 91273
REMARK  5 active torsions:
REMARK  status: ('A' for Active; 'I' for Inactive)
REMARK    1  A    between atoms: C_1  and  C_2
REMARK    2  A    between atoms: C_1  and  C_16
REMARK    3  A    between atoms: C_2  and  C_3
REMARK    4  A    between atoms: C_3  and  N_6
REMARK    5  A    between atoms: C_16  and  N_17
REMARK                            x       y       z     vdW  Elec       q    Type
REMARK                         _______ _______ _______ _____ _____    ______ ____
ROOT
ATOM      1  C   UNL     1      31.611 -11.483 -20.650  0.00  0.00    -0.021 C 
ENDROOT
BRANCH   1   2
ATOM      2  C   UNL     1      31.268  -9.997 -20.493  0.00  0.00    +0.020 C 
BRANCH   2   3
ATOM      3  C   UNL     1      32.506  -9.126 -20.314  0.00  0.00    +0.101 C 
BRANCH   3   6
ATOM      4  O   UNL     1      31.528  -6.371 -20.058  0.00  0.00    -0.274 OA
ATOM      5  O   UNL     1      33.564  -9.261 -23.044  0.00  0.00    -0.274 OA
ATOM      6  N   UNL     1      32.580  -8.060 -21.294  0.00  0.00    -0.230 N 
ATOM      7  C   UNL     1      31.141  -5.493 -23.028  0.00  0.00    +0.009 C 
ATOM      8  C   UNL     1      32.122  -6.885 -24.470  0.00  0.00    +0.009 C 
ATOM      9  C   UNL     1      32.403  -5.944 -22.269  0.00  0.00    +0.086 C 
ATOM     10  C   UNL     1      33.078  -6.903 -23.263  0.00  0.00    +0.086 C 
ATOM     11  C   UNL     1      30.745  -6.746 -23.813  0.00  0.00    +0.001 C 
ATOM     12  C   UNL     1      31.579  -4.556 -24.170  0.00  0.00    +0.001 C 
ATOM     13  C   UNL     1      32.255  -5.518 -25.165  0.00  0.00    +0.001 C 
ATOM     14  C   UNL     1      32.107  -6.785 -21.053  0.00  0.00    +0.231 C 
ATOM     15  C   UNL     1      33.127  -8.231 -22.550  0.00  0.00    +0.231 C 
ENDBRANCH   3   6
ENDBRANCH   2   3
ENDBRANCH   1   2
BRANCH   1  16
ATOM     16  C   UNL     1      31.726 -11.868 -22.125  0.00  0.00    -0.077 C 
BRANCH  16  17
ATOM     17  N   UNL     1      32.023 -13.294 -22.254  0.00  0.00    +0.389 N 
ATOM     18  N   UNL     1      33.634 -15.648 -22.085  0.00  0.00    -0.257 N 
ATOM     19  N   UNL     1      34.031 -17.747 -21.079  0.00  0.00    -0.181 NA
ATOM     20  N   UNL     1      35.259 -17.070 -23.038  0.00  0.00    -0.203 NA
ATOM     21  C   UNL     1      33.130 -13.506 -23.195  0.00  0.00    -0.055 C 
ATOM     22  C   UNL     1      32.363 -13.871 -20.948  0.00  0.00    -0.055 C 
ATOM     23  C   UNL     1      33.414 -14.998 -23.383  0.00  0.00    +0.079 C 
ATOM     24  C   UNL     1      32.621 -15.375 -21.060  0.00  0.00    +0.079 C 
ATOM     25  C   UNL     1      34.331 -16.861 -22.067  0.00  0.00    +0.090 C 
ATOM     26  C   UNL     1      34.720 -18.907 -21.093  0.00  0.00    +0.108 C 
ATOM     27  C   UNL     1      35.911 -18.251 -22.992  0.00  0.00    +0.165 C 
ATOM     28  C   UNL     1      35.682 -19.216 -22.032  0.00  0.00    +0.022 C 
ATOM     29  H   UNL     1      31.192 -13.761 -22.614  0.00  0.00    -0.080 HD
ENDBRANCH  16  17
ENDBRANCH   1  16
TORSDOF 5
ENDMDL
MODEL 6
REMARK VINA RESULT:      -9.9      6.229     13.263
REMARK  Name = 91273
REMARK  5 active torsions:
REMARK  status: ('A' for Active; 'I' for Inactive)
REMARK    1  A    between atoms: C_1  and  C_2
REMARK    2  A    between atoms: C_1  and  C_16
REMARK    3  A    between atoms: C_2  and  C_3
REMARK    4  A    between atoms: C_3  and  N_6
REMARK    5  A    between atoms: C_16  and  N_17
REMARK                            x       y       z     vdW  Elec       q    Type
REMARK                         _______ _______ _______ _____ _____    ______ ____
ROOT
ATOM      1  C   UNL     1      33.931 -12.235 -24.248  0.00  0.00    -0.021 C 
ENDROOT
BRANCH   1   2
ATOM      2  C   UNL     1      33.635 -10.782 -24.638  0.00  0.00    +0.020 C 
BRANCH   2   3
ATOM      3  C   UNL     1      34.545  -9.787 -23.927  0.00  0.00    +0.101 C 
BRANCH   3   6
ATOM      4  O   UNL     1      32.501  -9.543 -21.836  0.00  0.00    -0.274 OA
ATOM      5  O   UNL     1      34.751  -7.087 -25.048  0.00  0.00    -0.274 OA
ATOM      6  N   UNL     1      33.839  -8.592 -23.507  0.00  0.00    -0.230 N 
ATOM      7  C   UNL     1      30.952  -6.967 -22.677  0.00  0.00    +0.009 C 
ATOM      8  C   UNL     1      32.035  -5.781 -24.226  0.00  0.00    +0.009 C 
ATOM      9  C   UNL     1      32.431  -7.173 -22.299  0.00  0.00    +0.086 C 
ATOM     10  C   UNL     1      33.177  -6.356 -23.366  0.00  0.00    +0.086 C 
ATOM     11  C   UNL     1      30.993  -6.904 -24.206  0.00  0.00    +0.001 C 
ATOM     12  C   UNL     1      30.567  -5.515 -22.332  0.00  0.00    +0.001 C 
ATOM     13  C   UNL     1      31.315  -4.698 -23.402  0.00  0.00    +0.001 C 
ATOM     14  C   UNL     1      32.910  -8.591 -22.486  0.00  0.00    +0.231 C 
ATOM     15  C   UNL     1      34.035  -7.359 -24.094  0.00  0.00    +0.231 C 
ENDBRANCH   3   6
ENDBRANCH   2   3
ENDBRANCH   1   2
BRANCH   1  16
ATOM     16  C   UNL     1      32.920 -12.745 -23.220  0.00  0.00    -0.077 C 
BRANCH  16  17
ATOM     17  N   UNL     1      33.488 -13.858 -22.461  0.00  0.00    +0.389 N 
ATOM     18  N   UNL     1      33.987 -16.601 -21.836  0.00  0.00    -0.257 N 
ATOM     19  N   UNL     1      35.533 -18.379 -21.671  0.00  0.00    -0.181 NA
ATOM     20  N   UNL     1      33.301 -18.604 -20.792  0.00  0.00    -0.203 NA
ATOM     21  C   UNL     1      32.420 -14.701 -21.907  0.00  0.00    -0.055 C 
ATOM     22  C   UNL     1      34.368 -14.667 -23.313  0.00  0.00    -0.055 C 
ATOM     23  C   UNL     1      32.999 -15.838 -21.063  0.00  0.00    +0.079 C 
ATOM     24  C   UNL     1      35.013 -15.804 -22.516  0.00  0.00    +0.079 C 
ATOM     25  C   UNL     1      34.283 -17.904 -21.419  0.00  0.00    +0.090 C 
ATOM     26  C   UNL     1      35.784 -19.637 -21.256  0.00  0.00    +0.108 C 
ATOM     27  C   UNL     1      33.621 -19.856 -20.403  0.00  0.00    +0.165 C 
ATOM     28  C   UNL     1      34.858 -20.431 -20.611  0.00  0.00    +0.022 C 
ATOM     29  H   UNL     1      34.035 -13.473 -21.693  0.00  0.00    -0.080 HD
ENDBRANCH  16  17
ENDBRANCH   1  16
TORSDOF 5
ENDMDL
MODEL 7
REMARK VINA RESULT:      -9.8      2.177      3.310
REMARK  Name = 91273
REMARK  5 active torsions:
REMARK  status: ('A' for Active; 'I' for Inactive)
REMARK    1  A    between atoms: C_1  and  C_2
REMARK    2  A    between atoms: C_1  and  C_16
REMARK    3  A    between atoms: C_2  and  C_3
REMARK    4  A    between atoms: C_3  and  N_6
REMARK    5  A    between atoms: C_16  and  N_17
REMARK                            x       y       z     vdW  Elec       q    Type
REMARK                         _______ _______ _______ _____ _____    ______ ____
ROOT
ATOM      1  C   UNL     1      36.563 -21.070 -19.011  0.00  0.00    -0.021 C 
ENDROOT
BRANCH   1   2
ATOM      2  C   UNL     1      36.269 -22.051 -17.872  0.00  0.00    +0.020 C 
BRANCH   2   3
ATOM      3  C   UNL     1      37.134 -21.797 -16.642  0.00  0.00    +0.101 C 
BRANCH   3   6
ATOM      4  O   UNL     1      34.735 -22.380 -15.055  0.00  0.00    -0.274 OA
ATOM      5  O   UNL     1      39.141 -23.676 -15.624  0.00  0.00    -0.274 OA
ATOM      6  N   UNL     1      36.964 -22.818 -15.626  0.00  0.00    -0.230 N 
ATOM      7  C   UNL     1      35.900 -23.807 -12.535  0.00  0.00    +0.009 C 
ATOM      8  C   UNL     1      38.024 -24.432 -12.807  0.00  0.00    +0.009 C 
ATOM      9  C   UNL     1      35.959 -24.191 -14.026  0.00  0.00    +0.086 C 
ATOM     10  C   UNL     1      37.422 -24.622 -14.213  0.00  0.00    +0.086 C 
ATOM     11  C   UNL     1      37.282 -23.201 -12.281  0.00  0.00    +0.001 C 
ATOM     12  C   UNL     1      35.988 -25.101 -11.703  0.00  0.00    +0.001 C 
ATOM     13  C   UNL     1      37.455 -25.532 -11.892  0.00  0.00    +0.001 C 
ATOM     14  C   UNL     1      35.773 -23.020 -14.958  0.00  0.00    +0.231 C 
ATOM     15  C   UNL     1      37.980 -23.671 -15.241  0.00  0.00    +0.231 C 
ENDBRANCH   3   6
ENDBRANCH   2   3
ENDBRANCH   1   2
BRANCH   1  16
ATOM     16  C   UNL     1      35.894 -21.519 -20.310  0.00  0.00    -0.077 C 
BRANCH  16  17
ATOM     17  N   UNL     1      35.379 -20.363 -21.042  0.00  0.00    +0.389 N 
ATOM     18  N   UNL     1      34.533 -17.654 -21.375  0.00  0.00    -0.257 N 
ATOM     19  N   UNL     1      34.895 -15.539 -22.361  0.00  0.00    -0.181 NA
ATOM     20  N   UNL     1      32.840 -16.018 -21.198  0.00  0.00    -0.203 NA
ATOM     21  C   UNL     1      34.117 -19.900 -20.452  0.00  0.00    -0.055 C 
ATOM     22  C   UNL     1      36.361 -19.271 -21.036  0.00  0.00    -0.055 C 
ATOM     23  C   UNL     1      33.538 -18.725 -21.243  0.00  0.00    +0.079 C 
ATOM     24  C   UNL     1      35.857 -18.074 -21.846  0.00  0.00    +0.079 C 
ATOM     25  C   UNL     1      34.074 -16.362 -21.653  0.00  0.00    +0.090 C 
ATOM     26  C   UNL     1      34.421 -14.301 -22.612  0.00  0.00    +0.108 C 
ATOM     27  C   UNL     1      32.429 -14.765 -21.484  0.00  0.00    +0.165 C 
ATOM     28  C   UNL     1      33.185 -13.854 -22.194  0.00  0.00    +0.022 C 
ATOM     29  H   UNL     1      35.208 -20.646 -22.006  0.00  0.00    -0.080 HD
ENDBRANCH  16  17
ENDBRANCH   1  16
TORSDOF 5
ENDMDL
MODEL 8
REMARK VINA RESULT:      -9.7      5.051     11.913
REMARK  Name = 91273
REMARK  5 active torsions:
REMARK  status: ('A' for Active; 'I' for Inactive)
REMARK    1  A    between atoms: C_1  and  C_2
REMARK    2  A    between atoms: C_1  and  C_16
REMARK    3  A    between atoms: C_2  and  C_3
REMARK    4  A    between atoms: C_3  and  N_6
REMARK    5  A    between atoms: C_16  and  N_17
REMARK                            x       y       z     vdW  Elec       q    Type
REMARK                         _______ _______ _______ _____ _____    ______ ____
ROOT
ATOM      1  C   UNL     1      33.552 -14.519 -24.194  0.00  0.00    -0.021 C 
ENDROOT
BRANCH   1   2
ATOM      2  C   UNL     1      32.510 -13.513 -23.693  0.00  0.00    +0.020 C 
BRANCH   2   3
ATOM      3  C   UNL     1      33.081 -12.538 -22.670  0.00  0.00    +0.101 C 
BRANCH   3   6
ATOM      4  O   UNL     1      34.523 -10.570 -24.301  0.00  0.00    -0.274 OA
ATOM      5  O   UNL     1      30.772 -11.060 -21.635  0.00  0.00    -0.274 OA
ATOM      6  N   UNL     1      32.707 -11.164 -22.945  0.00  0.00    -0.230 N 
ATOM      7  C   UNL     1      33.485  -7.847 -23.181  0.00  0.00    +0.009 C 
ATOM      8  C   UNL     1      31.676  -8.081 -21.895  0.00  0.00    +0.009 C 
ATOM      9  C   UNL     1      32.732  -9.012 -23.852  0.00  0.00    +0.086 C 
ATOM     10  C   UNL     1      31.486  -9.172 -22.966  0.00  0.00    +0.086 C 
ATOM     11  C   UNL     1      33.194  -8.061 -21.693  0.00  0.00    +0.001 C 
ATOM     12  C   UNL     1      32.698  -6.550 -23.451  0.00  0.00    +0.001 C 
ATOM     13  C   UNL     1      31.451  -6.712 -22.563  0.00  0.00    +0.001 C 
ATOM     14  C   UNL     1      33.453 -10.332 -23.755  0.00  0.00    +0.231 C 
ATOM     15  C   UNL     1      31.574 -10.575 -22.421  0.00  0.00    +0.231 C 
ENDBRANCH   3   6
ENDBRANCH   2   3
ENDBRANCH   1   2
BRANCH   1  16
ATOM     16  C   UNL     1      34.486 -14.952 -23.065  0.00  0.00    -0.077 C 
BRANCH  16  17
ATOM     17  N   UNL     1      34.284 -16.366 -22.754  0.00  0.00    +0.389 N 
ATOM     18  N   UNL     1      34.489 -18.746 -21.187  0.00  0.00    -0.257 N 
ATOM     19  N   UNL     1      33.409 -20.422 -19.920  0.00  0.00    -0.181 NA
ATOM     20  N   UNL     1      35.732 -20.640 -20.521  0.00  0.00    -0.203 NA
ATOM     21  C   UNL     1      35.575 -17.051 -22.607  0.00  0.00    -0.055 C 
ATOM     22  C   UNL     1      33.498 -16.517 -21.523  0.00  0.00    -0.055 C 
ATOM     23  C   UNL     1      35.378 -18.544 -22.337  0.00  0.00    +0.079 C 
ATOM     24  C   UNL     1      33.232 -17.992 -21.216  0.00  0.00    +0.079 C 
ATOM     25  C   UNL     1      34.546 -19.976 -20.521  0.00  0.00    +0.090 C 
ATOM     26  C   UNL     1      33.499 -21.610 -19.288  0.00  0.00    +0.108 C 
ATOM     27  C   UNL     1      35.751 -21.822 -19.871  0.00  0.00    +0.165 C 
ATOM     28  C   UNL     1      34.655 -22.361 -19.229  0.00  0.00    +0.022 C 
ATOM     29  H   UNL     1      33.772 -16.792 -23.525  0.00  0.00    -0.080 HD
ENDBRANCH  16  17
ENDBRANCH   1  16
TORSDOF 5
ENDMDL
MODEL 9
REMARK VINA RESULT:      -9.7      5.088     12.159
REMARK  Name = 91273
REMARK  5 active torsions:
REMARK  status: ('A' for Active; 'I' for Inactive)
REMARK    1  A    between atoms: C_1  and  C_2
REMARK    2  A    between atoms: C_1  and  C_16
REMARK    3  A    between atoms: C_2  and  C_3
REMARK    4  A    between atoms: C_3  and  N_6
REMARK    5  A    between atoms: C_16  and  N_17
REMARK                            x       y       z     vdW  Elec       q    Type
REMARK                         _______ _______ _______ _____ _____    ______ ____
ROOT
ATOM      1  C   UNL     1      33.613 -14.700 -23.798  0.00  0.00    -0.021 C 
ENDROOT
BRANCH   1   2
ATOM      2  C   UNL     1      33.859 -13.290 -23.250  0.00  0.00    +0.020 C 
BRANCH   2   3
ATOM      3  C   UNL     1      33.502 -12.200 -24.254  0.00  0.00    +0.101 C 
BRANCH   3   6
ATOM      4  O   UNL     1      31.411 -11.412 -22.351  0.00  0.00    -0.274 OA
ATOM      5  O   UNL     1      35.051  -9.747 -24.675  0.00  0.00    -0.274 OA
ATOM      6  N   UNL     1      33.312 -10.908 -23.624  0.00  0.00    -0.230 N 
ATOM      7  C   UNL     1      31.304  -8.310 -22.683  0.00  0.00    +0.009 C 
ATOM      8  C   UNL     1      33.058  -7.505 -23.803  0.00  0.00    +0.009 C 
ATOM      9  C   UNL     1      32.453  -9.235 -22.238  0.00  0.00    +0.086 C 
ATOM     10  C   UNL     1      33.661  -8.680 -23.010  0.00  0.00    +0.086 C 
ATOM     11  C   UNL     1      31.652  -8.008 -24.142  0.00  0.00    +0.001 C 
ATOM     12  C   UNL     1      31.524  -6.929 -22.035  0.00  0.00    +0.001 C 
ATOM     13  C   UNL     1      32.734  -6.375 -22.810  0.00  0.00    +0.001 C 
ATOM     14  C   UNL     1      32.302 -10.657 -22.717  0.00  0.00    +0.231 C 
ATOM     15  C   UNL     1      34.124  -9.821 -23.879  0.00  0.00    +0.231 C 
ENDBRANCH   3   6
ENDBRANCH   2   3
ENDBRANCH   1   2
BRANCH   1  16
ATOM     16  C   UNL     1      34.918 -15.491 -23.887  0.00  0.00    -0.077 C 
BRANCH  16  17
ATOM     17  N   UNL     1      35.031 -16.410 -22.755  0.00  0.00    +0.389 N 
ATOM     18  N   UNL     1      34.721 -18.887 -21.366  0.00  0.00    -0.257 N 
ATOM     19  N   UNL     1      35.729 -20.772 -20.363  0.00  0.00    -0.181 NA
ATOM     20  N   UNL     1      33.374 -20.345 -20.087  0.00  0.00    -0.203 NA
ATOM     21  C   UNL     1      33.702 -16.856 -22.319  0.00  0.00    -0.055 C 
ATOM     22  C   UNL     1      35.853 -17.571 -23.114  0.00  0.00    -0.055 C 
ATOM     23  C   UNL     1      33.803 -17.773 -21.098  0.00  0.00    +0.079 C 
ATOM     24  C   UNL     1      36.027 -18.514 -21.920  0.00  0.00    +0.079 C 
ATOM     25  C   UNL     1      34.604 -20.039 -20.580  0.00  0.00    +0.090 C 
ATOM     26  C   UNL     1      35.581 -21.875 -19.600  0.00  0.00    +0.108 C 
ATOM     27  C   UNL     1      33.298 -21.461 -19.332  0.00  0.00    +0.165 C 
ATOM     28  C   UNL     1      34.378 -22.273 -19.054  0.00  0.00    +0.022 C 
ATOM     29  H   UNL     1      35.480 -15.913 -21.986  0.00  0.00    -0.080 HD
ENDBRANCH  16  17
ENDBRANCH   1  16
TORSDOF 5
ENDMDL
