MODEL 1
REMARK VINA RESULT:     -10.3      0.000      0.000
REMARK  Name = 17756743
REMARK  5 active torsions:
REMARK  status: ('A' for Active; 'I' for Inactive)
REMARK    1  A    between atoms: C_6  and  C_10
REMARK    2  A    between atoms: C_7  and  C_16
REMARK    3  A    between atoms: N_22  and  C_24
REMARK    4  A    between atoms: C_24  and  C_25
REMARK    5  A    between atoms: C_25  and  N_26
REMARK                            x       y       z     vdW  Elec       q    Type
REMARK                         _______ _______ _______ _____ _____    ______ ____
ROOT
ATOM      1  O   UNL     1      31.756  -9.557 -22.023  0.00  0.00    -0.440 OA
ATOM      2  N   UNL     1      32.314 -13.459 -21.133  0.00  0.00    -0.233 NA
ATOM      3  N   UNL     1      31.302 -11.337 -20.498  0.00  0.00    -0.214 NA
ATOM      4  C   UNL     1      32.650 -11.567 -22.522  0.00  0.00    +0.155 C 
ATOM      5  C   UNL     1      32.861 -12.916 -22.244  0.00  0.00    +0.115 C 
ATOM      6  C   UNL     1      33.024 -10.647 -23.531  0.00  0.00    +0.028 C 
ATOM      7  C   UNL     1      32.456  -9.444 -23.182  0.00  0.00    +0.144 C 
ATOM      8  C   UNL     1      31.871 -10.855 -21.616  0.00  0.00    +0.214 C 
ATOM      9  C   UNL     1      31.579 -12.648 -20.339  0.00  0.00    +0.254 C 
ATOM     10  N   UNL     1      33.623 -13.709 -23.087  0.00  0.00    -0.323 N 
ATOM     11  H   UNL     1      34.011 -13.293 -23.891  0.00  0.00    +0.148 HD
ENDROOT
BRANCH   6  12
ATOM     12  C   UNL     1      33.822 -10.831 -24.710  0.00  0.00    -0.000 C 
ATOM     13  C   UNL     1      33.407 -11.719 -25.702  0.00  0.00    -0.000 C 
ATOM     14  C   UNL     1      35.013 -10.121 -24.863  0.00  0.00    -0.000 C 
ATOM     15  C   UNL     1      34.183 -11.898 -26.847  0.00  0.00    -0.000 C 
ATOM     16  C   UNL     1      35.789 -10.300 -26.008  0.00  0.00    -0.000 C 
ATOM     17  C   UNL     1      35.374 -11.188 -27.000  0.00  0.00    -0.000 C 
ENDBRANCH   6  12
BRANCH   7  18
ATOM     18  C   UNL     1      32.445  -8.127 -23.761  0.00  0.00    +0.034 C 
ATOM     19  C   UNL     1      31.231  -7.517 -24.081  0.00  0.00    +0.003 C 
ATOM     20  C   UNL     1      33.645  -7.460 -24.004  0.00  0.00    +0.003 C 
ATOM     21  C   UNL     1      31.218  -6.241 -24.644  0.00  0.00    +0.000 C 
ATOM     22  C   UNL     1      33.632  -6.184 -24.568  0.00  0.00    +0.000 C 
ATOM     23  C   UNL     1      32.419  -5.575 -24.888  0.00  0.00    +0.000 C 
ENDBRANCH   7  18
BRANCH  10  24
ATOM     24  C   UNL     1      33.879 -15.110 -22.854  0.00  0.00    +0.065 C 
BRANCH  24  25
ATOM     25  C   UNL     1      34.981 -15.592 -23.789  0.00  0.00    -0.056 C 
BRANCH  25  26
ATOM     26  N   UNL     1      35.389 -16.950 -23.436  0.00  0.00    +0.385 N 
ATOM     27  N   UNL     1      34.901 -19.605 -22.380  0.00  0.00    +0.381 N 
ATOM     28  C   UNL     1      34.618 -17.940 -24.196  0.00  0.00    -0.101 C 
ATOM     29  C   UNL     1      35.246 -17.180 -21.992  0.00  0.00    -0.101 C 
ATOM     30  C   UNL     1      35.039 -19.363 -23.818  0.00  0.00    -0.105 C 
ATOM     31  C   UNL     1      35.664 -18.606 -21.627  0.00  0.00    -0.105 C 
ATOM     32  H   UNL     1      36.375 -17.057 -23.680  0.00  0.00    -0.080 HD
ATOM     33  H   UNL     1      35.252 -20.536 -22.158  0.00  0.00    -0.085 HD
ATOM     34  H   UNL     1      33.916 -19.535 -22.123  0.00  0.00    -0.085 HD
ENDBRANCH  25  26
ENDBRANCH  24  25
ENDBRANCH  10  24
TORSDOF 5
ENDMDL
MODEL 2
REMARK VINA RESULT:     -10.1      2.572      8.299
REMARK  Name = 17756743
REMARK  5 active torsions:
REMARK  status: ('A' for Active; 'I' for Inactive)
REMARK    1  A    between atoms: C_6  and  C_10
REMARK    2  A    between atoms: C_7  and  C_16
REMARK    3  A    between atoms: N_22  and  C_24
REMARK    4  A    between atoms: C_24  and  C_25
REMARK    5  A    between atoms: C_25  and  N_26
REMARK                            x       y       z     vdW  Elec       q    Type
REMARK                         _______ _______ _______ _____ _____    ______ ____
ROOT
ATOM      1  O   UNL     1      32.406 -13.570 -22.170  0.00  0.00    -0.440 OA
ATOM      2  N   UNL     1      31.368  -9.740 -21.405  0.00  0.00    -0.233 NA
ATOM      3  N   UNL     1      31.189 -12.080 -20.755  0.00  0.00    -0.214 NA
ATOM      4  C   UNL     1      32.508 -11.378 -22.688  0.00  0.00    +0.155 C 
ATOM      5  C   UNL     1      32.169 -10.047 -22.452  0.00  0.00    +0.115 C 
ATOM      6  C   UNL     1      33.283 -12.097 -23.629  0.00  0.00    +0.028 C 
ATOM      7  C   UNL     1      33.189 -13.421 -23.270  0.00  0.00    +0.144 C 
ATOM      8  C   UNL     1      31.987 -12.322 -21.809  0.00  0.00    +0.214 C 
ATOM      9  C   UNL     1      30.934 -10.761 -20.632  0.00  0.00    +0.254 C 
ATOM     10  N   UNL     1      32.638  -9.033 -23.272  0.00  0.00    -0.323 N 
ATOM     11  H   UNL     1      33.220  -9.278 -24.028  0.00  0.00    +0.148 HD
ENDROOT
BRANCH   6  12
ATOM     12  C   UNL     1      34.045 -11.636 -24.754  0.00  0.00    -0.000 C 
ATOM     13  C   UNL     1      34.999 -10.632 -24.587  0.00  0.00    -0.000 C 
ATOM     14  C   UNL     1      33.832 -12.193 -26.016  0.00  0.00    -0.000 C 
ATOM     15  C   UNL     1      35.739 -10.184 -25.681  0.00  0.00    -0.000 C 
ATOM     16  C   UNL     1      34.572 -11.745 -27.110  0.00  0.00    -0.000 C 
ATOM     17  C   UNL     1      35.526 -10.741 -26.943  0.00  0.00    -0.000 C 
ENDBRANCH   6  12
BRANCH   7  18
ATOM     18  C   UNL     1      33.724 -14.650 -23.794  0.00  0.00    +0.034 C 
ATOM     19  C   UNL     1      34.648 -15.382 -23.046  0.00  0.00    +0.003 C 
ATOM     20  C   UNL     1      33.322 -15.109 -25.047  0.00  0.00    +0.003 C 
ATOM     21  C   UNL     1      35.169 -16.572 -23.553  0.00  0.00    +0.000 C 
ATOM     22  C   UNL     1      33.843 -16.299 -25.555  0.00  0.00    +0.000 C 
ATOM     23  C   UNL     1      34.767 -17.031 -24.807  0.00  0.00    +0.000 C 
ENDBRANCH   7  18
BRANCH  10  24
ATOM     24  C   UNL     1      32.323  -7.637 -23.080  0.00  0.00    +0.065 C 
BRANCH  24  25
ATOM     25  C   UNL     1      31.313  -7.192 -24.130  0.00  0.00    -0.056 C 
BRANCH  25  26
ATOM     26  N   UNL     1      30.960  -5.787 -23.932  0.00  0.00    +0.385 N 
ATOM     27  N   UNL     1      31.453  -3.115 -22.925  0.00  0.00    +0.381 N 
ATOM     28  C   UNL     1      31.949  -4.907 -24.565  0.00  0.00    -0.101 C 
ATOM     29  C   UNL     1      30.833  -5.478 -22.502  0.00  0.00    -0.101 C 
ATOM     30  C   UNL     1      31.583  -3.435 -24.348  0.00  0.00    -0.105 C 
ATOM     31  C   UNL     1      30.473  -4.005 -22.296  0.00  0.00    -0.105 C 
ATOM     32  H   UNL     1      30.056  -5.624 -24.376  0.00  0.00    -0.080 HD
ATOM     33  H   UNL     1      31.146  -2.148 -22.823  0.00  0.00    -0.085 HD
ATOM     34  H   UNL     1      32.357  -3.240 -22.470  0.00  0.00    -0.085 HD
ENDBRANCH  25  26
ENDBRANCH  24  25
ENDBRANCH  10  24
TORSDOF 5
ENDMDL
MODEL 3
REMARK VINA RESULT:     -10.1      2.564      8.223
REMARK  Name = 17756743
REMARK  5 active torsions:
REMARK  status: ('A' for Active; 'I' for Inactive)
REMARK    1  A    between atoms: C_6  and  C_10
REMARK    2  A    between atoms: C_7  and  C_16
REMARK    3  A    between atoms: N_22  and  C_24
REMARK    4  A    between atoms: C_24  and  C_25
REMARK    5  A    between atoms: C_25  and  N_26
REMARK                            x       y       z     vdW  Elec       q    Type
REMARK                         _______ _______ _______ _____ _____    ______ ____
ROOT
ATOM      1  O   UNL     1      32.409 -13.604 -22.134  0.00  0.00    -0.440 OA
ATOM      2  N   UNL     1      31.355  -9.778 -21.371  0.00  0.00    -0.233 NA
ATOM      3  N   UNL     1      31.196 -12.118 -20.713  0.00  0.00    -0.214 NA
ATOM      4  C   UNL     1      32.493 -11.413 -22.659  0.00  0.00    +0.155 C 
ATOM      5  C   UNL     1      32.148 -10.083 -22.424  0.00  0.00    +0.115 C 
ATOM      6  C   UNL     1      33.265 -12.130 -23.605  0.00  0.00    +0.028 C 
ATOM      7  C   UNL     1      33.181 -13.454 -23.242  0.00  0.00    +0.144 C 
ATOM      8  C   UNL     1      31.986 -12.358 -21.774  0.00  0.00    +0.214 C 
ATOM      9  C   UNL     1      30.934 -10.800 -20.592  0.00  0.00    +0.254 C 
ATOM     10  N   UNL     1      32.604  -9.069 -23.251  0.00  0.00    -0.323 N 
ATOM     11  H   UNL     1      33.181  -9.313 -24.011  0.00  0.00    +0.148 HD
ENDROOT
BRANCH   6  12
ATOM     12  C   UNL     1      34.014 -11.668 -24.739  0.00  0.00    -0.000 C 
ATOM     13  C   UNL     1      33.791 -12.226 -25.998  0.00  0.00    -0.000 C 
ATOM     14  C   UNL     1      34.966 -10.661 -24.581  0.00  0.00    -0.000 C 
ATOM     15  C   UNL     1      34.519 -11.777 -27.098  0.00  0.00    -0.000 C 
ATOM     16  C   UNL     1      35.695 -10.211 -25.682  0.00  0.00    -0.000 C 
ATOM     17  C   UNL     1      35.472 -10.769 -26.941  0.00  0.00    -0.000 C 
ENDBRANCH   6  12
BRANCH   7  18
ATOM     18  C   UNL     1      33.719 -14.681 -23.767  0.00  0.00    +0.034 C 
ATOM     19  C   UNL     1      33.329 -15.128 -25.030  0.00  0.00    +0.003 C 
ATOM     20  C   UNL     1      34.629 -15.423 -23.015  0.00  0.00    +0.003 C 
ATOM     21  C   UNL     1      33.850 -16.318 -25.540  0.00  0.00    +0.000 C 
ATOM     22  C   UNL     1      35.149 -16.613 -23.524  0.00  0.00    +0.000 C 
ATOM     23  C   UNL     1      34.759 -17.060 -24.787  0.00  0.00    +0.000 C 
ENDBRANCH   7  18
BRANCH  10  24
ATOM     24  C   UNL     1      32.283  -7.674 -23.061  0.00  0.00    +0.065 C 
BRANCH  24  25
ATOM     25  C   UNL     1      31.239  -7.246 -24.084  0.00  0.00    -0.056 C 
BRANCH  25  26
ATOM     26  N   UNL     1      30.900  -5.836 -23.903  0.00  0.00    +0.385 N 
ATOM     27  N   UNL     1      31.460  -3.134 -23.014  0.00  0.00    +0.381 N 
ATOM     28  C   UNL     1      31.839  -4.975 -24.632  0.00  0.00    -0.101 C 
ATOM     29  C   UNL     1      30.875  -5.483 -22.477  0.00  0.00    -0.101 C 
ATOM     30  C   UNL     1      31.488  -3.498 -24.433  0.00  0.00    -0.105 C 
ATOM     31  C   UNL     1      30.529  -4.004 -22.291  0.00  0.00    -0.105 C 
ATOM     32  H   UNL     1      29.966  -5.685 -24.286  0.00  0.00    -0.080 HD
ATOM     33  H   UNL     1      31.160  -2.165 -22.920  0.00  0.00    -0.085 HD
ATOM     34  H   UNL     1      32.395  -3.247 -22.622  0.00  0.00    -0.085 HD
ENDBRANCH  25  26
ENDBRANCH  24  25
ENDBRANCH  10  24
TORSDOF 5
ENDMDL
MODEL 4
REMARK VINA RESULT:      -9.9      2.694      8.242
REMARK  Name = 17756743
REMARK  5 active torsions:
REMARK  status: ('A' for Active; 'I' for Inactive)
REMARK    1  A    between atoms: C_6  and  C_10
REMARK    2  A    between atoms: C_7  and  C_16
REMARK    3  A    between atoms: N_22  and  C_24
REMARK    4  A    between atoms: C_24  and  C_25
REMARK    5  A    between atoms: C_25  and  N_26
REMARK                            x       y       z     vdW  Elec       q    Type
REMARK                         _______ _______ _______ _____ _____    ______ ____
ROOT
ATOM      1  O   UNL     1      32.773 -13.736 -20.650  0.00  0.00    -0.440 OA
ATOM      2  N   UNL     1      31.244 -10.008 -20.965  0.00  0.00    -0.233 NA
ATOM      3  N   UNL     1      31.736 -11.906 -19.520  0.00  0.00    -0.214 NA
ATOM      4  C   UNL     1      32.277 -11.927 -21.902  0.00  0.00    +0.155 C 
ATOM      5  C   UNL     1      31.758 -10.642 -22.045  0.00  0.00    +0.115 C 
ATOM      6  C   UNL     1      32.881 -12.898 -22.737  0.00  0.00    +0.028 C 
ATOM      7  C   UNL     1      33.162 -13.975 -21.929  0.00  0.00    +0.144 C 
ATOM      8  C   UNL     1      32.231 -12.484 -20.628  0.00  0.00    +0.214 C 
ATOM      9  C   UNL     1      31.265 -10.670 -19.786  0.00  0.00    +0.254 C 
ATOM     10  N   UNL     1      31.758 -10.003 -23.275  0.00  0.00    -0.323 N 
ATOM     11  H   UNL     1      32.137 -10.481 -24.047  0.00  0.00    +0.148 HD
ENDROOT
BRANCH   6  12
ATOM     12  C   UNL     1      33.180 -12.864 -24.140  0.00  0.00    -0.000 C 
ATOM     13  C   UNL     1      33.994 -11.854 -24.655  0.00  0.00    -0.000 C 
ATOM     14  C   UNL     1      32.657 -13.840 -24.989  0.00  0.00    -0.000 C 
ATOM     15  C   UNL     1      34.284 -11.821 -26.019  0.00  0.00    -0.000 C 
ATOM     16  C   UNL     1      32.948 -13.806 -26.353  0.00  0.00    -0.000 C 
ATOM     17  C   UNL     1      33.761 -12.797 -26.868  0.00  0.00    -0.000 C 
ENDBRANCH   6  12
BRANCH   7  18
ATOM     18  C   UNL     1      33.763 -15.265 -22.140  0.00  0.00    +0.034 C 
ATOM     19  C   UNL     1      33.508 -16.307 -21.247  0.00  0.00    +0.003 C 
ATOM     20  C   UNL     1      34.600 -15.475 -23.235  0.00  0.00    +0.003 C 
ATOM     21  C   UNL     1      34.091 -17.558 -21.451  0.00  0.00    +0.000 C 
ATOM     22  C   UNL     1      35.183 -16.727 -23.439  0.00  0.00    +0.000 C 
ATOM     23  C   UNL     1      34.928 -17.768 -22.545  0.00  0.00    +0.000 C 
ENDBRANCH   7  18
BRANCH  10  24
ATOM     24  C   UNL     1      31.236  -8.674 -23.487  0.00  0.00    +0.065 C 
BRANCH  24  25
ATOM     25  C   UNL     1      32.383  -7.712 -23.767  0.00  0.00    -0.056 C 
BRANCH  25  26
ATOM     26  N   UNL     1      32.129  -6.420 -23.133  0.00  0.00    +0.385 N 
ATOM     27  N   UNL     1      30.448  -4.160 -22.452  0.00  0.00    +0.381 N 
ATOM     28  C   UNL     1      31.076  -6.535 -22.118  0.00  0.00    -0.101 C 
ATOM     29  C   UNL     1      31.773  -5.407 -24.136  0.00  0.00    -0.101 C 
ATOM     30  C   UNL     1      30.804  -5.178 -21.462  0.00  0.00    -0.105 C 
ATOM     31  C   UNL     1      31.498  -4.058 -23.468  0.00  0.00    -0.105 C 
ATOM     32  H   UNL     1      32.988  -6.122 -22.670  0.00  0.00    -0.080 HD
ATOM     33  H   UNL     1      30.340  -3.259 -21.986  0.00  0.00    -0.085 HD
ATOM     34  H   UNL     1      29.572  -4.424 -22.903  0.00  0.00    -0.085 HD
ENDBRANCH  25  26
ENDBRANCH  24  25
ENDBRANCH  10  24
TORSDOF 5
ENDMDL
MODEL 5
REMARK VINA RESULT:      -9.6      2.856      4.838
REMARK  Name = 17756743
REMARK  5 active torsions:
REMARK  status: ('A' for Active; 'I' for Inactive)
REMARK    1  A    between atoms: C_6  and  C_10
REMARK    2  A    between atoms: C_7  and  C_16
REMARK    3  A    between atoms: N_22  and  C_24
REMARK    4  A    between atoms: C_24  and  C_25
REMARK    5  A    between atoms: C_25  and  N_26
REMARK                            x       y       z     vdW  Elec       q    Type
REMARK                         _______ _______ _______ _____ _____    ______ ____
ROOT
ATOM      1  O   UNL     1      32.720 -11.764 -24.658  0.00  0.00    -0.440 OA
ATOM      2  N   UNL     1      33.845 -15.002 -26.798  0.00  0.00    -0.233 NA
ATOM      3  N   UNL     1      33.143 -12.670 -26.827  0.00  0.00    -0.214 NA
ATOM      4  C   UNL     1      33.376 -13.920 -24.741  0.00  0.00    +0.155 C 
ATOM      5  C   UNL     1      33.768 -15.054 -25.449  0.00  0.00    +0.115 C 
ATOM      6  C   UNL     1      33.175 -13.564 -23.385  0.00  0.00    +0.028 C 
ATOM      7  C   UNL     1      32.778 -12.247 -23.390  0.00  0.00    +0.144 C 
ATOM      8  C   UNL     1      33.085 -12.784 -25.488  0.00  0.00    +0.214 C 
ATOM      9  C   UNL     1      33.532 -13.830 -27.395  0.00  0.00    +0.254 C 
ATOM     10  N   UNL     1      34.079 -16.235 -24.793  0.00  0.00    -0.323 N 
ATOM     11  H   UNL     1      34.017 -16.251 -23.811  0.00  0.00    +0.148 HD
ENDROOT
BRANCH   6  12
ATOM     12  C   UNL     1      33.327 -14.339 -22.186  0.00  0.00    -0.000 C 
ATOM     13  C   UNL     1      34.591 -14.505 -21.618  0.00  0.00    -0.000 C 
ATOM     14  C   UNL     1      32.211 -14.925 -21.589  0.00  0.00    -0.000 C 
ATOM     15  C   UNL     1      34.738 -15.258 -20.454  0.00  0.00    -0.000 C 
ATOM     16  C   UNL     1      32.358 -15.678 -20.425  0.00  0.00    -0.000 C 
ATOM     17  C   UNL     1      33.621 -15.845 -19.857  0.00  0.00    -0.000 C 
ENDBRANCH   6  12
BRANCH   7  18
ATOM     18  C   UNL     1      32.421 -11.297 -22.371  0.00  0.00    +0.034 C 
ATOM     19  C   UNL     1      31.792 -11.732 -21.203  0.00  0.00    +0.003 C 
ATOM     20  C   UNL     1      32.701  -9.943 -22.548  0.00  0.00    +0.003 C 
ATOM     21  C   UNL     1      31.444 -10.811 -20.214  0.00  0.00    +0.000 C 
ATOM     22  C   UNL     1      32.353  -9.022 -21.560  0.00  0.00    +0.000 C 
ATOM     23  C   UNL     1      31.724  -9.457 -20.393  0.00  0.00    +0.000 C 
ENDBRANCH   7  18
BRANCH  10  24
ATOM     24  C   UNL     1      34.490 -17.442 -25.469  0.00  0.00    +0.065 C 
BRANCH  24  25
ATOM     25  C   UNL     1      34.147 -18.652 -24.610  0.00  0.00    -0.056 C 
BRANCH  25  26
ATOM     26  N   UNL     1      34.588 -18.439 -23.233  0.00  0.00    +0.385 N 
ATOM     27  N   UNL     1      35.860 -19.275 -20.766  0.00  0.00    +0.381 N 
ATOM     28  C   UNL     1      36.048 -18.549 -23.129  0.00  0.00    -0.101 C 
ATOM     29  C   UNL     1      33.932 -19.386 -22.322  0.00  0.00    -0.101 C 
ATOM     30  C   UNL     1      36.507 -18.336 -21.684  0.00  0.00    -0.105 C 
ATOM     31  C   UNL     1      34.403 -19.168 -20.882  0.00  0.00    -0.105 C 
ATOM     32  H   UNL     1      34.319 -17.494 -22.958  0.00  0.00    -0.080 HD
ATOM     33  H   UNL     1      36.139 -19.060 -19.810  0.00  0.00    -0.085 HD
ATOM     34  H   UNL     1      36.144 -20.225 -21.005  0.00  0.00    -0.085 HD
ENDBRANCH  25  26
ENDBRANCH  24  25
ENDBRANCH  10  24
TORSDOF 5
ENDMDL
MODEL 6
REMARK VINA RESULT:      -9.5      2.999      8.643
REMARK  Name = 17756743
REMARK  5 active torsions:
REMARK  status: ('A' for Active; 'I' for Inactive)
REMARK    1  A    between atoms: C_6  and  C_10
REMARK    2  A    between atoms: C_7  and  C_16
REMARK    3  A    between atoms: N_22  and  C_24
REMARK    4  A    between atoms: C_24  and  C_25
REMARK    5  A    between atoms: C_25  and  N_26
REMARK                            x       y       z     vdW  Elec       q    Type
REMARK                         _______ _______ _______ _____ _____    ______ ____
ROOT
ATOM      1  O   UNL     1      34.149 -15.748 -26.075  0.00  0.00    -0.440 OA
ATOM      2  N   UNL     1      33.300 -11.797 -26.051  0.00  0.00    -0.233 NA
ATOM      3  N   UNL     1      33.815 -13.775 -27.377  0.00  0.00    -0.214 NA
ATOM      4  C   UNL     1      33.666 -13.860 -24.940  0.00  0.00    +0.155 C 
ATOM      5  C   UNL     1      33.371 -12.499 -24.897  0.00  0.00    +0.115 C 
ATOM      6  C   UNL     1      33.827 -14.914 -24.008  0.00  0.00    +0.028 C 
ATOM      7  C   UNL     1      34.119 -16.037 -24.748  0.00  0.00    +0.144 C 
ATOM      8  C   UNL     1      33.872 -14.418 -26.198  0.00  0.00    +0.214 C 
ATOM      9  C   UNL     1      33.524 -12.469 -27.203  0.00  0.00    +0.254 C 
ATOM     10  N   UNL     1      33.150 -11.853 -23.691  0.00  0.00    -0.323 N 
ATOM     11  H   UNL     1      33.205 -12.382 -22.863  0.00  0.00    +0.148 HD
ENDROOT
BRANCH   6  12
ATOM     12  C   UNL     1      33.728 -14.915 -22.577  0.00  0.00    -0.000 C 
ATOM     13  C   UNL     1      32.475 -14.951 -21.964  0.00  0.00    -0.000 C 
ATOM     14  C   UNL     1      34.885 -14.881 -21.798  0.00  0.00    -0.000 C 
ATOM     15  C   UNL     1      32.380 -14.951 -20.573  0.00  0.00    -0.000 C 
ATOM     16  C   UNL     1      34.789 -14.881 -20.406  0.00  0.00    -0.000 C 
ATOM     17  C   UNL     1      33.537 -14.917 -19.793  0.00  0.00    -0.000 C 
ENDBRANCH   6  12
BRANCH   7  18
ATOM     18  C   UNL     1      34.392 -17.413 -24.428  0.00  0.00    +0.034 C 
ATOM     19  C   UNL     1      34.888 -17.750 -23.168  0.00  0.00    +0.003 C 
ATOM     20  C   UNL     1      34.162 -18.409 -25.377  0.00  0.00    +0.003 C 
ATOM     21  C   UNL     1      35.154 -19.084 -22.858  0.00  0.00    +0.000 C 
ATOM     22  C   UNL     1      34.428 -19.743 -25.066  0.00  0.00    +0.000 C 
ATOM     23  C   UNL     1      34.925 -20.080 -23.807  0.00  0.00    +0.000 C 
ENDBRANCH   7  18
BRANCH  10  24
ATOM     24  C   UNL     1      32.841 -10.447 -23.580  0.00  0.00    +0.065 C 
BRANCH  24  25
ATOM     25  C   UNL     1      31.510 -10.271 -22.860  0.00  0.00    -0.056 C 
BRANCH  25  26
ATOM     26  N   UNL     1      31.609  -9.208 -21.863  0.00  0.00    +0.385 N 
ATOM     27  N   UNL     1      33.010  -7.696 -19.825  0.00  0.00    +0.381 N 
ATOM     28  C   UNL     1      32.670  -8.258 -22.216  0.00  0.00    -0.101 C 
ATOM     29  C   UNL     1      31.840  -9.767 -20.524  0.00  0.00    -0.101 C 
ATOM     30  C   UNL     1      32.780  -7.150 -21.164  0.00  0.00    -0.105 C 
ATOM     31  C   UNL     1      31.953  -8.652 -19.483  0.00  0.00    -0.105 C 
ATOM     32  H   UNL     1      30.721  -8.704 -21.849  0.00  0.00    -0.080 HD
ATOM     33  H   UNL     1      33.011  -6.936 -19.146  0.00  0.00    -0.085 HD
ATOM     34  H   UNL     1      33.910  -8.175 -19.810  0.00  0.00    -0.085 HD
ENDBRANCH  25  26
ENDBRANCH  24  25
ENDBRANCH  10  24
TORSDOF 5
ENDMDL
MODEL 7
REMARK VINA RESULT:      -9.4      1.676      3.908
REMARK  Name = 17756743
REMARK  5 active torsions:
REMARK  status: ('A' for Active; 'I' for Inactive)
REMARK    1  A    between atoms: C_6  and  C_10
REMARK    2  A    between atoms: C_7  and  C_16
REMARK    3  A    between atoms: N_22  and  C_24
REMARK    4  A    between atoms: C_24  and  C_25
REMARK    5  A    between atoms: C_25  and  N_26
REMARK                            x       y       z     vdW  Elec       q    Type
REMARK                         _______ _______ _______ _____ _____    ______ ____
ROOT
ATOM      1  O   UNL     1      33.174 -10.449 -24.964  0.00  0.00    -0.440 OA
ATOM      2  N   UNL     1      33.502 -14.326 -23.873  0.00  0.00    -0.233 NA
ATOM      3  N   UNL     1      33.779 -12.661 -25.629  0.00  0.00    -0.214 NA
ATOM      4  C   UNL     1      32.953 -12.066 -23.408  0.00  0.00    +0.155 C 
ATOM      5  C   UNL     1      33.054 -13.395 -23.000  0.00  0.00    +0.115 C 
ATOM      6  C   UNL     1      32.551 -10.835 -22.836  0.00  0.00    +0.028 C 
ATOM      7  C   UNL     1      32.704  -9.887 -23.821  0.00  0.00    +0.144 C 
ATOM      8  C   UNL     1      33.328 -11.782 -24.717  0.00  0.00    +0.214 C 
ATOM      9  C   UNL     1      33.832 -13.908 -25.116  0.00  0.00    +0.254 C 
ATOM     10  N   UNL     1      32.704 -13.777 -21.714  0.00  0.00    -0.323 N 
ATOM     11  H   UNL     1      32.381 -13.083 -21.095  0.00  0.00    +0.148 HD
ENDROOT
BRANCH   6  12
ATOM     12  C   UNL     1      32.070 -10.534 -21.518  0.00  0.00    -0.000 C 
ATOM     13  C   UNL     1      32.578  -9.435 -20.824  0.00  0.00    -0.000 C 
ATOM     14  C   UNL     1      31.095 -11.340 -20.930  0.00  0.00    -0.000 C 
ATOM     15  C   UNL     1      32.111  -9.144 -19.542  0.00  0.00    -0.000 C 
ATOM     16  C   UNL     1      30.628 -11.048 -19.649  0.00  0.00    -0.000 C 
ATOM     17  C   UNL     1      31.136  -9.950 -18.955  0.00  0.00    -0.000 C 
ENDBRANCH   6  12
BRANCH   7  18
ATOM     18  C   UNL     1      32.480  -8.468 -23.899  0.00  0.00    +0.034 C 
ATOM     19  C   UNL     1      33.565  -7.596 -23.991  0.00  0.00    +0.003 C 
ATOM     20  C   UNL     1      31.180  -7.964 -23.883  0.00  0.00    +0.003 C 
ATOM     21  C   UNL     1      33.349  -6.219 -24.066  0.00  0.00    +0.000 C 
ATOM     22  C   UNL     1      30.964  -6.588 -23.958  0.00  0.00    +0.000 C 
ATOM     23  C   UNL     1      32.049  -5.716 -24.049  0.00  0.00    +0.000 C 
ENDBRANCH   7  18
BRANCH  10  24
ATOM     24  C   UNL     1      32.786 -15.135 -21.232  0.00  0.00    +0.065 C 
BRANCH  24  25
ATOM     25  C   UNL     1      34.171 -15.388 -20.651  0.00  0.00    -0.056 C 
BRANCH  25  26
ATOM     26  N   UNL     1      34.640 -16.722 -21.019  0.00  0.00    +0.385 N 
ATOM     27  N   UNL     1      34.640 -19.096 -22.682  0.00  0.00    +0.381 N 
ATOM     28  C   UNL     1      35.243 -16.713 -22.357  0.00  0.00    -0.101 C 
ATOM     29  C   UNL     1      33.544 -17.698 -20.952  0.00  0.00    -0.101 C 
ATOM     30  C   UNL     1      35.725 -18.114 -22.745  0.00  0.00    -0.105 C 
ATOM     31  C   UNL     1      34.035 -19.092 -21.347  0.00  0.00    -0.105 C 
ATOM     32  H   UNL     1      35.356 -17.001 -20.347  0.00  0.00    -0.080 HD
ATOM     33  H   UNL     1      35.012 -20.024 -22.881  0.00  0.00    -0.085 HD
ATOM     34  H   UNL     1      33.928 -18.852 -23.371  0.00  0.00    -0.085 HD
ENDBRANCH  25  26
ENDBRANCH  24  25
ENDBRANCH  10  24
TORSDOF 5
ENDMDL
MODEL 8
REMARK VINA RESULT:      -8.5      2.208      4.066
REMARK  Name = 17756743
REMARK  5 active torsions:
REMARK  status: ('A' for Active; 'I' for Inactive)
REMARK    1  A    between atoms: C_6  and  C_10
REMARK    2  A    between atoms: C_7  and  C_16
REMARK    3  A    between atoms: N_22  and  C_24
REMARK    4  A    between atoms: C_24  and  C_25
REMARK    5  A    between atoms: C_25  and  N_26
REMARK                            x       y       z     vdW  Elec       q    Type
REMARK                         _______ _______ _______ _____ _____    ______ ____
ROOT
ATOM      1  O   UNL     1      33.510 -10.905 -25.725  0.00  0.00    -0.440 OA
ATOM      2  N   UNL     1      33.798 -14.776 -26.849  0.00  0.00    -0.233 NA
ATOM      3  N   UNL     1      33.866 -12.436 -27.522  0.00  0.00    -0.214 NA
ATOM      4  C   UNL     1      33.466 -13.098 -25.205  0.00  0.00    +0.155 C 
ATOM      5  C   UNL     1      33.560 -14.443 -25.559  0.00  0.00    +0.115 C 
ATOM      6  C   UNL     1      33.238 -12.353 -24.023  0.00  0.00    +0.028 C 
ATOM      7  C   UNL     1      33.275 -11.029 -24.393  0.00  0.00    +0.144 C 
ATOM      8  C   UNL     1      33.628 -12.168 -26.226  0.00  0.00    +0.214 C 
ATOM      9  C   UNL     1      33.935 -13.766 -27.738  0.00  0.00    +0.254 C 
ATOM     10  N   UNL     1      33.412 -15.444 -24.612  0.00  0.00    -0.323 N 
ATOM     11  H   UNL     1      33.241 -15.180 -23.680  0.00  0.00    +0.148 HD
ENDROOT
BRANCH   6  12
ATOM     12  C   UNL     1      33.007 -12.791 -22.676  0.00  0.00    -0.000 C 
ATOM     13  C   UNL     1      31.961 -12.243 -21.933  0.00  0.00    -0.000 C 
ATOM     14  C   UNL     1      33.830 -13.764 -22.109  0.00  0.00    -0.000 C 
ATOM     15  C   UNL     1      31.738 -12.668 -20.624  0.00  0.00    -0.000 C 
ATOM     16  C   UNL     1      33.607 -14.190 -20.799  0.00  0.00    -0.000 C 
ATOM     17  C   UNL     1      32.561 -13.642 -20.057  0.00  0.00    -0.000 C 
ENDBRANCH   6  12
BRANCH   7  18
ATOM     18  C   UNL     1      33.121  -9.781 -23.693  0.00  0.00    +0.034 C 
ATOM     19  C   UNL     1      31.872  -9.412 -23.193  0.00  0.00    +0.003 C 
ATOM     20  C   UNL     1      34.219  -8.940 -23.516  0.00  0.00    +0.003 C 
ATOM     21  C   UNL     1      31.722  -8.201 -22.515  0.00  0.00    +0.000 C 
ATOM     22  C   UNL     1      34.069  -7.730 -22.838  0.00  0.00    +0.000 C 
ATOM     23  C   UNL     1      32.820  -7.361 -22.339  0.00  0.00    +0.000 C 
ENDBRANCH   7  18
BRANCH  10  24
ATOM     24  C   UNL     1      33.499 -16.853 -24.916  0.00  0.00    +0.065 C 
BRANCH  24  25
ATOM     25  C   UNL     1      34.960 -17.279 -24.956  0.00  0.00    -0.056 C 
BRANCH  25  26
ATOM     26  N   UNL     1      35.340 -17.910 -23.694  0.00  0.00    +0.385 N 
ATOM     27  N   UNL     1      34.830 -18.754 -20.968  0.00  0.00    +0.381 N 
ATOM     28  C   UNL     1      34.473 -19.058 -23.403  0.00  0.00    -0.101 C 
ATOM     29  C   UNL     1      35.300 -16.940 -22.592  0.00  0.00    -0.101 C 
ATOM     30  C   UNL     1      34.866 -19.712 -22.075  0.00  0.00    -0.105 C 
ATOM     31  C   UNL     1      35.688 -17.606 -21.270  0.00  0.00    -0.105 C 
ATOM     32  H   UNL     1      36.298 -18.249 -23.786  0.00  0.00    -0.080 HD
ATOM     33  H   UNL     1      35.159 -19.209 -20.118  0.00  0.00    -0.085 HD
ATOM     34  H   UNL     1      33.872 -18.429 -20.839  0.00  0.00    -0.085 HD
ENDBRANCH  25  26
ENDBRANCH  24  25
ENDBRANCH  10  24
TORSDOF 5
ENDMDL
MODEL 9
REMARK VINA RESULT:      -8.5      2.028      4.060
REMARK  Name = 17756743
REMARK  5 active torsions:
REMARK  status: ('A' for Active; 'I' for Inactive)
REMARK    1  A    between atoms: C_6  and  C_10
REMARK    2  A    between atoms: C_7  and  C_16
REMARK    3  A    between atoms: N_22  and  C_24
REMARK    4  A    between atoms: C_24  and  C_25
REMARK    5  A    between atoms: C_25  and  N_26
REMARK                            x       y       z     vdW  Elec       q    Type
REMARK                         _______ _______ _______ _____ _____    ______ ____
ROOT
ATOM      1  O   UNL     1      33.624  -8.052 -24.415  0.00  0.00    -0.440 OA
ATOM      2  N   UNL     1      34.724 -11.871 -25.145  0.00  0.00    -0.233 NA
ATOM      3  N   UNL     1      34.866  -9.534 -25.816  0.00  0.00    -0.214 NA
ATOM      4  C   UNL     1      33.557 -10.241 -23.878  0.00  0.00    +0.155 C 
ATOM      5  C   UNL     1      33.918 -11.568 -24.102  0.00  0.00    +0.115 C 
ATOM      6  C   UNL     1      32.770  -9.526 -22.943  0.00  0.00    +0.028 C 
ATOM      7  C   UNL     1      32.843  -8.204 -23.313  0.00  0.00    +0.144 C 
ATOM      8  C   UNL     1      34.064  -9.296 -24.764  0.00  0.00    +0.214 C 
ATOM      9  C   UNL     1      35.143 -10.850 -25.927  0.00  0.00    +0.254 C 
ATOM     10  N   UNL     1      33.465 -12.583 -23.274  0.00  0.00    -0.323 N 
ATOM     11  H   UNL     1      32.880 -12.340 -22.520  0.00  0.00    +0.148 HD
ENDROOT
BRANCH   6  12
ATOM     12  C   UNL     1      32.016  -9.990 -21.814  0.00  0.00    -0.000 C 
ATOM     13  C   UNL     1      30.947 -10.867 -22.000  0.00  0.00    -0.000 C 
ATOM     14  C   UNL     1      32.351  -9.562 -20.529  0.00  0.00    -0.000 C 
ATOM     15  C   UNL     1      30.215 -11.317 -20.902  0.00  0.00    -0.000 C 
ATOM     16  C   UNL     1      31.618 -10.012 -19.431  0.00  0.00    -0.000 C 
ATOM     17  C   UNL     1      30.550 -10.889 -19.617  0.00  0.00    -0.000 C 
ENDBRANCH   6  12
BRANCH   7  18
ATOM     18  C   UNL     1      32.287  -6.980 -22.801  0.00  0.00    +0.034 C 
ATOM     19  C   UNL     1      31.686  -6.070 -23.671  0.00  0.00    +0.003 C 
ATOM     20  C   UNL     1      32.350  -6.702 -21.436  0.00  0.00    +0.003 C 
ATOM     21  C   UNL     1      31.147  -4.882 -23.175  0.00  0.00    +0.000 C 
ATOM     22  C   UNL     1      31.812  -5.514 -20.940  0.00  0.00    +0.000 C 
ATOM     23  C   UNL     1      31.211  -4.604 -21.811  0.00  0.00    +0.000 C 
ENDBRANCH   7  18
BRANCH  10  24
ATOM     24  C   UNL     1      33.803 -13.975 -23.453  0.00  0.00    +0.065 C 
BRANCH  24  25
ATOM     25  C   UNL     1      34.316 -14.550 -22.139  0.00  0.00    -0.056 C 
BRANCH  25  26
ATOM     26  N   UNL     1      34.402 -16.006 -22.222  0.00  0.00    +0.385 N 
ATOM     27  N   UNL     1      35.853 -18.516 -22.209  0.00  0.00    +0.381 N 
ATOM     28  C   UNL     1      34.938 -16.569 -20.976  0.00  0.00    -0.101 C 
ATOM     29  C   UNL     1      35.222 -16.417 -23.369  0.00  0.00    -0.101 C 
ATOM     30  C   UNL     1      35.037 -18.094 -21.068  0.00  0.00    -0.105 C 
ATOM     31  C   UNL     1      35.319 -17.942 -23.448  0.00  0.00    -0.105 C 
ATOM     32  H   UNL     1      33.458 -16.371 -22.357  0.00  0.00    -0.080 HD
ATOM     33  H   UNL     1      35.841 -19.533 -22.275  0.00  0.00    -0.085 HD
ATOM     34  H   UNL     1      36.809 -18.188 -22.076  0.00  0.00    -0.085 HD
ENDBRANCH  25  26
ENDBRANCH  24  25
ENDBRANCH  10  24
TORSDOF 5
ENDMDL
