MODEL 1
REMARK VINA RESULT:      -9.6      0.000      0.000
REMARK  Name = 159324
REMARK  5 active torsions:
REMARK  status: ('A' for Active; 'I' for Inactive)
REMARK    1  A    between atoms: C_3  and  C_20
REMARK    2  A    between atoms: C_8  and  C_14
REMARK    3  A    between atoms: C_20  and  C_22
REMARK    4  A    between atoms: C_20  and  C_30
REMARK    5  A    between atoms: C_20  and  N_34
REMARK                            x       y       z     vdW  Elec       q    Type
REMARK                         _______ _______ _______ _____ _____    ______ ____
ROOT
ATOM      1  O   UNL     1      31.491  -7.704 -18.701  0.00  0.00    -0.270 OA
ATOM      2  N   UNL     1      31.584  -9.825 -19.666  0.00  0.00    -0.253 N 
ATOM      3  C   UNL     1      32.561 -12.145 -23.083  0.00  0.00    -0.032 C 
ATOM      4  C   UNL     1      32.417  -9.984 -21.965  0.00  0.00    +0.013 C 
ATOM      5  C   UNL     1      32.737 -10.763 -23.093  0.00  0.00    -0.004 C 
ATOM      6  C   UNL     1      31.911 -10.615 -20.814  0.00  0.00    +0.054 C 
ATOM      7  C   UNL     1      32.062 -12.769 -21.948  0.00  0.00    -0.004 C 
ATOM      8  C   UNL     1      32.607  -8.520 -21.985  0.00  0.00    +0.006 C 
ATOM      9  C   UNL     1      31.739 -12.012 -20.822  0.00  0.00    +0.015 C 
ATOM     10  C   UNL     1      32.288  -7.816 -20.889  0.00  0.00    +0.058 C 
ATOM     11  C   UNL     1      31.752  -8.441 -19.653  0.00  0.00    +0.253 C 
ATOM     12  C   UNL     1      31.059 -10.482 -18.472  0.00  0.00    +0.120 C 
ENDROOT
BRANCH   8  14
ATOM     13 CL   UNL     1      31.804  -4.825 -25.509  0.00  0.00    -0.082 Cl
ATOM     14  C   UNL     1      33.120  -7.730 -23.102  0.00  0.00    +0.001 C 
ATOM     15  C   UNL     1      32.309  -6.770 -23.699  0.00  0.00    +0.011 C 
ATOM     16  C   UNL     1      34.417  -7.944 -23.561  0.00  0.00    +0.000 C 
ATOM     17  C   UNL     1      32.799  -6.016 -24.766  0.00  0.00    +0.058 C 
ATOM     18  C   UNL     1      34.906  -7.190 -24.627  0.00  0.00    +0.001 C 
ATOM     19  C   UNL     1      34.099  -6.226 -25.230  0.00  0.00    +0.011 C 
ENDBRANCH   8  14
BRANCH   3  20
ATOM     20  C   UNL     1      32.907 -12.951 -24.290  0.00  0.00    +0.025 C 
BRANCH  20  22
ATOM     21 CL   UNL     1      35.761 -18.133 -23.274  0.00  0.00    -0.082 Cl
ATOM     22  C   UNL     1      33.663 -14.322 -24.021  0.00  0.00    -0.032 C 
ATOM     23  C   UNL     1      33.518 -15.281 -24.958  0.00  0.00    -0.005 C 
ATOM     24  C   UNL     1      34.379 -14.399 -22.881  0.00  0.00    -0.005 C 
ATOM     25  C   UNL     1      34.182 -16.485 -24.722  0.00  0.00    +0.011 C 
ATOM     26  C   UNL     1      35.043 -15.603 -22.645  0.00  0.00    +0.011 C 
ATOM     27  C   UNL     1      34.944 -16.647 -23.565  0.00  0.00    +0.058 C 
ENDBRANCH  20  22
BRANCH  20  30
ATOM     28  N   UNL     1      33.715 -12.541 -26.622  0.00  0.00    -0.272 N 
ATOM     29  N   UNL     1      35.284 -10.990 -26.361  0.00  0.00    -0.225 NA
ATOM     30  C   UNL     1      33.839 -12.223 -25.367  0.00  0.00    +0.038 C 
ATOM     31  C   UNL     1      34.741 -11.321 -25.145  0.00  0.00    +0.109 C 
ATOM     32  C   UNL     1      34.644 -11.743 -27.229  0.00  0.00    +0.167 C 
ATOM     33  C   UNL     1      32.848 -13.482 -27.290  0.00  0.00    +0.118 C 
ENDBRANCH  20  30
BRANCH  20  34
ATOM     34  N   UNL     1      31.605 -13.274 -24.978  0.00  0.00    +0.391 N 
ATOM     35  H   UNL     1      31.247 -14.163 -24.630  0.00  0.00    -0.088 HD
ATOM     36  H   UNL     1      31.760 -13.340 -25.984  0.00  0.00    -0.088 HD
ATOM     37  H   UNL     1      30.927 -12.535 -24.787  0.00  0.00    -0.088 HD
ENDBRANCH  20  34
ENDBRANCH   3  20
TORSDOF 5
ENDMDL
MODEL 2
REMARK VINA RESULT:      -8.6     12.232     16.358
REMARK  Name = 159324
REMARK  5 active torsions:
REMARK  status: ('A' for Active; 'I' for Inactive)
REMARK    1  A    between atoms: C_3  and  C_20
REMARK    2  A    between atoms: C_8  and  C_14
REMARK    3  A    between atoms: C_20  and  C_22
REMARK    4  A    between atoms: C_20  and  C_30
REMARK    5  A    between atoms: C_20  and  N_34
REMARK                            x       y       z     vdW  Elec       q    Type
REMARK                         _______ _______ _______ _____ _____    ______ ____
ROOT
ATOM      1  O   UNL     1      32.875 -21.619 -20.261  0.00  0.00    -0.270 OA
ATOM      2  N   UNL     1      34.806 -21.788 -18.966  0.00  0.00    -0.253 N 
ATOM      3  C   UNL     1      36.525 -22.965 -15.268  0.00  0.00    -0.032 C 
ATOM      4  C   UNL     1      34.580 -22.737 -16.717  0.00  0.00    +0.013 C 
ATOM      5  C   UNL     1      35.160 -23.124 -15.495  0.00  0.00    -0.004 C 
ATOM      6  C   UNL     1      35.394 -22.182 -17.722  0.00  0.00    +0.054 C 
ATOM      7  C   UNL     1      37.330 -22.418 -16.257  0.00  0.00    -0.004 C 
ATOM      8  C   UNL     1      33.131 -22.908 -16.949  0.00  0.00    +0.006 C 
ATOM      9  C   UNL     1      36.771 -22.030 -17.474  0.00  0.00    +0.015 C 
ATOM     10  C   UNL     1      32.620 -22.526 -18.129  0.00  0.00    +0.058 C 
ATOM     11  C   UNL     1      33.443 -21.937 -19.215  0.00  0.00    +0.253 C 
ATOM     12  C   UNL     1      35.654 -21.213 -20.006  0.00  0.00    +0.120 C 
ENDROOT
BRANCH   8  14
ATOM     13 CL   UNL     1      28.213 -23.364 -15.426  0.00  0.00    -0.082 Cl
ATOM     14  C   UNL     1      32.165 -23.466 -16.006  0.00  0.00    +0.001 C 
ATOM     15  C   UNL     1      30.812 -23.179 -16.152  0.00  0.00    +0.011 C 
ATOM     16  C   UNL     1      32.606 -24.282 -14.967  0.00  0.00    +0.000 C 
ATOM     17  C   UNL     1      29.889 -23.712 -15.251  0.00  0.00    +0.058 C 
ATOM     18  C   UNL     1      31.684 -24.814 -14.067  0.00  0.00    +0.001 C 
ATOM     19  C   UNL     1      30.326 -24.530 -14.208  0.00  0.00    +0.011 C 
ENDBRANCH   8  14
BRANCH   3  20
ATOM     20  C   UNL     1      37.119 -23.381 -13.964  0.00  0.00    +0.025 C 
BRANCH  20  22
ATOM     21 CL   UNL     1      41.447 -27.531 -14.235  0.00  0.00    -0.082 Cl
ATOM     22  C   UNL     1      38.265 -24.479 -14.037  0.00  0.00    -0.032 C 
ATOM     23  C   UNL     1      37.979 -25.602 -14.728  0.00  0.00    -0.005 C 
ATOM     24  C   UNL     1      39.418 -24.186 -13.400  0.00  0.00    -0.005 C 
ATOM     25  C   UNL     1      38.985 -26.565 -14.791  0.00  0.00    +0.011 C 
ATOM     26  C   UNL     1      40.424 -25.150 -13.463  0.00  0.00    +0.011 C 
ATOM     27  C   UNL     1      40.208 -26.340 -14.158  0.00  0.00    +0.058 C 
ENDBRANCH  20  22
BRANCH  20  30
ATOM     28  N   UNL     1      36.212 -23.652 -11.648  0.00  0.00    -0.272 N 
ATOM     29  N   UNL     1      34.516 -25.061 -11.917  0.00  0.00    -0.225 NA
ATOM     30  C   UNL     1      36.094 -23.992 -12.898  0.00  0.00    +0.038 C 
ATOM     31  C   UNL     1      35.121 -24.815 -13.124  0.00  0.00    +0.109 C 
ATOM     32  C   UNL     1      35.198 -24.346 -11.049  0.00  0.00    +0.167 C 
ATOM     33  C   UNL     1      37.144 -22.776 -10.977  0.00  0.00    +0.118 C 
ENDBRANCH  20  30
BRANCH  20  34
ATOM     34  N   UNL     1      37.713 -22.141 -13.347  0.00  0.00    +0.391 N 
ATOM     35  H   UNL     1      37.350 -22.024 -12.401  0.00  0.00    -0.088 HD
ATOM     36  H   UNL     1      37.462 -21.328 -13.910  0.00  0.00    -0.088 HD
ATOM     37  H   UNL     1      38.728 -22.231 -13.314  0.00  0.00    -0.088 HD
ENDBRANCH  20  34
ENDBRANCH   3  20
TORSDOF 5
ENDMDL
MODEL 3
REMARK VINA RESULT:      -7.3      3.093      6.864
REMARK  Name = 159324
REMARK  5 active torsions:
REMARK  status: ('A' for Active; 'I' for Inactive)
REMARK    1  A    between atoms: C_3  and  C_20
REMARK    2  A    between atoms: C_8  and  C_14
REMARK    3  A    between atoms: C_20  and  C_22
REMARK    4  A    between atoms: C_20  and  C_30
REMARK    5  A    between atoms: C_20  and  N_34
REMARK                            x       y       z     vdW  Elec       q    Type
REMARK                         _______ _______ _______ _____ _____    ______ ____
ROOT
ATOM      1  O   UNL     1      33.246 -16.149 -21.922  0.00  0.00    -0.270 OA
ATOM      2  N   UNL     1      32.517 -14.079 -21.137  0.00  0.00    -0.253 N 
ATOM      3  C   UNL     1      31.986  -9.946 -21.949  0.00  0.00    -0.032 C 
ATOM      4  C   UNL     1      32.713 -12.163 -22.653  0.00  0.00    +0.013 C 
ATOM      5  C   UNL     1      32.532 -10.791 -22.912  0.00  0.00    -0.004 C 
ATOM      6  C   UNL     1      32.334 -12.684 -21.402  0.00  0.00    +0.054 C 
ATOM      7  C   UNL     1      31.613 -10.458 -20.713  0.00  0.00    -0.004 C 
ATOM      8  C   UNL     1      33.293 -13.051 -23.681  0.00  0.00    +0.006 C 
ATOM      9  C   UNL     1      31.785 -11.815 -20.441  0.00  0.00    +0.015 C 
ATOM     10  C   UNL     1      33.448 -14.352 -23.392  0.00  0.00    +0.058 C 
ATOM     11  C   UNL     1      33.062 -14.942 -22.085  0.00  0.00    +0.253 C 
ATOM     12  C   UNL     1      32.124 -14.616 -19.838  0.00  0.00    +0.120 C 
ENDROOT
BRANCH   8  14
ATOM     13 CL   UNL     1      35.960  -9.776 -26.660  0.00  0.00    -0.082 Cl
ATOM     14  C   UNL     1      33.730 -12.656 -25.018  0.00  0.00    +0.001 C 
ATOM     15  C   UNL     1      34.539 -11.536 -25.177  0.00  0.00    +0.011 C 
ATOM     16  C   UNL     1      33.332 -13.403 -26.123  0.00  0.00    +0.000 C 
ATOM     17  C   UNL     1      34.957 -11.159 -26.454  0.00  0.00    +0.058 C 
ATOM     18  C   UNL     1      33.749 -13.027 -27.399  0.00  0.00    +0.001 C 
ATOM     19  C   UNL     1      34.561 -11.905 -27.565  0.00  0.00    +0.011 C 
ENDBRANCH   8  14
BRANCH   3  20
ATOM     20  C   UNL     1      31.804  -8.495 -22.243  0.00  0.00    +0.025 C 
BRANCH  20  22
ATOM     21 CL   UNL     1      35.518  -6.139 -26.328  0.00  0.00    -0.082 Cl
ATOM     22  C   UNL     1      32.787  -7.873 -23.325  0.00  0.00    -0.032 C 
ATOM     23  C   UNL     1      34.106  -8.066 -23.120  0.00  0.00    -0.005 C 
ATOM     24  C   UNL     1      32.211  -7.208 -24.348  0.00  0.00    -0.005 C 
ATOM     25  C   UNL     1      34.969  -7.518 -24.069  0.00  0.00    +0.011 C 
ATOM     26  C   UNL     1      33.074  -6.661 -25.297  0.00  0.00    +0.011 C 
ATOM     27  C   UNL     1      34.453  -6.815 -25.158  0.00  0.00    +0.058 C 
ENDBRANCH  20  22
BRANCH  20  30
ATOM     28  N   UNL     1      31.404  -6.335 -21.046  0.00  0.00    -0.272 N 
ATOM     29  N   UNL     1      32.465  -6.609 -19.114  0.00  0.00    -0.225 NA
ATOM     30  C   UNL     1      31.962  -7.508 -20.993  0.00  0.00    +0.038 C 
ATOM     31  C   UNL     1      32.600  -7.733 -19.890  0.00  0.00    +0.109 C 
ATOM     32  C   UNL     1      31.740  -5.786 -19.840  0.00  0.00    +0.167 C 
ATOM     33  C   UNL     1      30.616  -5.694 -22.072  0.00  0.00    +0.118 C 
ENDBRANCH  20  30
BRANCH  20  34
ATOM     34  N   UNL     1      30.397  -8.335 -22.759  0.00  0.00    +0.391 N 
ATOM     35  H   UNL     1      30.419  -7.904 -23.683  0.00  0.00    -0.088 HD
ATOM     36  H   UNL     1      29.867  -7.742 -22.120  0.00  0.00    -0.088 HD
ATOM     37  H   UNL     1      29.951  -9.251 -22.821  0.00  0.00    -0.088 HD
ENDBRANCH  20  34
ENDBRANCH   3  20
TORSDOF 5
ENDMDL
