MODEL 1
REMARK VINA RESULT:      -8.9      0.000      0.000
REMARK  Name = 38072
REMARK  3 active torsions:
REMARK  status: ('A' for Active; 'I' for Inactive)
REMARK    1  A    between atoms: N_2  and  C_16
REMARK    2  A    between atoms: C_16  and  C_18
REMARK    3  A    between atoms: C_18  and  O_19
REMARK                            x       y       z     vdW  Elec       q    Type
REMARK                         _______ _______ _______ _____ _____    ______ ____
ROOT
ATOM      1  O   UNL     1      33.792 -17.636 -25.778  0.00  0.00    -0.286 OA
ATOM      2  N   UNL     1      34.311 -15.368 -22.465  0.00  0.00    -0.317 N 
ATOM      3  C   UNL     1      34.710 -16.724 -22.414  0.00  0.00    +0.063 A 
ATOM      4  C   UNL     1      33.986 -14.715 -23.676  0.00  0.00    +0.063 A 
ATOM      5  C   UNL     1      34.570 -17.532 -23.559  0.00  0.00    +0.055 A 
ATOM      6  C   UNL     1      33.827 -15.473 -24.852  0.00  0.00    +0.055 A 
ATOM      7  C   UNL     1      34.037 -16.936 -24.804  0.00  0.00    +0.198 A 
ATOM      8  C   UNL     1      35.266 -17.331 -21.273  0.00  0.00    +0.017 C 
ATOM      9  C   UNL     1      33.821 -13.323 -23.791  0.00  0.00    +0.017 C 
ATOM     10  C   UNL     1      34.931 -18.887 -23.556  0.00  0.00    +0.005 C 
ATOM     11  C   UNL     1      33.486 -14.877 -26.075  0.00  0.00    +0.005 C 
ATOM     12  C   UNL     1      35.633 -18.681 -21.266  0.00  0.00    +0.001 C 
ATOM     13  C   UNL     1      33.485 -12.723 -25.009  0.00  0.00    +0.001 C 
ATOM     14  C   UNL     1      35.460 -19.460 -22.405  0.00  0.00    +0.000 C 
ATOM     15  C   UNL     1      33.312 -13.500 -26.149  0.00  0.00    +0.000 C 
ENDROOT
BRANCH   2  16
ATOM     16  C   UNL     1      34.281 -14.597 -21.219  0.00  0.00    +0.216 C 
BRANCH  16  18
ATOM     17  O   UNL     1      32.251 -15.581 -20.372  0.00  0.00    -0.248 OA
ATOM     18  C   UNL     1      32.879 -14.577 -20.684  0.00  0.00    +0.337 C 
BRANCH  18  19
ATOM     19  O   UNL     1      32.383 -13.320 -20.563  0.00  0.00    -0.479 OA
ATOM     20  H   UNL     1      31.464 -13.167 -20.668  0.00  0.00    +0.295 HD
ENDBRANCH  18  19
ENDBRANCH  16  18
ENDBRANCH   2  16
TORSDOF 3
ENDMDL
MODEL 2
REMARK VINA RESULT:      -8.7      8.536     11.390
REMARK  Name = 38072
REMARK  3 active torsions:
REMARK  status: ('A' for Active; 'I' for Inactive)
REMARK    1  A    between atoms: N_2  and  C_16
REMARK    2  A    between atoms: C_16  and  C_18
REMARK    3  A    between atoms: C_18  and  O_19
REMARK                            x       y       z     vdW  Elec       q    Type
REMARK                         _______ _______ _______ _____ _____    ______ ____
ROOT
ATOM      1  O   UNL     1      32.461 -22.793 -18.378  0.00  0.00    -0.286 OA
ATOM      2  N   UNL     1      34.774 -23.506 -15.133  0.00  0.00    -0.317 N 
ATOM      3  C   UNL     1      35.364 -22.858 -16.243  0.00  0.00    +0.063 A 
ATOM      4  C   UNL     1      33.377 -23.682 -15.007  0.00  0.00    +0.063 A 
ATOM      5  C   UNL     1      34.579 -22.569 -17.375  0.00  0.00    +0.055 A 
ATOM      6  C   UNL     1      32.542 -23.414 -16.109  0.00  0.00    +0.055 A 
ATOM      7  C   UNL     1      33.141 -22.922 -17.369  0.00  0.00    +0.198 A 
ATOM      8  C   UNL     1      36.712 -22.457 -16.285  0.00  0.00    +0.017 C 
ATOM      9  C   UNL     1      32.748 -24.101 -13.821  0.00  0.00    +0.017 C 
ATOM     10  C   UNL     1      35.118 -21.945 -18.509  0.00  0.00    +0.005 C 
ATOM     11  C   UNL     1      31.152 -23.590 -16.043  0.00  0.00    +0.005 C 
ATOM     12  C   UNL     1      37.255 -21.830 -17.413  0.00  0.00    +0.001 C 
ATOM     13  C   UNL     1      31.361 -24.273 -13.748  0.00  0.00    +0.001 C 
ATOM     14  C   UNL     1      36.460 -21.580 -18.526  0.00  0.00    +0.000 C 
ATOM     15  C   UNL     1      30.565 -24.023 -14.860  0.00  0.00    +0.000 C 
ENDROOT
BRANCH   2  16
ATOM     16  C   UNL     1      35.642 -23.972 -14.048  0.00  0.00    +0.216 C 
BRANCH  16  18
ATOM     17  O   UNL     1      36.073 -25.907 -15.419  0.00  0.00    -0.248 OA
ATOM     18  C   UNL     1      36.034 -25.398 -14.306  0.00  0.00    +0.337 C 
BRANCH  18  19
ATOM     19  O   UNL     1      36.359 -26.065 -13.169  0.00  0.00    -0.479 OA
ATOM     20  H   UNL     1      36.453 -26.998 -13.184  0.00  0.00    +0.295 HD
ENDBRANCH  18  19
ENDBRANCH  16  18
ENDBRANCH   2  16
TORSDOF 3
ENDMDL
MODEL 3
REMARK VINA RESULT:      -8.6      0.476      4.252
REMARK  Name = 38072
REMARK  3 active torsions:
REMARK  status: ('A' for Active; 'I' for Inactive)
REMARK    1  A    between atoms: N_2  and  C_16
REMARK    2  A    between atoms: C_16  and  C_18
REMARK    3  A    between atoms: C_18  and  O_19
REMARK                            x       y       z     vdW  Elec       q    Type
REMARK                         _______ _______ _______ _____ _____    ______ ____
ROOT
ATOM      1  O   UNL     1      34.627 -17.841 -25.830  0.00  0.00    -0.286 OA
ATOM      2  N   UNL     1      34.243 -15.597 -22.483  0.00  0.00    -0.317 N 
ATOM      3  C   UNL     1      33.820 -15.039 -23.711  0.00  0.00    +0.063 A 
ATOM      4  C   UNL     1      34.548 -16.969 -22.334  0.00  0.00    +0.063 A 
ATOM      5  C   UNL     1      33.913 -15.805 -24.889  0.00  0.00    +0.055 A 
ATOM      6  C   UNL     1      34.660 -17.783 -23.477  0.00  0.00    +0.055 A 
ATOM      7  C   UNL     1      34.423 -17.192 -24.812  0.00  0.00    +0.198 A 
ATOM      8  C   UNL     1      33.283 -13.745 -23.836  0.00  0.00    +0.017 C 
ATOM      9  C   UNL     1      34.737 -17.595 -21.088  0.00  0.00    +0.017 C 
ATOM     10  C   UNL     1      33.525 -15.294 -26.136  0.00  0.00    +0.005 C 
ATOM     11  C   UNL     1      34.979 -19.146 -23.386  0.00  0.00    +0.005 C 
ATOM     12  C   UNL     1      32.890 -13.231 -25.077  0.00  0.00    +0.001 C 
ATOM     13  C   UNL     1      35.051 -18.955 -20.991  0.00  0.00    +0.001 C 
ATOM     14  C   UNL     1      33.017 -14.002 -26.227  0.00  0.00    +0.000 C 
ATOM     15  C   UNL     1      35.177 -19.728 -22.140  0.00  0.00    +0.000 C 
ENDROOT
BRANCH   2  16
ATOM     16  C   UNL     1      34.322 -14.727 -21.306  0.00  0.00    +0.216 C 
BRANCH  16  18
ATOM     17  O   UNL     1      32.280 -15.560 -20.334  0.00  0.00    -0.248 OA
ATOM     18  C   UNL     1      32.959 -14.604 -20.689  0.00  0.00    +0.337 C 
BRANCH  18  19
ATOM     19  O   UNL     1      32.562 -13.315 -20.548  0.00  0.00    -0.479 OA
ATOM     20  H   UNL     1      32.640 -12.719 -21.267  0.00  0.00    +0.295 HD
ENDBRANCH  18  19
ENDBRANCH  16  18
ENDBRANCH   2  16
TORSDOF 3
ENDMDL
MODEL 4
REMARK VINA RESULT:      -8.5      5.662      8.199
REMARK  Name = 38072
REMARK  3 active torsions:
REMARK  status: ('A' for Active; 'I' for Inactive)
REMARK    1  A    between atoms: N_2  and  C_16
REMARK    2  A    between atoms: C_16  and  C_18
REMARK    3  A    between atoms: C_18  and  O_19
REMARK                            x       y       z     vdW  Elec       q    Type
REMARK                         _______ _______ _______ _____ _____    ______ ____
ROOT
ATOM      1  O   UNL     1      31.949  -7.418 -19.344  0.00  0.00    -0.286 OA
ATOM      2  N   UNL     1      32.362  -9.294 -22.908  0.00  0.00    -0.317 N 
ATOM      3  C   UNL     1      32.103 -10.085 -21.765  0.00  0.00    +0.063 A 
ATOM      4  C   UNL     1      32.230  -7.887 -22.907  0.00  0.00    +0.063 A 
ATOM      5  C   UNL     1      31.924  -9.460 -20.515  0.00  0.00    +0.055 A 
ATOM      6  C   UNL     1      32.056  -7.207 -21.686  0.00  0.00    +0.055 A 
ATOM      7  C   UNL     1      31.981  -7.983 -20.429  0.00  0.00    +0.198 A 
ATOM      8  C   UNL     1      31.991 -11.487 -21.795  0.00  0.00    +0.017 C 
ATOM      9  C   UNL     1      32.246  -7.101 -24.074  0.00  0.00    +0.017 C 
ATOM     10  C   UNL     1      31.684 -10.198 -19.348  0.00  0.00    +0.005 C 
ATOM     11  C   UNL     1      31.940  -5.810 -21.627  0.00  0.00    +0.005 C 
ATOM     12  C   UNL     1      31.746 -12.228 -20.634  0.00  0.00    +0.001 C 
ATOM     13  C   UNL     1      32.125  -5.708 -24.022  0.00  0.00    +0.001 C 
ATOM     14  C   UNL     1      31.599 -11.585 -19.410  0.00  0.00    +0.000 C 
ATOM     15  C   UNL     1      31.978  -5.063 -22.799  0.00  0.00    +0.000 C 
ENDROOT
BRANCH   2  16
ATOM     16  C   UNL     1      32.736  -9.965 -24.156  0.00  0.00    +0.216 C 
BRANCH  16  18
ATOM     17  O   UNL     1      35.074  -9.411 -23.972  0.00  0.00    -0.248 OA
ATOM     18  C   UNL     1      34.208 -10.260 -24.137  0.00  0.00    +0.337 C 
BRANCH  18  19
ATOM     19  O   UNL     1      34.480 -11.578 -24.308  0.00  0.00    -0.479 OA
ATOM     20  H   UNL     1      34.927 -12.055 -23.636  0.00  0.00    +0.295 HD
ENDBRANCH  18  19
ENDBRANCH  16  18
ENDBRANCH   2  16
TORSDOF 3
ENDMDL
MODEL 5
REMARK VINA RESULT:      -8.4     10.941     13.400
REMARK  Name = 38072
REMARK  3 active torsions:
REMARK  status: ('A' for Active; 'I' for Inactive)
REMARK    1  A    between atoms: N_2  and  C_16
REMARK    2  A    between atoms: C_16  and  C_18
REMARK    3  A    between atoms: C_18  and  O_19
REMARK                            x       y       z     vdW  Elec       q    Type
REMARK                         _______ _______ _______ _____ _____    ______ ____
ROOT
ATOM      1  O   UNL     1      36.907 -22.836 -16.621  0.00  0.00    -0.286 OA
ATOM      2  N   UNL     1      36.349 -24.769 -13.108  0.00  0.00    -0.317 N 
ATOM      3  C   UNL     1      35.212 -24.250 -13.771  0.00  0.00    +0.063 A 
ATOM      4  C   UNL     1      37.614 -24.868 -13.729  0.00  0.00    +0.063 A 
ATOM      5  C   UNL     1      35.370 -23.599 -15.010  0.00  0.00    +0.055 A 
ATOM      6  C   UNL     1      37.832 -24.231 -14.966  0.00  0.00    +0.055 A 
ATOM      7  C   UNL     1      36.720 -23.497 -15.608  0.00  0.00    +0.198 A 
ATOM      8  C   UNL     1      33.901 -24.359 -13.273  0.00  0.00    +0.017 C 
ATOM      9  C   UNL     1      38.694 -25.590 -13.189  0.00  0.00    +0.017 C 
ATOM     10  C   UNL     1      34.280 -23.049 -15.699  0.00  0.00    +0.005 C 
ATOM     11  C   UNL     1      39.074 -24.281 -15.615  0.00  0.00    +0.005 C 
ATOM     12  C   UNL     1      32.809 -23.818 -13.960  0.00  0.00    +0.001 C 
ATOM     13  C   UNL     1      39.934 -25.648 -13.835  0.00  0.00    +0.001 C 
ATOM     14  C   UNL     1      32.999 -23.158 -15.169  0.00  0.00    +0.000 C 
ATOM     15  C   UNL     1      40.125 -24.989 -15.044  0.00  0.00    +0.000 C 
ENDROOT
BRANCH   2  16
ATOM     16  C   UNL     1      36.196 -25.269 -11.739  0.00  0.00    +0.216 C 
BRANCH  16  18
ATOM     17  O   UNL     1      37.028 -23.160 -10.921  0.00  0.00    -0.248 OA
ATOM     18  C   UNL     1      36.276 -24.117 -10.780  0.00  0.00    +0.337 C 
BRANCH  18  19
ATOM     19  O   UNL     1      35.411 -24.238  -9.742  0.00  0.00    -0.479 OA
ATOM     20  H   UNL     1      35.266 -25.076  -9.348  0.00  0.00    +0.295 HD
ENDBRANCH  18  19
ENDBRANCH  16  18
ENDBRANCH   2  16
TORSDOF 3
ENDMDL
MODEL 6
REMARK VINA RESULT:      -8.2      8.848     11.937
REMARK  Name = 38072
REMARK  3 active torsions:
REMARK  status: ('A' for Active; 'I' for Inactive)
REMARK    1  A    between atoms: N_2  and  C_16
REMARK    2  A    between atoms: C_16  and  C_18
REMARK    3  A    between atoms: C_18  and  O_19
REMARK                            x       y       z     vdW  Elec       q    Type
REMARK                         _______ _______ _______ _____ _____    ______ ____
ROOT
ATOM      1  O   UNL     1      37.642 -22.002 -15.677  0.00  0.00    -0.286 OA
ATOM      2  N   UNL     1      34.094 -23.786 -14.891  0.00  0.00    -0.317 N 
ATOM      3  C   UNL     1      34.306 -23.267 -16.189  0.00  0.00    +0.063 A 
ATOM      4  C   UNL     1      35.139 -23.938 -13.952  0.00  0.00    +0.063 A 
ATOM      5  C   UNL     1      35.540 -22.667 -16.503  0.00  0.00    +0.055 A 
ATOM      6  C   UNL     1      36.394 -23.354 -14.209  0.00  0.00    +0.055 A 
ATOM      7  C   UNL     1      36.605 -22.620 -15.476  0.00  0.00    +0.198 A 
ATOM      8  C   UNL     1      33.349 -23.327 -17.219  0.00  0.00    +0.017 C 
ATOM      9  C   UNL     1      35.011 -24.664 -12.753  0.00  0.00    +0.017 C 
ATOM     10  C   UNL     1      35.795 -22.119 -17.769  0.00  0.00    +0.005 C 
ATOM     11  C   UNL     1      37.458 -23.458 -13.301  0.00  0.00    +0.005 C 
ATOM     12  C   UNL     1      33.600 -22.786 -18.485  0.00  0.00    +0.001 C 
ATOM     13  C   UNL     1      36.071 -24.775 -11.847  0.00  0.00    +0.001 C 
ATOM     14  C   UNL     1      34.819 -22.178 -18.758  0.00  0.00    +0.000 C 
ATOM     15  C   UNL     1      37.291 -24.168 -12.118  0.00  0.00    +0.000 C 
ENDROOT
BRANCH   2  16
ATOM     16  C   UNL     1      32.747 -24.230 -14.523  0.00  0.00    +0.216 C 
BRANCH  16  18
ATOM     17  O   UNL     1      31.184 -22.403 -14.700  0.00  0.00    -0.248 OA
ATOM     18  C   UNL     1      31.961 -23.056 -14.015  0.00  0.00    +0.337 C 
BRANCH  18  19
ATOM     19  O   UNL     1      32.191 -22.801 -12.702  0.00  0.00    -0.479 OA
ATOM     20  H   UNL     1      31.595 -22.264 -12.217  0.00  0.00    +0.295 HD
ENDBRANCH  18  19
ENDBRANCH  16  18
ENDBRANCH   2  16
TORSDOF 3
ENDMDL
MODEL 7
REMARK VINA RESULT:      -8.2      7.933     10.485
REMARK  Name = 38072
REMARK  3 active torsions:
REMARK  status: ('A' for Active; 'I' for Inactive)
REMARK    1  A    between atoms: N_2  and  C_16
REMARK    2  A    between atoms: C_16  and  C_18
REMARK    3  A    between atoms: C_18  and  O_19
REMARK                            x       y       z     vdW  Elec       q    Type
REMARK                         _______ _______ _______ _____ _____    ______ ____
ROOT
ATOM      1  O   UNL     1      31.750 -22.571 -17.942  0.00  0.00    -0.286 OA
ATOM      2  N   UNL     1      35.188 -22.925 -15.835  0.00  0.00    -0.317 N 
ATOM      3  C   UNL     1      34.019 -23.521 -15.307  0.00  0.00    +0.063 A 
ATOM      4  C   UNL     1      35.266 -22.443 -17.161  0.00  0.00    +0.063 A 
ATOM      5  C   UNL     1      32.814 -23.442 -16.031  0.00  0.00    +0.055 A 
ATOM      6  C   UNL     1      34.092 -22.335 -17.930  0.00  0.00    +0.055 A 
ATOM      7  C   UNL     1      32.801 -22.761 -17.345  0.00  0.00    +0.198 A 
ATOM      8  C   UNL     1      33.983 -24.221 -14.088  0.00  0.00    +0.017 C 
ATOM      9  C   UNL     1      36.470 -22.068 -17.785  0.00  0.00    +0.017 C 
ATOM     10  C   UNL     1      31.622 -23.999 -15.545  0.00  0.00    +0.005 C 
ATOM     11  C   UNL     1      34.110 -21.845 -19.244  0.00  0.00    +0.005 C 
ATOM     12  C   UNL     1      32.797 -24.783 -13.600  0.00  0.00    +0.001 C 
ATOM     13  C   UNL     1      36.495 -21.583 -19.097  0.00  0.00    +0.001 C 
ATOM     14  C   UNL     1      31.617 -24.667 -14.326  0.00  0.00    +0.000 C 
ATOM     15  C   UNL     1      35.316 -21.467 -19.824  0.00  0.00    +0.000 C 
ENDROOT
BRANCH   2  16
ATOM     16  C   UNL     1      36.380 -22.847 -14.986  0.00  0.00    +0.216 C 
BRANCH  16  18
ATOM     17  O   UNL     1      36.918 -25.167 -15.362  0.00  0.00    -0.248 OA
ATOM     18  C   UNL     1      37.288 -24.001 -15.302  0.00  0.00    +0.337 C 
BRANCH  18  19
ATOM     19  O   UNL     1      38.568 -23.612 -15.532  0.00  0.00    -0.479 OA
ATOM     20  H   UNL     1      39.270 -24.003 -15.049  0.00  0.00    +0.295 HD
ENDBRANCH  18  19
ENDBRANCH  16  18
ENDBRANCH   2  16
TORSDOF 3
ENDMDL
MODEL 8
REMARK VINA RESULT:      -8.2      3.907      5.640
REMARK  Name = 38072
REMARK  3 active torsions:
REMARK  status: ('A' for Active; 'I' for Inactive)
REMARK    1  A    between atoms: N_2  and  C_16
REMARK    2  A    between atoms: C_16  and  C_18
REMARK    3  A    between atoms: C_18  and  O_19
REMARK                            x       y       z     vdW  Elec       q    Type
REMARK                         _______ _______ _______ _____ _____    ______ ____
ROOT
ATOM      1  O   UNL     1      34.734 -11.165 -25.370  0.00  0.00    -0.286 OA
ATOM      2  N   UNL     1      32.241 -10.513 -22.247  0.00  0.00    -0.317 N 
ATOM      3  C   UNL     1      32.578 -11.850 -22.564  0.00  0.00    +0.063 A 
ATOM      4  C   UNL     1      32.925  -9.405 -22.797  0.00  0.00    +0.063 A 
ATOM      5  C   UNL     1      33.466 -12.108 -23.626  0.00  0.00    +0.055 A 
ATOM      6  C   UNL     1      33.820  -9.602 -23.865  0.00  0.00    +0.055 A 
ATOM      7  C   UNL     1      34.055 -10.973 -24.370  0.00  0.00    +0.198 A 
ATOM      8  C   UNL     1      32.087 -12.965 -21.861  0.00  0.00    +0.017 C 
ATOM      9  C   UNL     1      32.778  -8.087 -22.327  0.00  0.00    +0.017 C 
ATOM     10  C   UNL     1      33.818 -13.415 -23.993  0.00  0.00    +0.005 C 
ATOM     11  C   UNL     1      34.509  -8.535 -24.460  0.00  0.00    +0.005 C 
ATOM     12  C   UNL     1      32.439 -14.271 -22.220  0.00  0.00    +0.001 C 
ATOM     13  C   UNL     1      33.466  -7.019 -22.913  0.00  0.00    +0.001 C 
ATOM     14  C   UNL     1      33.299 -14.496 -23.289  0.00  0.00    +0.000 C 
ATOM     15  C   UNL     1      34.326  -7.242 -23.982  0.00  0.00    +0.000 C 
ENDROOT
BRANCH   2  16
ATOM     16  C   UNL     1      31.174 -10.270 -21.274  0.00  0.00    +0.216 C 
BRANCH  16  18
ATOM     17  O   UNL     1      32.428  -9.335 -19.441  0.00  0.00    -0.248 OA
ATOM     18  C   UNL     1      31.758 -10.256 -19.891  0.00  0.00    +0.337 C 
BRANCH  18  19
ATOM     19  O   UNL     1      31.451 -11.371 -19.181  0.00  0.00    -0.479 OA
ATOM     20  H   UNL     1      30.639 -11.421 -18.716  0.00  0.00    +0.295 HD
ENDBRANCH  18  19
ENDBRANCH  16  18
ENDBRANCH   2  16
TORSDOF 3
ENDMDL
MODEL 9
REMARK VINA RESULT:      -8.1      1.751      5.528
REMARK  Name = 38072
REMARK  3 active torsions:
REMARK  status: ('A' for Active; 'I' for Inactive)
REMARK    1  A    between atoms: N_2  and  C_16
REMARK    2  A    between atoms: C_16  and  C_18
REMARK    3  A    between atoms: C_18  and  O_19
REMARK                            x       y       z     vdW  Elec       q    Type
REMARK                         _______ _______ _______ _____ _____    ______ ____
ROOT
ATOM      1  O   UNL     1      32.349 -15.354 -19.923  0.00  0.00    -0.286 OA
ATOM      2  N   UNL     1      33.815 -14.533 -23.606  0.00  0.00    -0.317 N 
ATOM      3  C   UNL     1      33.119 -13.509 -22.922  0.00  0.00    +0.063 A 
ATOM      4  C   UNL     1      34.237 -15.722 -22.971  0.00  0.00    +0.063 A 
ATOM      5  C   UNL     1      32.623 -13.754 -21.627  0.00  0.00    +0.055 A 
ATOM      6  C   UNL     1      33.769 -16.023 -21.678  0.00  0.00    +0.055 A 
ATOM      7  C   UNL     1      32.867 -15.069 -20.995  0.00  0.00    +0.198 A 
ATOM      8  C   UNL     1      32.898 -12.226 -23.455  0.00  0.00    +0.017 C 
ATOM      9  C   UNL     1      35.130 -16.642 -23.552  0.00  0.00    +0.017 C 
ATOM     10  C   UNL     1      31.910 -12.780 -20.913  0.00  0.00    +0.005 C 
ATOM     11  C   UNL     1      34.142 -17.199 -21.011  0.00  0.00    +0.005 C 
ATOM     12  C   UNL     1      32.192 -11.249 -22.744  0.00  0.00    +0.001 C 
ATOM     13  C   UNL     1      35.509 -17.814 -22.889  0.00  0.00    +0.001 C 
ATOM     14  C   UNL     1      31.693 -11.528 -21.477  0.00  0.00    +0.000 C 
ATOM     15  C   UNL     1      35.011 -18.095 -21.622  0.00  0.00    +0.000 C 
ENDROOT
BRANCH   2  16
ATOM     16  C   UNL     1      34.153 -14.330 -25.018  0.00  0.00    +0.216 C 
BRANCH  16  18
ATOM     17  O   UNL     1      33.247 -16.219 -26.208  0.00  0.00    -0.248 OA
ATOM     18  C   UNL     1      33.149 -15.045 -25.875  0.00  0.00    +0.337 C 
BRANCH  18  19
ATOM     19  O   UNL     1      32.105 -14.254 -26.230  0.00  0.00    -0.479 OA
ATOM     20  H   UNL     1      31.226 -14.543 -26.082  0.00  0.00    +0.295 HD
ENDBRANCH  18  19
ENDBRANCH  16  18
ENDBRANCH   2  16
TORSDOF 3
ENDMDL
