MODEL 1
REMARK VINA RESULT:      -8.5      0.000      0.000
REMARK  Name = 160134
REMARK  8 active torsions:
REMARK  status: ('A' for Active; 'I' for Inactive)
REMARK    1  A    between atoms: C_1  and  C_5
REMARK    2  A    between atoms: C_1  and  O_15
REMARK    3  A    between atoms: C_5  and  O_6
REMARK    4  A    between atoms: O_6  and  C_7
REMARK    5  A    between atoms: C_7  and  C_8
REMARK    6  A    between atoms: C_8  and  C_9
REMARK    7  A    between atoms: C_9  and  C_12
REMARK    8  A    between atoms: O_15  and  C_17
REMARK                            x       y       z     vdW  Elec       q    Type
REMARK                         _______ _______ _______ _____ _____    ______ ____
ROOT
ATOM      1  C   UNL     1      33.589 -15.825 -21.437  0.00  0.00    +0.221 C 
ATOM      2  C   UNL     1      34.696 -15.650 -20.402  0.00  0.00    +0.055 C 
ATOM      3  C   UNL     1      32.251 -16.119 -20.761  0.00  0.00    +0.055 C 
ENDROOT
BRANCH   1   5
ATOM      4  O   UNL     1      34.438 -14.084 -22.910  0.00  0.00    -0.246 OA
ATOM      5  C   UNL     1      33.498 -14.560 -22.285  0.00  0.00    +0.353 C 
BRANCH   5   6
ATOM      6  O   UNL     1      32.223 -14.058 -22.282  0.00  0.00    -0.446 OA
BRANCH   6   7
ATOM      7  C   UNL     1      32.108 -12.648 -22.136  0.00  0.00    +0.209 C 
BRANCH   7   8
ATOM      8  C   UNL     1      31.827 -12.328 -20.673  0.00  0.00    +0.057 C 
BRANCH   8   9
ATOM      9  C   UNL     1      31.012 -11.048 -20.493  0.00  0.00    +0.089 C 
BRANCH   9  12
ATOM     10  O   UNL     1      32.230  -9.790 -18.853  0.00  0.00    -0.275 OA
ATOM     11  N   UNL     1      32.103  -8.872 -20.977  0.00  0.00    -0.276 N 
ATOM     12  C   UNL     1      31.833  -9.855 -20.018  0.00  0.00    +0.226 C 
ATOM     13  C   UNL     1      32.883  -7.679 -20.674  0.00  0.00    +0.115 C 
ATOM     14  C   UNL     1      31.622  -8.969 -22.353  0.00  0.00    +0.115 C 
ENDBRANCH   9  12
ENDBRANCH   8   9
ENDBRANCH   7   8
ENDBRANCH   6   7
ENDBRANCH   5   6
ENDBRANCH   1   5
BRANCH   1  15
ATOM     15  O   UNL     1      33.925 -16.936 -22.258  0.00  0.00    -0.472 OA
BRANCH  15  17
ATOM     16 CL   UNL     1      36.178 -21.640 -19.561  0.00  0.00    -0.082 Cl
ATOM     17  C   UNL     1      34.451 -18.033 -21.627  0.00  0.00    +0.139 C 
ATOM     18  C   UNL     1      33.601 -19.021 -21.142  0.00  0.00    +0.038 C 
ATOM     19  C   UNL     1      35.829 -18.148 -21.481  0.00  0.00    +0.038 C 
ATOM     20  C   UNL     1      34.136 -20.139 -20.502  0.00  0.00    +0.015 C 
ATOM     21  C   UNL     1      36.364 -19.265 -20.840  0.00  0.00    +0.015 C 
ATOM     22  C   UNL     1      35.517 -20.261 -20.351  0.00  0.00    +0.058 C 
ENDBRANCH  15  17
ENDBRANCH   1  15
TORSDOF 8
ENDMDL
MODEL 2
REMARK VINA RESULT:      -8.3      5.345      9.409
REMARK  Name = 160134
REMARK  8 active torsions:
REMARK  status: ('A' for Active; 'I' for Inactive)
REMARK    1  A    between atoms: C_1  and  C_5
REMARK    2  A    between atoms: C_1  and  O_15
REMARK    3  A    between atoms: C_5  and  O_6
REMARK    4  A    between atoms: O_6  and  C_7
REMARK    5  A    between atoms: C_7  and  C_8
REMARK    6  A    between atoms: C_8  and  C_9
REMARK    7  A    between atoms: C_9  and  C_12
REMARK    8  A    between atoms: O_15  and  C_17
REMARK                            x       y       z     vdW  Elec       q    Type
REMARK                         _______ _______ _______ _____ _____    ______ ____
ROOT
ATOM      1  C   UNL     1      34.917 -18.938 -21.216  0.00  0.00    +0.221 C 
ATOM      2  C   UNL     1      35.241 -19.066 -22.701  0.00  0.00    +0.055 C 
ATOM      3  C   UNL     1      33.412 -19.045 -20.975  0.00  0.00    +0.055 C 
ENDROOT
BRANCH   1   5
ATOM      4  O   UNL     1      36.743 -19.856 -19.896  0.00  0.00    -0.246 OA
ATOM      5  C   UNL     1      35.663 -20.026 -20.450  0.00  0.00    +0.353 C 
BRANCH   5   6
ATOM      6  O   UNL     1      34.948 -21.194 -20.434  0.00  0.00    -0.446 OA
BRANCH   6   7
ATOM      7  C   UNL     1      35.020 -21.954 -19.234  0.00  0.00    +0.209 C 
BRANCH   7   8
ATOM      8  C   UNL     1      33.604 -22.300 -18.788  0.00  0.00    +0.057 C 
BRANCH   8   9
ATOM      9  C   UNL     1      33.574 -23.121 -17.500  0.00  0.00    +0.089 C 
BRANCH   9  12
ATOM     10  O   UNL     1      31.259 -22.538 -17.255  0.00  0.00    -0.275 OA
ATOM     11  N   UNL     1      32.303 -23.439 -15.392  0.00  0.00    -0.276 N 
ATOM     12  C   UNL     1      32.270 -22.997 -16.719  0.00  0.00    +0.226 C 
ATOM     13  C   UNL     1      31.133 -23.393 -14.524  0.00  0.00    +0.115 C 
ATOM     14  C   UNL     1      33.513 -23.981 -14.777  0.00  0.00    +0.115 C 
ENDBRANCH   9  12
ENDBRANCH   8   9
ENDBRANCH   7   8
ENDBRANCH   6   7
ENDBRANCH   5   6
ENDBRANCH   1   5
BRANCH   1  15
ATOM     15  O   UNL     1      35.347 -17.656 -20.780  0.00  0.00    -0.472 OA
BRANCH  15  17
ATOM     16 CL   UNL     1      32.502 -13.015 -22.982  0.00  0.00    -0.082 Cl
ATOM     17  C   UNL     1      34.681 -16.573 -21.295  0.00  0.00    +0.139 C 
ATOM     18  C   UNL     1      33.757 -15.897 -20.507  0.00  0.00    +0.038 C 
ATOM     19  C   UNL     1      34.941 -16.162 -22.597  0.00  0.00    +0.038 C 
ATOM     20  C   UNL     1      33.081 -14.794 -21.030  0.00  0.00    +0.015 C 
ATOM     21  C   UNL     1      34.265 -15.060 -23.120  0.00  0.00    +0.015 C 
ATOM     22  C   UNL     1      33.335 -14.375 -22.336  0.00  0.00    +0.058 C 
ENDBRANCH  15  17
ENDBRANCH   1  15
TORSDOF 8
ENDMDL
MODEL 3
REMARK VINA RESULT:      -8.3      2.322      3.241
REMARK  Name = 160134
REMARK  8 active torsions:
REMARK  status: ('A' for Active; 'I' for Inactive)
REMARK    1  A    between atoms: C_1  and  C_5
REMARK    2  A    between atoms: C_1  and  O_15
REMARK    3  A    between atoms: C_5  and  O_6
REMARK    4  A    between atoms: O_6  and  C_7
REMARK    5  A    between atoms: C_7  and  C_8
REMARK    6  A    between atoms: C_8  and  C_9
REMARK    7  A    between atoms: C_9  and  C_12
REMARK    8  A    between atoms: O_15  and  C_17
REMARK                            x       y       z     vdW  Elec       q    Type
REMARK                         _______ _______ _______ _____ _____    ______ ____
ROOT
ATOM      1  C   UNL     1      35.053 -17.704 -22.341  0.00  0.00    +0.221 C 
ATOM      2  C   UNL     1      35.004 -16.913 -23.645  0.00  0.00    +0.055 C 
ATOM      3  C   UNL     1      36.465 -18.215 -22.066  0.00  0.00    +0.055 C 
ENDROOT
BRANCH   1   5
ATOM      4  O   UNL     1      35.229 -16.567 -20.197  0.00  0.00    -0.246 OA
ATOM      5  C   UNL     1      34.571 -16.811 -21.201  0.00  0.00    +0.353 C 
BRANCH   5   6
ATOM      6  O   UNL     1      33.331 -16.295 -21.473  0.00  0.00    -0.446 OA
BRANCH   6   7
ATOM      7  C   UNL     1      32.772 -15.456 -20.471  0.00  0.00    +0.209 C 
BRANCH   7   8
ATOM      8  C   UNL     1      32.902 -14.005 -20.920  0.00  0.00    +0.057 C 
BRANCH   8   9
ATOM      9  C   UNL     1      32.310 -13.759 -22.307  0.00  0.00    +0.089 C 
BRANCH   9  12
ATOM     10  O   UNL     1      34.061 -13.352 -23.895  0.00  0.00    -0.275 OA
ATOM     11  N   UNL     1      32.871 -11.501 -23.168  0.00  0.00    -0.276 N 
ATOM     12  C   UNL     1      33.169 -12.868 -23.196  0.00  0.00    +0.226 C 
ATOM     13  C   UNL     1      33.600 -10.526 -23.971  0.00  0.00    +0.115 C 
ATOM     14  C   UNL     1      31.809 -10.948 -22.332  0.00  0.00    +0.115 C 
ENDBRANCH   9  12
ENDBRANCH   8   9
ENDBRANCH   7   8
ENDBRANCH   6   7
ENDBRANCH   5   6
ENDBRANCH   1   5
BRANCH   1  15
ATOM     15  O   UNL     1      34.192 -18.826 -22.476  0.00  0.00    -0.472 OA
BRANCH  15  17
ATOM     16 CL   UNL     1      34.022 -22.592 -17.973  0.00  0.00    -0.082 Cl
ATOM     17  C   UNL     1      34.152 -19.704 -21.423  0.00  0.00    +0.139 C 
ATOM     18  C   UNL     1      32.939 -19.978 -20.802  0.00  0.00    +0.038 C 
ATOM     19  C   UNL     1      35.325 -20.312 -20.991  0.00  0.00    +0.038 C 
ATOM     20  C   UNL     1      32.899 -20.874 -19.733  0.00  0.00    +0.015 C 
ATOM     21  C   UNL     1      35.285 -21.206 -19.922  0.00  0.00    +0.015 C 
ATOM     22  C   UNL     1      34.071 -21.488 -19.293  0.00  0.00    +0.058 C 
ENDBRANCH  15  17
ENDBRANCH   1  15
TORSDOF 8
ENDMDL
MODEL 4
REMARK VINA RESULT:      -8.2      2.056      3.169
REMARK  Name = 160134
REMARK  8 active torsions:
REMARK  status: ('A' for Active; 'I' for Inactive)
REMARK    1  A    between atoms: C_1  and  C_5
REMARK    2  A    between atoms: C_1  and  O_15
REMARK    3  A    between atoms: C_5  and  O_6
REMARK    4  A    between atoms: O_6  and  C_7
REMARK    5  A    between atoms: C_7  and  C_8
REMARK    6  A    between atoms: C_8  and  C_9
REMARK    7  A    between atoms: C_9  and  C_12
REMARK    8  A    between atoms: O_15  and  C_17
REMARK                            x       y       z     vdW  Elec       q    Type
REMARK                         _______ _______ _______ _____ _____    ______ ____
ROOT
ATOM      1  C   UNL     1      35.068 -17.848 -22.253  0.00  0.00    +0.221 C 
ATOM      2  C   UNL     1      36.516 -18.284 -22.051  0.00  0.00    +0.055 C 
ATOM      3  C   UNL     1      34.558 -17.071 -21.041  0.00  0.00    +0.055 C 
ENDROOT
BRANCH   1   5
ATOM      4  O   UNL     1      34.960 -17.457 -24.652  0.00  0.00    -0.246 OA
ATOM      5  C   UNL     1      34.977 -16.998 -23.516  0.00  0.00    +0.353 C 
BRANCH   5   6
ATOM      6  O   UNL     1      34.879 -15.667 -23.206  0.00  0.00    -0.446 OA
BRANCH   6   7
ATOM      7  C   UNL     1      34.029 -14.893 -24.041  0.00  0.00    +0.209 C 
BRANCH   7   8
ATOM      8  C   UNL     1      33.765 -13.553 -23.365  0.00  0.00    +0.057 C 
BRANCH   8   9
ATOM      9  C   UNL     1      32.336 -13.426 -22.840  0.00  0.00    +0.089 C 
BRANCH   9  12
ATOM     10  O   UNL     1      32.686 -13.910 -20.517  0.00  0.00    -0.275 OA
ATOM     11  N   UNL     1      31.666 -11.889 -21.011  0.00  0.00    -0.276 N 
ATOM     12  C   UNL     1      32.250 -13.114 -21.351  0.00  0.00    +0.226 C 
ATOM     13  C   UNL     1      31.523 -11.449 -19.628  0.00  0.00    +0.115 C 
ATOM     14  C   UNL     1      31.155 -10.959 -22.016  0.00  0.00    +0.115 C 
ENDBRANCH   9  12
ENDBRANCH   8   9
ENDBRANCH   7   8
ENDBRANCH   6   7
ENDBRANCH   5   6
ENDBRANCH   1   5
BRANCH   1  15
ATOM     15  O   UNL     1      34.273 -19.018 -22.398  0.00  0.00    -0.472 OA
BRANCH  15  17
ATOM     16 CL   UNL     1      34.114 -22.686 -17.815  0.00  0.00    -0.082 Cl
ATOM     17  C   UNL     1      34.236 -19.875 -21.329  0.00  0.00    +0.139 C 
ATOM     18  C   UNL     1      35.410 -20.472 -20.885  0.00  0.00    +0.038 C 
ATOM     19  C   UNL     1      33.024 -20.137 -20.699  0.00  0.00    +0.038 C 
ATOM     20  C   UNL     1      35.373 -21.343 -19.795  0.00  0.00    +0.015 C 
ATOM     21  C   UNL     1      32.987 -21.008 -19.611  0.00  0.00    +0.015 C 
ATOM     22  C   UNL     1      34.161 -21.611 -19.158  0.00  0.00    +0.058 C 
ENDBRANCH  15  17
ENDBRANCH   1  15
TORSDOF 8
ENDMDL
MODEL 5
REMARK VINA RESULT:      -8.2      2.899      3.651
REMARK  Name = 160134
REMARK  8 active torsions:
REMARK  status: ('A' for Active; 'I' for Inactive)
REMARK    1  A    between atoms: C_1  and  C_5
REMARK    2  A    between atoms: C_1  and  O_15
REMARK    3  A    between atoms: C_5  and  O_6
REMARK    4  A    between atoms: O_6  and  C_7
REMARK    5  A    between atoms: C_7  and  C_8
REMARK    6  A    between atoms: C_8  and  C_9
REMARK    7  A    between atoms: C_9  and  C_12
REMARK    8  A    between atoms: O_15  and  C_17
REMARK                            x       y       z     vdW  Elec       q    Type
REMARK                         _______ _______ _______ _____ _____    ______ ____
ROOT
ATOM      1  C   UNL     1      35.077 -18.118 -23.252  0.00  0.00    +0.221 C 
ATOM      2  C   UNL     1      34.709 -19.408 -23.978  0.00  0.00    +0.055 C 
ATOM      3  C   UNL     1      36.533 -18.149 -22.789  0.00  0.00    +0.055 C 
ENDROOT
BRANCH   1   5
ATOM      4  O   UNL     1      34.787 -17.024 -25.406  0.00  0.00    -0.246 OA
ATOM      5  C   UNL     1      34.833 -16.936 -24.185  0.00  0.00    +0.353 C 
BRANCH   5   6
ATOM      6  O   UNL     1      34.635 -15.782 -23.473  0.00  0.00    -0.446 OA
BRANCH   6   7
ATOM      7  C   UNL     1      33.658 -14.889 -23.993  0.00  0.00    +0.209 C 
BRANCH   7   8
ATOM      8  C   UNL     1      33.936 -13.491 -23.451  0.00  0.00    +0.057 C 
BRANCH   8   9
ATOM      9  C   UNL     1      33.755 -12.401 -24.506  0.00  0.00    +0.089 C 
BRANCH   9  12
ATOM     10  O   UNL     1      32.774 -10.767 -23.049  0.00  0.00    -0.275 OA
ATOM     11  N   UNL     1      34.471 -10.026 -24.443  0.00  0.00    -0.276 N 
ATOM     12  C   UNL     1      33.608 -10.999 -23.927  0.00  0.00    +0.226 C 
ATOM     13  C   UNL     1      34.454  -8.643 -23.980  0.00  0.00    +0.115 C 
ATOM     14  C   UNL     1      35.453 -10.322 -25.483  0.00  0.00    +0.115 C 
ENDBRANCH   9  12
ENDBRANCH   8   9
ENDBRANCH   7   8
ENDBRANCH   6   7
ENDBRANCH   5   6
ENDBRANCH   1   5
BRANCH   1  15
ATOM     15  O   UNL     1      34.248 -18.008 -22.103  0.00  0.00    -0.472 OA
BRANCH  15  17
ATOM     16 CL   UNL     1      33.969 -22.695 -18.576  0.00  0.00    -0.082 Cl
ATOM     17  C   UNL     1      34.183 -19.103 -21.281  0.00  0.00    +0.139 C 
ATOM     18  C   UNL     1      35.357 -19.707 -20.846  0.00  0.00    +0.038 C 
ATOM     19  C   UNL     1      32.943 -19.597 -20.889  0.00  0.00    +0.038 C 
ATOM     20  C   UNL     1      35.291 -20.820 -20.007  0.00  0.00    +0.015 C 
ATOM     21  C   UNL     1      32.878 -20.710 -20.051  0.00  0.00    +0.015 C 
ATOM     22  C   UNL     1      34.052 -21.321 -19.610  0.00  0.00    +0.058 C 
ENDBRANCH  15  17
ENDBRANCH   1  15
TORSDOF 8
ENDMDL
MODEL 6
REMARK VINA RESULT:      -8.0      8.755     12.606
REMARK  Name = 160134
REMARK  8 active torsions:
REMARK  status: ('A' for Active; 'I' for Inactive)
REMARK    1  A    between atoms: C_1  and  C_5
REMARK    2  A    between atoms: C_1  and  O_15
REMARK    3  A    between atoms: C_5  and  O_6
REMARK    4  A    between atoms: O_6  and  C_7
REMARK    5  A    between atoms: C_7  and  C_8
REMARK    6  A    between atoms: C_8  and  C_9
REMARK    7  A    between atoms: C_9  and  C_12
REMARK    8  A    between atoms: O_15  and  C_17
REMARK                            x       y       z     vdW  Elec       q    Type
REMARK                         _______ _______ _______ _____ _____    ______ ____
ROOT
ATOM      1  C   UNL     1      34.729 -23.270 -16.038  0.00  0.00    +0.221 C 
ATOM      2  C   UNL     1      33.374 -22.796 -15.519  0.00  0.00    +0.055 C 
ATOM      3  C   UNL     1      35.766 -22.151 -15.955  0.00  0.00    +0.055 C 
ENDROOT
BRANCH   1   5
ATOM      4  O   UNL     1      34.458 -25.075 -14.429  0.00  0.00    -0.246 OA
ATOM      5  C   UNL     1      35.175 -24.480 -15.225  0.00  0.00    +0.353 C 
BRANCH   5   6
ATOM      6  O   UNL     1      36.464 -24.831 -15.533  0.00  0.00    -0.446 OA
BRANCH   6   7
ATOM      7  C   UNL     1      36.909 -26.080 -15.023  0.00  0.00    +0.209 C 
BRANCH   7   8
ATOM      8  C   UNL     1      38.391 -25.969 -14.681  0.00  0.00    +0.057 C 
BRANCH   8   9
ATOM      9  C   UNL     1      38.634 -25.430 -13.272  0.00  0.00    +0.089 C 
BRANCH   9  12
ATOM     10  O   UNL     1      37.064 -26.672 -11.949  0.00  0.00    -0.275 OA
ATOM     11  N   UNL     1      36.804 -24.369 -11.975  0.00  0.00    -0.276 N 
ATOM     12  C   UNL     1      37.433 -25.564 -12.344  0.00  0.00    +0.226 C 
ATOM     13  C   UNL     1      35.649 -24.337 -11.086  0.00  0.00    +0.115 C 
ATOM     14  C   UNL     1      37.257 -23.066 -12.454  0.00  0.00    +0.115 C 
ENDBRANCH   9  12
ENDBRANCH   8   9
ENDBRANCH   7   8
ENDBRANCH   6   7
ENDBRANCH   5   6
ENDBRANCH   1   5
BRANCH   1  15
ATOM     15  O   UNL     1      34.574 -23.633 -17.403  0.00  0.00    -0.472 OA
BRANCH  15  17
ATOM     16 CL   UNL     1      34.228 -19.237 -21.281  0.00  0.00    -0.082 Cl
ATOM     17  C   UNL     1      34.493 -22.607 -18.310  0.00  0.00    +0.139 C 
ATOM     18  C   UNL     1      33.246 -22.154 -18.725  0.00  0.00    +0.038 C 
ATOM     19  C   UNL     1      35.659 -22.030 -18.801  0.00  0.00    +0.038 C 
ATOM     20  C   UNL     1      33.164 -21.109 -19.646  0.00  0.00    +0.015 C 
ATOM     21  C   UNL     1      35.576 -20.986 -19.722  0.00  0.00    +0.015 C 
ATOM     22  C   UNL     1      34.329 -20.525 -20.145  0.00  0.00    +0.058 C 
ENDBRANCH  15  17
ENDBRANCH   1  15
TORSDOF 8
ENDMDL
MODEL 7
REMARK VINA RESULT:      -7.9      2.723      3.893
REMARK  Name = 160134
REMARK  8 active torsions:
REMARK  status: ('A' for Active; 'I' for Inactive)
REMARK    1  A    between atoms: C_1  and  C_5
REMARK    2  A    between atoms: C_1  and  O_15
REMARK    3  A    between atoms: C_5  and  O_6
REMARK    4  A    between atoms: O_6  and  C_7
REMARK    5  A    between atoms: C_7  and  C_8
REMARK    6  A    between atoms: C_8  and  C_9
REMARK    7  A    between atoms: C_9  and  C_12
REMARK    8  A    between atoms: O_15  and  C_17
REMARK                            x       y       z     vdW  Elec       q    Type
REMARK                         _______ _______ _______ _____ _____    ______ ____
ROOT
ATOM      1  C   UNL     1      33.495 -13.537 -23.934  0.00  0.00    +0.221 C 
ATOM      2  C   UNL     1      32.389 -13.356 -22.898  0.00  0.00    +0.055 C 
ATOM      3  C   UNL     1      33.096 -14.572 -24.983  0.00  0.00    +0.055 C 
ENDROOT
BRANCH   1   5
ATOM      4  O   UNL     1      33.777 -12.000 -25.799  0.00  0.00    -0.246 OA
ATOM      5  C   UNL     1      33.786 -12.190 -24.589  0.00  0.00    +0.353 C 
BRANCH   5   6
ATOM      6  O   UNL     1      34.017 -11.225 -23.644  0.00  0.00    -0.446 OA
BRANCH   6   7
ATOM      7  C   UNL     1      33.521  -9.927 -23.944  0.00  0.00    +0.209 C 
BRANCH   7   8
ATOM      8  C   UNL     1      34.702  -8.984 -24.140  0.00  0.00    +0.057 C 
BRANCH   8   9
ATOM      9  C   UNL     1      34.628  -7.748 -23.245  0.00  0.00    +0.089 C 
BRANCH   9  12
ATOM     10  O   UNL     1      33.046  -6.391 -24.433  0.00  0.00    -0.275 OA
ATOM     11  N   UNL     1      32.493  -6.959 -22.255  0.00  0.00    -0.276 N 
ATOM     12  C   UNL     1      33.326  -6.966 -23.379  0.00  0.00    +0.226 C 
ATOM     13  C   UNL     1      31.213  -6.262 -22.236  0.00  0.00    +0.115 C 
ATOM     14  C   UNL     1      32.845  -7.648 -21.016  0.00  0.00    +0.115 C 
ENDBRANCH   9  12
ENDBRANCH   8   9
ENDBRANCH   7   8
ENDBRANCH   6   7
ENDBRANCH   5   6
ENDBRANCH   1   5
BRANCH   1  15
ATOM     15  O   UNL     1      34.654 -14.010 -23.261  0.00  0.00    -0.472 OA
BRANCH  15  17
ATOM     16 CL   UNL     1      34.638 -19.637 -21.583  0.00  0.00    -0.082 Cl
ATOM     17  C   UNL     1      34.649 -15.323 -22.870  0.00  0.00    +0.139 C 
ATOM     18  C   UNL     1      35.029 -16.311 -23.772  0.00  0.00    +0.038 C 
ATOM     19  C   UNL     1      34.265 -15.654 -21.575  0.00  0.00    +0.038 C 
ATOM     20  C   UNL     1      35.026 -17.648 -23.373  0.00  0.00    +0.015 C 
ATOM     21  C   UNL     1      34.262 -16.991 -21.177  0.00  0.00    +0.015 C 
ATOM     22  C   UNL     1      34.642 -17.988 -22.076  0.00  0.00    +0.058 C 
ENDBRANCH  15  17
ENDBRANCH   1  15
TORSDOF 8
ENDMDL
MODEL 8
REMARK VINA RESULT:      -7.9      4.528      8.704
REMARK  Name = 160134
REMARK  8 active torsions:
REMARK  status: ('A' for Active; 'I' for Inactive)
REMARK    1  A    between atoms: C_1  and  C_5
REMARK    2  A    between atoms: C_1  and  O_15
REMARK    3  A    between atoms: C_5  and  O_6
REMARK    4  A    between atoms: O_6  and  C_7
REMARK    5  A    between atoms: C_7  and  C_8
REMARK    6  A    between atoms: C_8  and  C_9
REMARK    7  A    between atoms: C_9  and  C_12
REMARK    8  A    between atoms: O_15  and  C_17
REMARK                            x       y       z     vdW  Elec       q    Type
REMARK                         _______ _______ _______ _____ _____    ______ ____
ROOT
ATOM      1  C   UNL     1      33.523 -15.163 -21.965  0.00  0.00    +0.221 C 
ATOM      2  C   UNL     1      32.705 -16.015 -20.999  0.00  0.00    +0.055 C 
ATOM      3  C   UNL     1      34.289 -14.073 -21.217  0.00  0.00    +0.055 C 
ENDROOT
BRANCH   1   5
ATOM      4  O   UNL     1      35.319 -15.659 -23.531  0.00  0.00    -0.246 OA
ATOM      5  C   UNL     1      34.483 -16.067 -22.732  0.00  0.00    +0.353 C 
BRANCH   5   6
ATOM      6  O   UNL     1      34.310 -17.379 -22.379  0.00  0.00    -0.446 OA
BRANCH   6   7
ATOM      7  C   UNL     1      35.001 -18.335 -23.172  0.00  0.00    +0.209 C 
BRANCH   7   8
ATOM      8  C   UNL     1      34.923 -19.692 -22.482  0.00  0.00    +0.057 C 
BRANCH   8   9
ATOM      9  C   UNL     1      34.888 -19.580 -20.958  0.00  0.00    +0.089 C 
BRANCH   9  12
ATOM     10  O   UNL     1      32.694 -20.439 -20.504  0.00  0.00    -0.275 OA
ATOM     11  N   UNL     1      34.463 -21.507 -19.454  0.00  0.00    -0.276 N 
ATOM     12  C   UNL     1      33.905 -20.535 -20.292  0.00  0.00    +0.226 C 
ATOM     13  C   UNL     1      33.650 -22.496 -18.756  0.00  0.00    +0.115 C 
ATOM     14  C   UNL     1      35.901 -21.604 -19.217  0.00  0.00    +0.115 C 
ENDBRANCH   9  12
ENDBRANCH   8   9
ENDBRANCH   7   8
ENDBRANCH   6   7
ENDBRANCH   5   6
ENDBRANCH   1   5
BRANCH   1  15
ATOM     15  O   UNL     1      32.623 -14.534 -22.868  0.00  0.00    -0.472 OA
BRANCH  15  17
ATOM     16 CL   UNL     1      33.054  -8.704 -23.413  0.00  0.00    -0.082 Cl
ATOM     17  C   UNL     1      32.725 -13.173 -22.994  0.00  0.00    +0.139 C 
ATOM     18  C   UNL     1      33.608 -12.633 -23.922  0.00  0.00    +0.038 C 
ATOM     19  C   UNL     1      31.943 -12.348 -22.194  0.00  0.00    +0.038 C 
ATOM     20  C   UNL     1      33.710 -11.247 -24.053  0.00  0.00    +0.015 C 
ATOM     21  C   UNL     1      32.045 -10.963 -22.324  0.00  0.00    +0.015 C 
ATOM     22  C   UNL     1      32.928 -10.413 -23.253  0.00  0.00    +0.058 C 
ENDBRANCH  15  17
ENDBRANCH   1  15
TORSDOF 8
ENDMDL
MODEL 9
REMARK VINA RESULT:      -7.9      2.121      3.311
REMARK  Name = 160134
REMARK  8 active torsions:
REMARK  status: ('A' for Active; 'I' for Inactive)
REMARK    1  A    between atoms: C_1  and  C_5
REMARK    2  A    between atoms: C_1  and  O_15
REMARK    3  A    between atoms: C_5  and  O_6
REMARK    4  A    between atoms: O_6  and  C_7
REMARK    5  A    between atoms: C_7  and  C_8
REMARK    6  A    between atoms: C_8  and  C_9
REMARK    7  A    between atoms: C_9  and  C_12
REMARK    8  A    between atoms: O_15  and  C_17
REMARK                            x       y       z     vdW  Elec       q    Type
REMARK                         _______ _______ _______ _____ _____    ______ ____
ROOT
ATOM      1  C   UNL     1      33.498 -13.742 -24.183  0.00  0.00    +0.221 C 
ATOM      2  C   UNL     1      32.426 -13.735 -23.098  0.00  0.00    +0.055 C 
ATOM      3  C   UNL     1      33.140 -14.724 -25.298  0.00  0.00    +0.055 C 
ENDROOT
BRANCH   1   5
ATOM      4  O   UNL     1      33.832 -12.074 -25.924  0.00  0.00    -0.246 OA
ATOM      5  C   UNL     1      33.652 -12.330 -24.739  0.00  0.00    +0.353 C 
BRANCH   5   6
ATOM      6  O   UNL     1      33.524 -11.396 -23.745  0.00  0.00    -0.446 OA
BRANCH   6   7
ATOM      7  C   UNL     1      34.206 -10.165 -23.953  0.00  0.00    +0.209 C 
BRANCH   7   8
ATOM      8  C   UNL     1      33.257  -9.018 -23.625  0.00  0.00    +0.057 C 
BRANCH   8   9
ATOM      9  C   UNL     1      32.025  -9.473 -22.845  0.00  0.00    +0.089 C 
BRANCH   9  12
ATOM     10  O   UNL     1      32.770  -8.318 -20.878  0.00  0.00    -0.275 OA
ATOM     11  N   UNL     1      31.489 -10.221 -20.540  0.00  0.00    -0.276 N 
ATOM     12  C   UNL     1      32.140  -9.273 -21.338  0.00  0.00    +0.226 C 
ATOM     13  C   UNL     1      31.502 -10.156 -19.084  0.00  0.00    +0.115 C 
ATOM     14  C   UNL     1      30.748 -11.345 -21.106  0.00  0.00    +0.115 C 
ENDBRANCH   9  12
ENDBRANCH   8   9
ENDBRANCH   7   8
ENDBRANCH   6   7
ENDBRANCH   5   6
ENDBRANCH   1   5
BRANCH   1  15
ATOM     15  O   UNL     1      34.719 -14.166 -23.592  0.00  0.00    -0.472 OA
BRANCH  15  17
ATOM     16 CL   UNL     1      34.690 -19.408 -20.946  0.00  0.00    -0.082 Cl
ATOM     17  C   UNL     1      34.714 -15.390 -22.974  0.00  0.00    +0.139 C 
ATOM     18  C   UNL     1      34.533 -15.464 -21.598  0.00  0.00    +0.038 C 
ATOM     19  C   UNL     1      34.887 -16.544 -23.731  0.00  0.00    +0.038 C 
ATOM     20  C   UNL     1      34.525 -16.710 -20.969  0.00  0.00    +0.015 C 
ATOM     21  C   UNL     1      34.880 -17.788 -23.102  0.00  0.00    +0.015 C 
ATOM     22  C   UNL     1      34.699 -17.872 -21.721  0.00  0.00    +0.058 C 
ENDBRANCH  15  17
ENDBRANCH   1  15
TORSDOF 8
ENDMDL
